
  xtb     02022218073D
 energy: -183.620170897460 gnorm: 0.000572255003 xtb: 6.4.1 (unknown)
 99113  0     0  0            999 V2000
   -2.4556   -2.0148   -8.1534 C   0  0  0  0  0  0  0  0  0  0  0  0
   -1.3999   -2.7908   -8.5718 C   0  0  0  0  0  0  0  0  0  0  0  0
   -0.2934   -3.2317   -7.7262 C   0  0  0  0  0  0  0  0  0  0  0  0
   -0.1255   -2.9587   -6.5440 O   0  0  0  0  0  0  0  0  0  0  0  0
    0.5709   -4.0609   -8.5723 C   0  0  0  0  0  0  0  0  0  0  0  0
    1.7472   -4.7326   -8.2477 C   0  0  0  0  0  0  0  0  0  0  0  0
    2.2354   -4.6685   -6.9993 O   0  0  0  0  0  0  0  0  0  0  0  0
    2.3768   -5.4597   -9.2638 C   0  0  0  0  0  0  0  0  0  0  0  0
    1.8466   -5.5065  -10.5381 C   0  0  0  0  0  0  0  0  0  0  0  0
    0.6714   -4.8378  -10.8639 C   0  0  0  0  0  0  0  0  0  0  0  0
    0.0344   -4.1135   -9.8731 C   0  0  0  0  0  0  0  0  0  0  0  0
   -1.1965   -3.3186   -9.9030 C   0  0  0  0  0  0  0  0  0  0  0  0
   -1.9796   -3.1203  -11.0111 C   0  0  0  0  0  0  0  0  0  0  0  0
   -3.1590   -2.3477  -11.0590 C   0  0  0  0  0  0  0  0  0  0  0  0
   -4.1255   -1.7399  -11.1884 N   0  0  0  0  0  0  0  0  0  0  0  0
   -1.7101   -3.6616  -12.2857 C   0  0  0  0  0  0  0  0  0  0  0  0
   -1.5559   -4.0651  -13.3496 N   0  0  0  0  0  0  0  0  0  0  0  0
   -2.7340   -1.4489   -6.9033 C   0  0  0  0  0  0  0  0  0  0  0  0
   -3.8884   -0.6851   -6.7025 C   0  0  0  0  0  0  0  0  0  0  0  0
   -4.0388   -0.1712   -5.4296 C   0  0  0  0  0  0  0  0  0  0  0  0
   -5.3159    0.8163   -4.7388 S   0  0  0  0  0  0  0  0  0  0  0  0
   -4.4665    0.8089   -3.2330 C   0  0  0  0  0  0  0  0  0  0  0  0
   -4.6227    1.2675   -1.9193 C   0  0  0  0  0  0  0  0  0  0  0  0
   -5.7056    1.9197   -1.2885 C   0  0  0  0  0  0  0  0  0  0  0  0
   -5.6487    2.1449    0.1261 C   0  0  0  0  0  0  0  0  0  0  0  0
   -6.7524    2.7060    0.5937 N   0  0  0  0  0  0  0  0  0  0  0  0
   -7.7737    2.9366   -0.6408 S   0  0  0  0  0  0  0  0  0  0  0  0
   -6.8469    2.3271   -1.8202 N   0  0  0  0  0  0  0  0  0  0  0  0
   -4.4641    1.8176    0.8231 C   0  0  0  0  0  0  0  0  0  0  0  0
   -4.0915    2.0453    2.1544 C   0  0  0  0  0  0  0  0  0  0  0  0
   -2.7546    1.6509    2.2750 C   0  0  0  0  0  0  0  0  0  0  0  0
   -2.2991    1.1531    1.0814 N   0  0  0  0  0  0  0  0  0  0  0  0
   -0.8669    1.1016    0.8925 C   0  0  0  0  0  0  0  0  0  0  0  0
   -0.3124    2.4801    0.5397 C   0  0  0  0  0  0  0  0  0  0  0  0
   -3.3350    1.2405    0.1665 C   0  0  0  0  0  0  0  0  0  0  0  0
   -3.4647    0.8526   -1.1926 C   0  0  0  0  0  0  0  0  0  0  0  0
   -2.6652    0.1166   -2.0443 N   0  0  0  0  0  0  0  0  0  0  0  0
   -3.2620    0.0959   -3.2764 C   0  0  0  0  0  0  0  0  0  0  0  0
   -3.0040   -0.4819   -4.5212 C   0  0  0  0  0  0  0  0  0  0  0  0
   -1.6957   -1.5512   -5.3176 Se  0  0  0  0  0  2  0  0  0  0  0  0
   -1.5642   -0.7808   -1.7866 C   0  0  0  0  0  0  0  0  0  0  0  0
   -0.2338   -0.2149   -2.2830 C   0  0  0  0  0  0  0  0  0  0  0  0
   -2.2200    1.8847    3.5436 C   0  0  0  0  0  0  0  0  0  0  0  0
   -3.1960    2.4478    4.3921 C   0  0  0  0  0  0  0  0  0  0  0  0
   -4.7526    2.6909    3.6160 S   0  0  0  0  0  0  0  0  0  0  0  0
   -2.7739    2.7334    5.6764 C   0  0  0  0  0  0  0  0  0  0  0  0
   -1.4364    2.4278    5.9452 C   0  0  0  0  0  0  0  0  0  0  0  0
   -0.5839    1.6849    4.4183 Se  0  0  0  0  0  2  0  0  0  0  0  0
   -0.8807    2.6789    7.2066 C   0  0  0  0  0  0  0  0  0  0  0  0
    0.3916    2.4674    7.6815 C   0  0  0  0  0  0  0  0  0  0  0  0
    1.4918    1.8922    6.9194 C   0  0  0  0  0  0  0  0  0  0  0  0
    1.4671    1.5192    5.7503 O   0  0  0  0  0  0  0  0  0  0  0  0
    2.6537    1.8431    7.8153 C   0  0  0  0  0  0  0  0  0  0  0  0
    3.9266    1.3605    7.5203 C   0  0  0  0  0  0  0  0  0  0  0  0
    4.8146    1.4542    8.5647 C   0  0  0  0  0  0  0  0  0  0  0  0
    4.4615    1.9872    9.8112 C   0  0  0  0  0  0  0  0  0  0  0  0
    3.2065    2.4603   10.1167 C   0  0  0  0  0  0  0  0  0  0  0  0
    2.2871    2.3770    9.0684 C   0  0  0  0  0  0  0  0  0  0  0  0
    0.8790    2.7738    9.0127 C   0  0  0  0  0  0  0  0  0  0  0  0
    0.1741    3.3349   10.0459 C   0  0  0  0  0  0  0  0  0  0  0  0
   -1.1843    3.7145   10.0087 C   0  0  0  0  0  0  0  0  0  0  0  0
   -2.2811    4.0505   10.0721 N   0  0  0  0  0  0  0  0  0  0  0  0
    0.7119    3.6230   11.3181 C   0  0  0  0  0  0  0  0  0  0  0  0
    1.0766    3.8874   12.3742 N   0  0  0  0  0  0  0  0  0  0  0  0
    5.8449    1.7892   10.3771 C   0  0  0  0  0  0  0  0  0  0  0  0
    6.7626    3.0323   10.4868 C   0  0  0  0  0  0  0  0  0  0  0  0
    6.3074    3.9985    9.4214 C   0  0  0  0  0  0  0  0  0  0  0  0
    6.6430    3.4901    8.2433 C   0  0  0  0  0  0  0  0  0  0  0  0
    7.3304    2.1700    8.4908 C   0  0  0  0  0  0  0  0  0  0  0  0
    8.0327    2.4763    9.8232 C   0  0  0  0  0  0  0  0  0  0  0  0
    6.2379    1.1918    8.9891 C   0  0  0  0  0  0  0  0  0  0  0  0
   -3.2125   -1.7891   -8.8964 H   0  0  0  0  0  0  0  0  0  0  0  0
    3.0501   -5.1819   -6.9230 H   0  0  0  0  0  0  0  0  0  0  0  0
    3.2925   -5.9910   -9.0404 H   0  0  0  0  0  0  0  0  0  0  0  0
    2.3561   -6.0762  -11.3001 H   0  0  0  0  0  0  0  0  0  0  0  0
    0.2831   -4.8955  -11.8661 H   0  0  0  0  0  0  0  0  0  0  0  0
   -4.5998   -0.5181   -7.4938 H   0  0  0  0  0  0  0  0  0  0  0  0
   -0.4327    0.7656    1.8431 H   0  0  0  0  0  0  0  0  0  0  0  0
   -0.5952    0.3855    0.1271 H   0  0  0  0  0  0  0  0  0  0  0  0
   -0.5163    3.1862    1.3421 H   0  0  0  0  0  0  0  0  0  0  0  0
   -0.7705    2.8533   -0.3745 H   0  0  0  0  0  0  0  0  0  0  0  0
    0.7631    2.4203    0.3991 H   0  0  0  0  0  0  0  0  0  0  0  0
   -1.7660   -1.7104   -2.3365 H   0  0  0  0  0  0  0  0  0  0  0  0
   -1.5460   -1.0299   -0.7243 H   0  0  0  0  0  0  0  0  0  0  0  0
   -0.0658    0.7956   -1.9193 H   0  0  0  0  0  0  0  0  0  0  0  0
    0.5839   -0.8526   -1.9589 H   0  0  0  0  0  0  0  0  0  0  0  0
   -0.2298   -0.1867   -3.3724 H   0  0  0  0  0  0  0  0  0  0  0  0
   -3.4159    3.1657    6.4255 H   0  0  0  0  0  0  0  0  0  0  0  0
   -1.5912    3.1121    7.9017 H   0  0  0  0  0  0  0  0  0  0  0  0
    4.1550    0.9578    6.5459 H   0  0  0  0  0  0  0  0  0  0  0  0
    2.9535    2.8625   11.0832 H   0  0  0  0  0  0  0  0  0  0  0  0
    5.9160    1.1436   11.2500 H   0  0  0  0  0  0  0  0  0  0  0  0
    6.8571    3.4356   11.4913 H   0  0  0  0  0  0  0  0  0  0  0  0
    5.7548    4.8970    9.6248 H   0  0  0  0  0  0  0  0  0  0  0  0
    6.4265    3.8787    7.2654 H   0  0  0  0  0  0  0  0  0  0  0  0
    7.9428    1.7874    7.6784 H   0  0  0  0  0  0  0  0  0  0  0  0
    8.8175    3.2245    9.7231 H   0  0  0  0  0  0  0  0  0  0  0  0
    8.4293    1.5911   10.3185 H   0  0  0  0  0  0  0  0  0  0  0  0
    6.5626    0.1537    8.9551 H   0  0  0  0  0  0  0  0  0  0  0  0
  1  2  2  0  0  0  0
  2  3  1  0  0  0  0
  3  4  2  0  0  0  0
  3  5  1  0  0  0  0
  5  6  2  0  0  0  0
  6  7  1  0  0  0  0
  6  8  1  0  0  0  0
  8  9  2  0  0  0  0
  9 10  1  0  0  0  0
 10 11  2  0  0  0  0
 11 12  1  0  0  0  0
 12 13  2  0  0  0  0
 13 14  1  0  0  0  0
 14 15  3  0  0  0  0
 13 16  1  0  0  0  0
 16 17  3  0  0  0  0
  1 18  1  0  0  0  0
 18 19  2  0  0  0  0
 19 20  1  0  0  0  0
 20 21  1  0  0  0  0
 21 22  1  0  0  0  0
 22 23  1  0  0  0  0
 23 24  1  0  0  0  0
 24 25  1  0  0  0  0
 25 26  2  0  0  0  0
 26 27  1  0  0  0  0
 27 28  1  0  0  0  0
 25 29  1  0  0  0  0
 29 30  1  0  0  0  0
 30 31  2  0  0  0  0
 31 32  1  0  0  0  0
 32 33  1  0  0  0  0
 33 34  1  0  0  0  0
 32 35  1  0  0  0  0
 35 36  1  0  0  0  0
 36 37  1  0  0  0  0
 37 38  1  0  0  0  0
 38 39  1  0  0  0  0
 39 40  1  0  0  0  0
 37 41  1  0  0  0  0
 41 42  1  0  0  0  0
 31 43  1  0  0  0  0
 43 44  2  0  0  0  0
 44 45  1  0  0  0  0
 44 46  1  0  0  0  0
 46 47  2  0  0  0  0
 47 48  1  0  0  0  0
 47 49  1  0  0  0  0
 49 50  2  0  0  0  0
 50 51  1  0  0  0  0
 51 52  2  0  0  0  0
 51 53  1  0  0  0  0
 53 54  2  0  0  0  0
 54 55  1  0  0  0  0
 55 56  2  0  0  0  0
 56 57  1  0  0  0  0
 57 58  2  0  0  0  0
 58 59  1  0  0  0  0
 59 60  2  0  0  0  0
 60 61  1  0  0  0  0
 61 62  3  0  0  0  0
 60 63  1  0  0  0  0
 63 64  3  0  0  0  0
 56 65  1  0  0  0  0
 65 66  1  0  0  0  0
 66 67  1  0  0  0  0
 67 68  2  0  0  0  0
 68 69  1  0  0  0  0
 69 70  1  0  0  0  0
 69 71  1  0  0  0  0
 12  2  1  0  0  0  0
 40 18  1  0  0  0  0
 48 43  1  0  0  0  0
 59 50  1  0  0  0  0
 71 65  1  0  0  0  0
 11  5  1  0  0  0  0
 39 20  2  0  0  0  0
 58 53  1  0  0  0  0
 70 66  1  0  0  0  0
 38 22  2  0  0  0  0
 71 55  1  0  0  0  0
 36 23  2  0  0  0  0
 28 24  2  0  0  0  0
 35 29  2  0  0  0  0
 45 30  1  0  0  0  0
  1 72  1  0  0  0  0
  7 73  1  0  0  0  0
  8 74  1  0  0  0  0
  9 75  1  0  0  0  0
 10 76  1  0  0  0  0
 19 77  1  0  0  0  0
 33 78  1  0  0  0  0
 33 79  1  0  0  0  0
 34 80  1  0  0  0  0
 34 81  1  0  0  0  0
 34 82  1  0  0  0  0
 41 83  1  0  0  0  0
 41 84  1  0  0  0  0
 42 85  1  0  0  0  0
 42 86  1  0  0  0  0
 42 87  1  0  0  0  0
 46 88  1  0  0  0  0
 49 89  1  0  0  0  0
 54 90  1  0  0  0  0
 57 91  1  0  0  0  0
 65 92  1  0  0  0  0
 66 93  1  0  0  0  0
 67 94  1  0  0  0  0
 68 95  1  0  0  0  0
 69 96  1  0  0  0  0
 70 97  1  0  0  0  0
 70 98  1  0  0  0  0
 71 99  1  0  0  0  0
M  END
