
  xtb     02022204403D
 energy: -216.626173871571 gnorm: 0.000955345088 xtb: 6.4.1 (unknown)
118131  0     0  0            999 V2000
    4.8112   -3.9336   -4.4336 C   0  0  0  0  0  0  0  0  0  0  0  0
    5.8334   -4.8378   -4.5542 C   0  0  0  0  0  0  0  0  0  0  0  0
    6.3114   -5.7354   -3.4871 C   0  0  0  0  0  0  0  0  0  0  0  0
    5.8772   -5.8754   -2.3516 O   0  0  0  0  0  0  0  0  0  0  0  0
    7.3424   -6.5637   -4.1004 C   0  0  0  0  0  0  0  0  0  0  0  0
    8.1033   -7.5415   -3.4703 C   0  0  0  0  0  0  0  0  0  0  0  0
    7.9483   -7.8220   -2.1713 O   0  0  0  0  0  0  0  0  0  0  0  0
    9.0502   -8.2138   -4.2541 C   0  0  0  0  0  0  0  0  0  0  0  0
    9.1832   -7.9113   -5.5956 C   0  0  0  0  0  0  0  0  0  0  0  0
    8.4075   -6.9384   -6.2259 C   0  0  0  0  0  0  0  0  0  0  0  0
    7.4790   -6.2544   -5.4637 C   0  0  0  0  0  0  0  0  0  0  0  0
    6.5419   -5.1752   -5.7728 C   0  0  0  0  0  0  0  0  0  0  0  0
    6.4524   -4.5157   -6.9714 C   0  0  0  0  0  0  0  0  0  0  0  0
    7.1921   -4.8656   -8.1199 C   0  0  0  0  0  0  0  0  0  0  0  0
    7.7542   -5.1068   -9.0913 N   0  0  0  0  0  0  0  0  0  0  0  0
    5.6466   -3.3831   -7.2068 C   0  0  0  0  0  0  0  0  0  0  0  0
    5.0418   -2.4377   -7.4515 N   0  0  0  0  0  0  0  0  0  0  0  0
    4.3698   -3.3087   -3.2495 C   0  0  0  0  0  0  0  0  0  0  0  0
    5.0731   -2.9812   -2.0904 C   0  0  0  0  0  0  0  0  0  0  0  0
    6.4812   -3.2887   -1.8215 C   0  0  0  0  0  0  0  0  0  0  0  0
    6.7631   -4.0585   -0.6951 C   0  0  0  0  0  0  0  0  0  0  0  0
    8.0554   -4.4689   -0.4273 C   0  0  0  0  0  0  0  0  0  0  0  0
    9.0794   -4.1032   -1.2824 C   0  0  0  0  0  0  0  0  0  0  0  0
    8.8096   -3.2892   -2.3687 C   0  0  0  0  0  0  0  0  0  0  0  0
    7.5196   -2.8620   -2.6555 C   0  0  0  0  0  0  0  0  0  0  0  0
    7.3011   -1.8669   -3.7620 C   0  0  0  0  0  0  0  0  0  0  0  0
    7.1096   -0.4658   -3.1769 C   0  0  0  0  0  0  0  0  0  0  0  0
    4.2703   -2.2603   -1.1984 C   0  0  0  0  0  0  0  0  0  0  0  0
    4.5979   -1.5615    0.3705 S   0  0  0  0  0  0  0  0  0  0  0  0
    2.9904   -0.9233    0.3913 C   0  0  0  0  0  0  0  0  0  0  0  0
    2.1791   -0.1190    1.2089 C   0  0  0  0  0  0  0  0  0  0  0  0
    2.4311    0.6245    2.3854 C   0  0  0  0  0  0  0  0  0  0  0  0
    1.4181    1.5191    2.8812 C   0  0  0  0  0  0  0  0  0  0  0  0
    1.8286    2.2087    3.9334 N   0  0  0  0  0  0  0  0  0  0  0  0
    3.3459    1.7685    4.2805 S   0  0  0  0  0  0  0  0  0  0  0  0
    3.5446    0.6832    3.0982 N   0  0  0  0  0  0  0  0  0  0  0  0
    0.1416    1.5214    2.2722 C   0  0  0  0  0  0  0  0  0  0  0  0
   -1.0695    2.1630    2.5813 C   0  0  0  0  0  0  0  0  0  0  0  0
   -1.6832    3.3305    3.6988 S   0  0  0  0  0  0  0  0  0  0  0  0
   -3.2698    3.1362    2.9899 C   0  0  0  0  0  0  0  0  0  0  0  0
   -4.5122    3.7039    3.2804 C   0  0  0  0  0  0  0  0  0  0  0  0
   -4.7140    4.7266    4.3134 C   0  0  0  0  0  0  0  0  0  0  0  0
   -5.5291    4.5183    5.4305 C   0  0  0  0  0  0  0  0  0  0  0  0
   -6.1746    3.1906    5.7049 C   0  0  0  0  0  0  0  0  0  0  0  0
   -5.1451    2.2052    6.2616 C   0  0  0  0  0  0  0  0  0  0  0  0
   -5.6478    5.5472    6.3560 C   0  0  0  0  0  0  0  0  0  0  0  0
   -4.9875    6.7510    6.1896 C   0  0  0  0  0  0  0  0  0  0  0  0
   -4.1696    6.9426    5.0894 C   0  0  0  0  0  0  0  0  0  0  0  0
   -4.0298    5.9302    4.1608 C   0  0  0  0  0  0  0  0  0  0  0  0
   -5.5131    3.2021    2.4459 C   0  0  0  0  0  0  0  0  0  0  0  0
   -4.8784    2.0464    1.2733 S   0  0  0  0  0  0  0  0  0  0  0  0
   -3.2987    2.2043    1.9406 C   0  0  0  0  0  0  0  0  0  0  0  0
   -2.0419    1.6500    1.7080 C   0  0  0  0  0  0  0  0  0  0  0  0
   -1.4799    0.7268    0.8605 N   0  0  0  0  0  0  0  0  0  0  0  0
   -0.1341    0.6678    1.1709 C   0  0  0  0  0  0  0  0  0  0  0  0
    0.9271   -0.0189    0.5461 C   0  0  0  0  0  0  0  0  0  0  0  0
    0.9883   -0.6836   -0.6638 N   0  0  0  0  0  0  0  0  0  0  0  0
    2.2411   -1.2373   -0.7527 C   0  0  0  0  0  0  0  0  0  0  0  0
    2.9754   -1.9955   -1.6677 C   0  0  0  0  0  0  0  0  0  0  0  0
    2.7300   -2.6570   -3.2388 S   0  0  0  0  0  0  0  0  0  0  0  0
    0.2427   -0.3549   -1.8630 C   0  0  0  0  0  0  0  0  0  0  0  0
    1.0308    0.5993   -2.7598 C   0  0  0  0  0  0  0  0  0  0  0  0
   -2.2847   -0.3580    0.3286 C   0  0  0  0  0  0  0  0  0  0  0  0
   -2.9735   -1.1402    1.4468 C   0  0  0  0  0  0  0  0  0  0  0  0
   -6.8419    3.6573    2.4183 C   0  0  0  0  0  0  0  0  0  0  0  0
   -7.9244    3.1486    1.7549 C   0  0  0  0  0  0  0  0  0  0  0  0
   -9.0677    4.0371    1.4387 C   0  0  0  0  0  0  0  0  0  0  0  0
   -9.2961    5.1315    1.8987 O   0  0  0  0  0  0  0  0  0  0  0  0
   -9.8334    3.3153    0.3928 C   0  0  0  0  0  0  0  0  0  0  0  0
  -10.9240    3.7498   -0.3337 C   0  0  0  0  0  0  0  0  0  0  0  0
  -11.4466    2.8900   -1.2871 C   0  0  0  0  0  0  0  0  0  0  0  0
  -12.5009    3.2734   -2.0176 F   0  0  0  0  0  0  0  0  0  0  0  0
  -10.8847    1.6305   -1.4970 C   0  0  0  0  0  0  0  0  0  0  0  0
  -11.4027    0.8279   -2.4339 F   0  0  0  0  0  0  0  0  0  0  0  0
   -9.7964    1.1876   -0.7597 C   0  0  0  0  0  0  0  0  0  0  0  0
   -9.2687    2.0432    0.1927 C   0  0  0  0  0  0  0  0  0  0  0  0
   -8.1703    1.8653    1.1427 C   0  0  0  0  0  0  0  0  0  0  0  0
   -7.6802    0.6542    1.5610 C   0  0  0  0  0  0  0  0  0  0  0  0
   -6.8847    0.5010    2.7150 C   0  0  0  0  0  0  0  0  0  0  0  0
   -6.2867    0.3306    3.6802 N   0  0  0  0  0  0  0  0  0  0  0  0
   -7.9838   -0.5765    0.9477 C   0  0  0  0  0  0  0  0  0  0  0  0
   -8.1649   -1.6032    0.4674 N   0  0  0  0  0  0  0  0  0  0  0  0
    4.2791   -3.6379   -5.3309 H   0  0  0  0  0  0  0  0  0  0  0  0
    7.2266   -7.2658   -1.8168 H   0  0  0  0  0  0  0  0  0  0  0  0
    9.6643   -8.9699   -3.7915 H   0  0  0  0  0  0  0  0  0  0  0  0
    9.9135   -8.4493   -6.1809 H   0  0  0  0  0  0  0  0  0  0  0  0
    8.5395   -6.7425   -7.2769 H   0  0  0  0  0  0  0  0  0  0  0  0
    5.9523   -4.3618   -0.0510 H   0  0  0  0  0  0  0  0  0  0  0  0
    8.2584   -5.0791    0.4394 H   0  0  0  0  0  0  0  0  0  0  0  0
   10.0894   -4.4367   -1.0970 H   0  0  0  0  0  0  0  0  0  0  0  0
    9.6192   -2.9723   -3.0108 H   0  0  0  0  0  0  0  0  0  0  0  0
    8.1712   -1.8642   -4.4215 H   0  0  0  0  0  0  0  0  0  0  0  0
    6.4290   -2.1196   -4.3660 H   0  0  0  0  0  0  0  0  0  0  0  0
    6.2376   -0.4393   -2.5270 H   0  0  0  0  0  0  0  0  0  0  0  0
    6.9691    0.2587   -3.9754 H   0  0  0  0  0  0  0  0  0  0  0  0
    7.9796   -0.1769   -2.5915 H   0  0  0  0  0  0  0  0  0  0  0  0
   -6.9773    3.3225    6.4322 H   0  0  0  0  0  0  0  0  0  0  0  0
   -6.6092    2.7673    4.7992 H   0  0  0  0  0  0  0  0  0  0  0  0
   -4.7189    2.5810    7.1891 H   0  0  0  0  0  0  0  0  0  0  0  0
   -5.6154    1.2443    6.4498 H   0  0  0  0  0  0  0  0  0  0  0  0
   -4.3390    2.0549    5.5477 H   0  0  0  0  0  0  0  0  0  0  0  0
   -6.2702    5.3963    7.2261 H   0  0  0  0  0  0  0  0  0  0  0  0
   -5.1040    7.5353    6.9222 H   0  0  0  0  0  0  0  0  0  0  0  0
   -3.6413    7.8741    4.9552 H   0  0  0  0  0  0  0  0  0  0  0  0
   -3.3976    6.0698    3.2958 H   0  0  0  0  0  0  0  0  0  0  0  0
   -0.6896    0.1303   -1.5823 H   0  0  0  0  0  0  0  0  0  0  0  0
    0.0257   -1.2814   -2.4034 H   0  0  0  0  0  0  0  0  0  0  0  0
    1.2828    1.5058   -2.2136 H   0  0  0  0  0  0  0  0  0  0  0  0
    0.4266    0.8673   -3.6218 H   0  0  0  0  0  0  0  0  0  0  0  0
    1.9481    0.1384   -3.1144 H   0  0  0  0  0  0  0  0  0  0  0  0
   -1.6395   -1.0422   -0.2198 H   0  0  0  0  0  0  0  0  0  0  0  0
   -3.0348    0.0625   -0.3489 H   0  0  0  0  0  0  0  0  0  0  0  0
   -3.5274   -1.9705    1.0180 H   0  0  0  0  0  0  0  0  0  0  0  0
   -3.6698   -0.5167    2.0006 H   0  0  0  0  0  0  0  0  0  0  0  0
   -2.2338   -1.5346    2.1401 H   0  0  0  0  0  0  0  0  0  0  0  0
   -7.0122    4.6049    2.9225 H   0  0  0  0  0  0  0  0  0  0  0  0
  -11.3592    4.7228   -0.1704 H   0  0  0  0  0  0  0  0  0  0  0  0
   -9.3930    0.2074   -0.9558 H   0  0  0  0  0  0  0  0  0  0  0  0
  1  2  2  0  0  0  0
  2  3  1  0  0  0  0
  3  4  2  0  0  0  0
  3  5  1  0  0  0  0
  5  6  2  0  0  0  0
  6  7  1  0  0  0  0
  6  8  1  0  0  0  0
  8  9  2  0  0  0  0
  9 10  1  0  0  0  0
 10 11  2  0  0  0  0
 11 12  1  0  0  0  0
 12 13  2  0  0  0  0
 13 14  1  0  0  0  0
 14 15  3  0  0  0  0
 13 16  1  0  0  0  0
 16 17  3  0  0  0  0
  1 18  1  0  0  0  0
 18 19  2  0  0  0  0
 19 20  1  0  0  0  0
 20 21  2  0  0  0  0
 21 22  1  0  0  0  0
 22 23  2  0  0  0  0
 23 24  1  0  0  0  0
 24 25  2  0  0  0  0
 25 26  1  0  0  0  0
 26 27  1  0  0  0  0
 19 28  1  0  0  0  0
 28 29  1  0  0  0  0
 29 30  1  0  0  0  0
 30 31  1  0  0  0  0
 31 32  1  0  0  0  0
 32 33  1  0  0  0  0
 33 34  2  0  0  0  0
 34 35  1  0  0  0  0
 35 36  1  0  0  0  0
 33 37  1  0  0  0  0
 37 38  1  0  0  0  0
 38 39  1  0  0  0  0
 39 40  1  0  0  0  0
 40 41  1  0  0  0  0
 41 42  1  0  0  0  0
 42 43  2  0  0  0  0
 43 44  1  0  0  0  0
 44 45  1  0  0  0  0
 43 46  1  0  0  0  0
 46 47  2  0  0  0  0
 47 48  1  0  0  0  0
 48 49  2  0  0  0  0
 41 50  2  0  0  0  0
 50 51  1  0  0  0  0
 51 52  1  0  0  0  0
 52 53  1  0  0  0  0
 53 54  1  0  0  0  0
 54 55  1  0  0  0  0
 55 56  1  0  0  0  0
 56 57  1  0  0  0  0
 57 58  1  0  0  0  0
 58 59  1  0  0  0  0
 59 60  1  0  0  0  0
 57 61  1  0  0  0  0
 61 62  1  0  0  0  0
 54 63  1  0  0  0  0
 63 64  1  0  0  0  0
 50 65  1  0  0  0  0
 65 66  2  0  0  0  0
 66 67  1  0  0  0  0
 67 68  2  0  0  0  0
 67 69  1  0  0  0  0
 69 70  2  0  0  0  0
 70 71  1  0  0  0  0
 71 72  1  0  0  0  0
 71 73  2  0  0  0  0
 73 74  1  0  0  0  0
 73 75  1  0  0  0  0
 75 76  2  0  0  0  0
 76 77  1  0  0  0  0
 77 78  2  0  0  0  0
 78 79  1  0  0  0  0
 79 80  3  0  0  0  0
 78 81  1  0  0  0  0
 81 82  3  0  0  0  0
 12  2  1  0  0  0  0
 60 18  1  0  0  0  0
 77 66  1  0  0  0  0
 11  5  1  0  0  0  0
 25 20  1  0  0  0  0
 59 28  2  0  0  0  0
 76 69  1  0  0  0  0
 58 30  2  0  0  0  0
 56 31  2  0  0  0  0
 36 32  2  0  0  0  0
 55 37  2  0  0  0  0
 53 38  2  0  0  0  0
 52 40  2  0  0  0  0
 49 42  1  0  0  0  0
  1 83  1  0  0  0  0
  7 84  1  0  0  0  0
  8 85  1  0  0  0  0
  9 86  1  0  0  0  0
 10 87  1  0  0  0  0
 21 88  1  0  0  0  0
 22 89  1  0  0  0  0
 23 90  1  0  0  0  0
 24 91  1  0  0  0  0
 26 92  1  0  0  0  0
 26 93  1  0  0  0  0
 27 94  1  0  0  0  0
 27 95  1  0  0  0  0
 27 96  1  0  0  0  0
 44 97  1  0  0  0  0
 44 98  1  0  0  0  0
 45 99  1  0  0  0  0
 45100  1  0  0  0  0
 45101  1  0  0  0  0
 46102  1  0  0  0  0
 47103  1  0  0  0  0
 48104  1  0  0  0  0
 49105  1  0  0  0  0
 61106  1  0  0  0  0
 61107  1  0  0  0  0
 62108  1  0  0  0  0
 62109  1  0  0  0  0
 62110  1  0  0  0  0
 63111  1  0  0  0  0
 63112  1  0  0  0  0
 64113  1  0  0  0  0
 64114  1  0  0  0  0
 64115  1  0  0  0  0
 65116  1  0  0  0  0
 70117  1  0  0  0  0
 75118  1  0  0  0  0
M  END
