
  xtb     02022215223D
 energy: -188.880053325159 gnorm: 0.000411831424 xtb: 6.4.1 (unknown)
108121  0     0  0            999 V2000
    2.9380   -4.7688    5.0125 C   0  0  0  0  0  0  0  0  0  0  0  0
    3.7920   -5.7736    5.3931 C   0  0  0  0  0  0  0  0  0  0  0  0
    4.3618   -6.8159    4.5222 C   0  0  0  0  0  0  0  0  0  0  0  0
    4.0782   -7.0355    3.3616 O   0  0  0  0  0  0  0  0  0  0  0  0
    5.3495   -7.5305    5.3482 C   0  0  0  0  0  0  0  0  0  0  0  0
    6.2100   -8.5663    4.9924 C   0  0  0  0  0  0  0  0  0  0  0  0
    6.2000   -9.0488    3.7406 O   0  0  0  0  0  0  0  0  0  0  0  0
    7.0680   -9.0618    5.9804 C   0  0  0  0  0  0  0  0  0  0  0  0
    7.0591   -8.5386    7.2588 C   0  0  0  0  0  0  0  0  0  0  0  0
    6.2014   -7.5050    7.6158 C   0  0  0  0  0  0  0  0  0  0  0  0
    5.3448   -7.0032    6.6517 C   0  0  0  0  0  0  0  0  0  0  0  0
    4.3524   -5.9290    6.7170 C   0  0  0  0  0  0  0  0  0  0  0  0
    4.0162   -5.2376    7.8545 C   0  0  0  0  0  0  0  0  0  0  0  0
    3.0377   -4.2273    7.9485 C   0  0  0  0  0  0  0  0  0  0  0  0
    2.2581   -3.4003    8.1224 N   0  0  0  0  0  0  0  0  0  0  0  0
    4.5933   -5.4558    9.1226 C   0  0  0  0  0  0  0  0  0  0  0  0
    5.0148   -5.5725   10.1845 N   0  0  0  0  0  0  0  0  0  0  0  0
    2.3351   -4.4792    3.7807 C   0  0  0  0  0  0  0  0  0  0  0  0
    2.4721   -5.4872    2.3356 S   0  0  0  0  0  0  0  0  0  0  0  0
    1.4844   -4.3823    1.4879 C   0  0  0  0  0  0  0  0  0  0  0  0
    0.9810   -4.1884    0.1860 C   0  0  0  0  0  0  0  0  0  0  0  0
    0.9502   -4.9905   -0.9785 C   0  0  0  0  0  0  0  0  0  0  0  0
    0.2291   -4.5253   -2.1376 C   0  0  0  0  0  0  0  0  0  0  0  0
    0.2253   -5.4150   -3.1175 N   0  0  0  0  0  0  0  0  0  0  0  0
    1.0570   -6.7171   -2.6355 S   0  0  0  0  0  0  0  0  0  0  0  0
    1.4552   -6.2002   -1.1576 N   0  0  0  0  0  0  0  0  0  0  0  0
   -0.2979   -3.2127   -2.1421 C   0  0  0  0  0  0  0  0  0  0  0  0
   -0.8780   -2.4040   -3.1337 C   0  0  0  0  0  0  0  0  0  0  0  0
   -1.4308   -2.5283   -4.7673 S   0  0  0  0  0  0  0  0  0  0  0  0
   -1.8207   -0.8234   -4.7435 C   0  0  0  0  0  0  0  0  0  0  0  0
   -2.3318    0.0430   -5.7139 C   0  0  0  0  0  0  0  0  0  0  0  0
   -2.7790   -0.3995   -7.0659 C   0  0  0  0  0  0  0  0  0  0  0  0
   -4.2994   -0.5758   -7.0927 C   0  0  0  0  0  0  0  0  0  0  0  0
   -2.4525    1.3400   -5.2256 C   0  0  0  0  0  0  0  0  0  0  0  0
   -1.8961    1.4731   -3.5562 S   0  0  0  0  0  0  0  0  0  0  0  0
   -1.5287   -0.2090   -3.5185 C   0  0  0  0  0  0  0  0  0  0  0  0
   -1.0066   -1.1142   -2.5937 C   0  0  0  0  0  0  0  0  0  0  0  0
   -0.5727   -1.1035   -1.2936 N   0  0  0  0  0  0  0  0  0  0  0  0
   -0.1594   -2.3858   -0.9954 C   0  0  0  0  0  0  0  0  0  0  0  0
    0.3246   -2.9370    0.2053 C   0  0  0  0  0  0  0  0  0  0  0  0
    0.3272   -2.4038    1.4904 N   0  0  0  0  0  0  0  0  0  0  0  0
    1.0688   -3.2874    2.2709 C   0  0  0  0  0  0  0  0  0  0  0  0
    1.5532   -3.3225    3.5746 C   0  0  0  0  0  0  0  0  0  0  0  0
    1.3313   -2.2630    4.6118 C   0  0  0  0  0  0  0  0  0  0  0  0
    0.1739   -2.5987    5.5561 C   0  0  0  0  0  0  0  0  0  0  0  0
   -0.8847   -1.7982    2.0227 C   0  0  0  0  0  0  0  0  0  0  0  0
   -1.9437   -2.8607    2.3176 C   0  0  0  0  0  0  0  0  0  0  0  0
   -0.1160    0.1156   -0.6605 C   0  0  0  0  0  0  0  0  0  0  0  0
    1.0481    0.7355   -1.4325 C   0  0  0  0  0  0  0  0  0  0  0  0
   -2.8309    2.4764   -5.9704 C   0  0  0  0  0  0  0  0  0  0  0  0
   -3.1391    3.7301   -5.5378 C   0  0  0  0  0  0  0  0  0  0  0  0
   -2.9849    4.8889   -6.4549 C   0  0  0  0  0  0  0  0  0  0  0  0
   -2.8757    4.8521   -7.6602 O   0  0  0  0  0  0  0  0  0  0  0  0
   -2.9222    6.0716   -5.5722 C   0  0  0  0  0  0  0  0  0  0  0  0
   -2.6388    7.3855   -5.9399 C   0  0  0  0  0  0  0  0  0  0  0  0
   -2.6078    8.2676   -4.8863 C   0  0  0  0  0  0  0  0  0  0  0  0
   -2.8409    7.8782   -3.5601 C   0  0  0  0  0  0  0  0  0  0  0  0
   -3.1374    6.5899   -3.1829 C   0  0  0  0  0  0  0  0  0  0  0  0
   -3.1727    5.6778   -4.2404 C   0  0  0  0  0  0  0  0  0  0  0  0
   -3.4780    4.2502   -4.2330 C   0  0  0  0  0  0  0  0  0  0  0  0
   -4.2080    3.5881   -3.2797 C   0  0  0  0  0  0  0  0  0  0  0  0
   -4.5783    4.1390   -2.0389 C   0  0  0  0  0  0  0  0  0  0  0  0
   -4.8796    4.5305   -1.0022 N   0  0  0  0  0  0  0  0  0  0  0  0
   -4.7397    2.3005   -3.5014 C   0  0  0  0  0  0  0  0  0  0  0  0
   -5.2280    1.2775   -3.6836 N   0  0  0  0  0  0  0  0  0  0  0  0
   -2.6241    9.2730   -3.0281 C   0  0  0  0  0  0  0  0  0  0  0  0
   -1.2639    9.5505   -2.3530 C   0  0  0  0  0  0  0  0  0  0  0  0
   -1.1508   11.0578   -2.3737 C   0  0  0  0  0  0  0  0  0  0  0  0
   -0.9366   11.4291   -3.6294 C   0  0  0  0  0  0  0  0  0  0  0  0
   -0.9007   10.1790   -4.4784 C   0  0  0  0  0  0  0  0  0  0  0  0
   -0.2802    9.1972   -3.4761 C   0  0  0  0  0  0  0  0  0  0  0  0
   -2.3705    9.7085   -4.5070 C   0  0  0  0  0  0  0  0  0  0  0  0
    2.6951   -4.0555    5.7885 H   0  0  0  0  0  0  0  0  0  0  0  0
    6.8451   -9.7605    3.6405 H   0  0  0  0  0  0  0  0  0  0  0  0
    7.7479   -9.8659    5.7314 H   0  0  0  0  0  0  0  0  0  0  0  0
    7.7355   -8.9407    7.9976 H   0  0  0  0  0  0  0  0  0  0  0  0
    6.2208   -7.1146    8.6187 H   0  0  0  0  0  0  0  0  0  0  0  0
   -2.4846    0.3336   -7.8197 H   0  0  0  0  0  0  0  0  0  0  0  0
   -2.2968   -1.3508   -7.2990 H   0  0  0  0  0  0  0  0  0  0  0  0
   -4.6203   -0.8970   -8.0800 H   0  0  0  0  0  0  0  0  0  0  0  0
   -4.6046   -1.3239   -6.3655 H   0  0  0  0  0  0  0  0  0  0  0  0
   -4.7956    0.3602   -6.8476 H   0  0  0  0  0  0  0  0  0  0  0  0
    2.2382   -2.1267    5.2031 H   0  0  0  0  0  0  0  0  0  0  0  0
    1.1335   -1.3144    4.1093 H   0  0  0  0  0  0  0  0  0  0  0  0
    0.0666   -1.8131    6.2989 H   0  0  0  0  0  0  0  0  0  0  0  0
    0.3649   -3.5318    6.0791 H   0  0  0  0  0  0  0  0  0  0  0  0
   -0.7619   -2.6937    5.0117 H   0  0  0  0  0  0  0  0  0  0  0  0
   -1.2919   -1.0987    1.2938 H   0  0  0  0  0  0  0  0  0  0  0  0
   -0.6326   -1.2519    2.9319 H   0  0  0  0  0  0  0  0  0  0  0  0
   -1.5578   -3.6104    3.0045 H   0  0  0  0  0  0  0  0  0  0  0  0
   -2.2393   -3.3605    1.3973 H   0  0  0  0  0  0  0  0  0  0  0  0
   -2.8213   -2.3961    2.7588 H   0  0  0  0  0  0  0  0  0  0  0  0
   -0.9519    0.8211   -0.6158 H   0  0  0  0  0  0  0  0  0  0  0  0
    0.2231   -0.1152    0.3481 H   0  0  0  0  0  0  0  0  0  0  0  0
    0.7429    1.0240   -2.4345 H   0  0  0  0  0  0  0  0  0  0  0  0
    1.8688    0.0252   -1.5069 H   0  0  0  0  0  0  0  0  0  0  0  0
    1.3986    1.6216   -0.9111 H   0  0  0  0  0  0  0  0  0  0  0  0
   -2.7642    2.3705   -7.0492 H   0  0  0  0  0  0  0  0  0  0  0  0
   -2.4666    7.6480   -6.9719 H   0  0  0  0  0  0  0  0  0  0  0  0
   -3.3166    6.2955   -2.1615 H   0  0  0  0  0  0  0  0  0  0  0  0
   -3.4627    9.7120   -2.4911 H   0  0  0  0  0  0  0  0  0  0  0  0
   -1.1245    9.0625   -1.3921 H   0  0  0  0  0  0  0  0  0  0  0  0
   -1.2896   11.6817   -1.5103 H   0  0  0  0  0  0  0  0  0  0  0  0
   -0.8606   12.4251   -4.0246 H   0  0  0  0  0  0  0  0  0  0  0  0
   -0.4301   10.2635   -5.4543 H   0  0  0  0  0  0  0  0  0  0  0  0
    0.7454    9.4612   -3.2229 H   0  0  0  0  0  0  0  0  0  0  0  0
   -0.3209    8.1561   -3.7913 H   0  0  0  0  0  0  0  0  0  0  0  0
   -3.0426   10.4364   -4.9574 H   0  0  0  0  0  0  0  0  0  0  0  0
  1  2  2  0  0  0  0
  2  3  1  0  0  0  0
  3  4  2  0  0  0  0
  3  5  1  0  0  0  0
  5  6  2  0  0  0  0
  6  7  1  0  0  0  0
  6  8  1  0  0  0  0
  8  9  2  0  0  0  0
  9 10  1  0  0  0  0
 10 11  2  0  0  0  0
 11 12  1  0  0  0  0
 12 13  2  0  0  0  0
 13 14  1  0  0  0  0
 14 15  3  0  0  0  0
 13 16  1  0  0  0  0
 16 17  3  0  0  0  0
  1 18  1  0  0  0  0
 18 19  1  0  0  0  0
 19 20  1  0  0  0  0
 20 21  1  0  0  0  0
 21 22  1  0  0  0  0
 22 23  1  0  0  0  0
 23 24  2  0  0  0  0
 24 25  1  0  0  0  0
 25 26  1  0  0  0  0
 23 27  1  0  0  0  0
 27 28  1  0  0  0  0
 28 29  1  0  0  0  0
 29 30  1  0  0  0  0
 30 31  1  0  0  0  0
 31 32  1  0  0  0  0
 32 33  1  0  0  0  0
 31 34  2  0  0  0  0
 34 35  1  0  0  0  0
 35 36  1  0  0  0  0
 36 37  1  0  0  0  0
 37 38  1  0  0  0  0
 38 39  1  0  0  0  0
 39 40  1  0  0  0  0
 40 41  1  0  0  0  0
 41 42  1  0  0  0  0
 42 43  1  0  0  0  0
 43 44  1  0  0  0  0
 44 45  1  0  0  0  0
 41 46  1  0  0  0  0
 46 47  1  0  0  0  0
 38 48  1  0  0  0  0
 48 49  1  0  0  0  0
 34 50  1  0  0  0  0
 50 51  2  0  0  0  0
 51 52  1  0  0  0  0
 52 53  2  0  0  0  0
 52 54  1  0  0  0  0
 54 55  2  0  0  0  0
 55 56  1  0  0  0  0
 56 57  2  0  0  0  0
 57 58  1  0  0  0  0
 58 59  2  0  0  0  0
 59 60  1  0  0  0  0
 60 61  2  0  0  0  0
 61 62  1  0  0  0  0
 62 63  3  0  0  0  0
 61 64  1  0  0  0  0
 64 65  3  0  0  0  0
 57 66  1  0  0  0  0
 66 67  1  0  0  0  0
 67 68  1  0  0  0  0
 68 69  2  0  0  0  0
 69 70  1  0  0  0  0
 70 71  1  0  0  0  0
 70 72  1  0  0  0  0
 12  2  1  0  0  0  0
 43 18  2  0  0  0  0
 60 51  1  0  0  0  0
 72 66  1  0  0  0  0
 11  5  1  0  0  0  0
 42 20  2  0  0  0  0
 59 54  1  0  0  0  0
 71 67  1  0  0  0  0
 40 21  2  0  0  0  0
 72 56  1  0  0  0  0
 26 22  2  0  0  0  0
 39 27  2  0  0  0  0
 37 28  2  0  0  0  0
 36 30  2  0  0  0  0
  1 73  1  0  0  0  0
  7 74  1  0  0  0  0
  8 75  1  0  0  0  0
  9 76  1  0  0  0  0
 10 77  1  0  0  0  0
 32 78  1  0  0  0  0
 32 79  1  0  0  0  0
 33 80  1  0  0  0  0
 33 81  1  0  0  0  0
 33 82  1  0  0  0  0
 44 83  1  0  0  0  0
 44 84  1  0  0  0  0
 45 85  1  0  0  0  0
 45 86  1  0  0  0  0
 45 87  1  0  0  0  0
 46 88  1  0  0  0  0
 46 89  1  0  0  0  0
 47 90  1  0  0  0  0
 47 91  1  0  0  0  0
 47 92  1  0  0  0  0
 48 93  1  0  0  0  0
 48 94  1  0  0  0  0
 49 95  1  0  0  0  0
 49 96  1  0  0  0  0
 49 97  1  0  0  0  0
 50 98  1  0  0  0  0
 55 99  1  0  0  0  0
 58100  1  0  0  0  0
 66101  1  0  0  0  0
 67102  1  0  0  0  0
 68103  1  0  0  0  0
 69104  1  0  0  0  0
 70105  1  0  0  0  0
 71106  1  0  0  0  0
 71107  1  0  0  0  0
 72108  1  0  0  0  0
M  END
