118

C          4.81120       -3.93360       -4.43360
C          5.83340       -4.83780       -4.55420
C          6.31140       -5.73540       -3.48710
O          5.87720       -5.87540       -2.35160
C          7.34240       -6.56370       -4.10040
C          8.10330       -7.54150       -3.47030
O          7.94830       -7.82200       -2.17130
C          9.05020       -8.21380       -4.25410
C          9.18320       -7.91130       -5.59560
C          8.40750       -6.93840       -6.22590
C          7.47900       -6.25440       -5.46370
C          6.54190       -5.17520       -5.77280
C          6.45240       -4.51570       -6.97140
C          7.19210       -4.86560       -8.11990
N          7.75420       -5.10680       -9.09130
C          5.64660       -3.38310       -7.20680
N          5.04180       -2.43770       -7.45150
C          4.36980       -3.30870       -3.24950
C          5.07310       -2.98120       -2.09040
C          6.48120       -3.28870       -1.82150
C          6.76310       -4.05850       -0.69510
C          8.05540       -4.46890       -0.42730
C          9.07940       -4.10320       -1.28240
C          8.80960       -3.28920       -2.36870
C          7.51960       -2.86200       -2.65550
C          7.30110       -1.86690       -3.76200
C          7.10960       -0.46580       -3.17690
C          4.27030       -2.26030       -1.19840
S          4.59790       -1.56150        0.37050
C          2.99040       -0.92330        0.39130
C          2.17910       -0.11900        1.20890
C          2.43110        0.62450        2.38540
C          1.41810        1.51910        2.88120
N          1.82860        2.20870        3.93340
S          3.34590        1.76850        4.28050
N          3.54460        0.68320        3.09820
C          0.14160        1.52140        2.27220
C         -1.06950        2.16300        2.58130
S         -1.68320        3.33050        3.69880
C         -3.26980        3.13620        2.98990
C         -4.51220        3.70390        3.28040
C         -4.71400        4.72660        4.31340
C         -5.52910        4.51830        5.43050
C         -6.17460        3.19060        5.70490
C         -5.14510        2.20520        6.26160
C         -5.64780        5.54720        6.35600
C         -4.98750        6.75100        6.18960
C         -4.16960        6.94260        5.08940
C         -4.02980        5.93020        4.16080
C         -5.51310        3.20210        2.44590
S         -4.87840        2.04640        1.27330
C         -3.29870        2.20430        1.94060
C         -2.04190        1.65000        1.70800
N         -1.47990        0.72680        0.86050
C         -0.13410        0.66780        1.17090
C          0.92710       -0.01890        0.54610
N          0.98830       -0.68360       -0.66380
C          2.24110       -1.23730       -0.75270
C          2.97540       -1.99550       -1.66770
S          2.73000       -2.65700       -3.23880
C          0.24270       -0.35490       -1.86300
C          1.03080        0.59930       -2.75980
C         -2.28470       -0.35800        0.32860
C         -2.97350       -1.14020        1.44680
C         -6.84190        3.65730        2.41830
C         -7.92440        3.14860        1.75490
C         -9.06770        4.03710        1.43870
O         -9.29610        5.13150        1.89870
C         -9.83340        3.31530        0.39280
C        -10.92400        3.74980       -0.33370
C        -11.44660        2.89000       -1.28710
F        -12.50090        3.27340       -2.01760
C        -10.88470        1.63050       -1.49700
F        -11.40270        0.82790       -2.43390
C         -9.79640        1.18760       -0.75970
C         -9.26870        2.04320        0.19270
C         -8.17030        1.86530        1.14270
C         -7.68020        0.65420        1.56100
C         -6.88470        0.50100        2.71500
N         -6.28670        0.33060        3.68020
C         -7.98380       -0.57650        0.94770
N         -8.16490       -1.60320        0.46740
H          4.27910       -3.63790       -5.33090
H          7.22660       -7.26580       -1.81680
H          9.66430       -8.96990       -3.79150
H          9.91350       -8.44930       -6.18090
H          8.53950       -6.74250       -7.27690
H          5.95230       -4.36180       -0.05100
H          8.25840       -5.07910        0.43940
H         10.08940       -4.43670       -1.09700
H          9.61920       -2.97230       -3.01080
H          8.17120       -1.86420       -4.42150
H          6.42900       -2.11960       -4.36600
H          6.23760       -0.43930       -2.52700
H          6.96910        0.25870       -3.97540
H          7.97960       -0.17690       -2.59150
H         -6.97730        3.32250        6.43220
H         -6.60920        2.76730        4.79920
H         -4.71890        2.58100        7.18910
H         -5.61540        1.24430        6.44980
H         -4.33900        2.05490        5.54770
H         -6.27020        5.39630        7.22610
H         -5.10400        7.53530        6.92220
H         -3.64130        7.87410        4.95520
H         -3.39760        6.06980        3.29580
H         -0.68960        0.13030       -1.58230
H          0.02570       -1.28140       -2.40340
H          1.28280        1.50580       -2.21360
H          0.42660        0.86730       -3.62180
H          1.94810        0.13840       -3.11440
H         -1.63950       -1.04220       -0.21980
H         -3.03480        0.06250       -0.34890
H         -3.52740       -1.97050        1.01800
H         -3.66980       -0.51670        2.00060
H         -2.23380       -1.53460        2.14010
H         -7.01220        4.60490        2.92250
H        -11.35920        4.72280       -0.17040
H         -9.39300        0.20740       -0.95580
