
  xtb     01212212433D
 energy: -161.789074934997 gnorm: 0.000166691235 xtb: 6.4.1 (unknown)
 93101  0     0  0            999 V2000
   -0.6148    1.8477    5.1126 C   0  0  0  0  0  0  0  0  0  0  0  0
    0.1582    1.7151    6.2400 C   0  0  0  0  0  0  0  0  0  0  0  0
    1.2718    0.7726    6.4368 C   0  0  0  0  0  0  0  0  0  0  0  0
    1.7135   -0.0190    5.6277 O   0  0  0  0  0  0  0  0  0  0  0  0
    1.7377    0.9863    7.8176 C   0  0  0  0  0  0  0  0  0  0  0  0
    2.7619    0.3453    8.5101 C   0  0  0  0  0  0  0  0  0  0  0  0
    3.4778   -0.6196    7.9119 O   0  0  0  0  0  0  0  0  0  0  0  0
    3.0013    0.7475    9.8286 C   0  0  0  0  0  0  0  0  0  0  0  0
    2.2462    1.7431   10.4171 C   0  0  0  0  0  0  0  0  0  0  0  0
    1.2238    2.3842    9.7276 C   0  0  0  0  0  0  0  0  0  0  0  0
    0.9735    2.0003    8.4219 C   0  0  0  0  0  0  0  0  0  0  0  0
   -0.0145    2.4805    7.4536 C   0  0  0  0  0  0  0  0  0  0  0  0
   -0.9129    3.4937    7.6857 C   0  0  0  0  0  0  0  0  0  0  0  0
   -1.8589    3.9896    6.7662 C   0  0  0  0  0  0  0  0  0  0  0  0
   -2.6572    4.4585    6.0836 N   0  0  0  0  0  0  0  0  0  0  0  0
   -1.0181    4.2074    8.8973 C   0  0  0  0  0  0  0  0  0  0  0  0
   -1.1694    4.8343    9.8477 N   0  0  0  0  0  0  0  0  0  0  0  0
   -0.5624    1.2111    3.8666 C   0  0  0  0  0  0  0  0  0  0  0  0
   -1.4808    1.4960    2.8317 C   0  0  0  0  0  0  0  0  0  0  0  0
   -2.5818    2.5059    2.9639 C   0  0  0  0  0  0  0  0  0  0  0  0
   -3.8049    1.9350    3.6888 C   0  0  0  0  0  0  0  0  0  0  0  0
   -1.1896    0.7373    1.6995 C   0  0  0  0  0  0  0  0  0  0  0  0
   -0.0477   -0.0708    1.8531 C   0  0  0  0  0  0  0  0  0  0  0  0
    0.6608    0.0253    3.4047 S   0  0  0  0  0  0  0  0  0  0  0  0
    0.1758   -0.7197    0.6313 C   0  0  0  0  0  0  0  0  0  0  0  0
    1.1091   -1.6990    0.2384 C   0  0  0  0  0  0  0  0  0  0  0  0
    2.0809   -2.3391    0.8906 N   0  0  0  0  0  0  0  0  0  0  0  0
    2.5513   -3.1859    0.0107 N   0  0  0  0  0  0  0  0  0  0  0  0
    3.6467   -4.0590    0.3190 C   0  0  0  0  0  0  0  0  0  0  0  0
    4.9668   -3.2955    0.2812 C   0  0  0  0  0  0  0  0  0  0  0  0
    1.9930   -3.1741   -1.1735 N   0  0  0  0  0  0  0  0  0  0  0  0
    1.0538   -2.2307   -1.0777 C   0  0  0  0  0  0  0  0  0  0  0  0
    0.1424   -1.6885   -2.0042 C   0  0  0  0  0  0  0  0  0  0  0  0
   -0.0566   -1.9103   -3.3700 C   0  0  0  0  0  0  0  0  0  0  0  0
    0.5195   -2.9486   -4.5983 S   0  0  0  0  0  0  0  0  0  0  0  0
   -0.5601   -2.1705   -5.7560 C   0  0  0  0  0  0  0  0  0  0  0  0
   -1.3291   -1.1524   -5.1958 C   0  0  0  0  0  0  0  0  0  0  0  0
   -2.3750   -0.3950   -5.9575 C   0  0  0  0  0  0  0  0  0  0  0  0
   -1.8004    0.8447   -6.6517 C   0  0  0  0  0  0  0  0  0  0  0  0
   -1.0203   -1.0007   -3.8284 C   0  0  0  0  0  0  0  0  0  0  0  0
   -1.4380   -0.2245   -2.7659 N   0  0  0  0  0  0  0  0  0  0  0  0
   -2.0347    1.0822   -2.9481 C   0  0  0  0  0  0  0  0  0  0  0  0
   -1.1214    2.2081   -2.4683 C   0  0  0  0  0  0  0  0  0  0  0  0
   -0.7544   -0.6507   -1.6297 C   0  0  0  0  0  0  0  0  0  0  0  0
   -0.8197   -0.2563   -0.2718 C   0  0  0  0  0  0  0  0  0  0  0  0
   -1.6811    0.6012    0.4117 N   0  0  0  0  0  0  0  0  0  0  0  0
   -3.0969    0.7653    0.1376 C   0  0  0  0  0  0  0  0  0  0  0  0
   -3.7622   -0.5373   -0.3000 C   0  0  0  0  0  0  0  0  0  0  0  0
   -0.5383   -2.6971   -7.0773 C   0  0  0  0  0  0  0  0  0  0  0  0
   -1.0348   -2.2020   -8.2764 C   0  0  0  0  0  0  0  0  0  0  0  0
   -0.7856   -3.0256   -9.3629 C   0  0  0  0  0  0  0  0  0  0  0  0
   -0.0874   -4.1804   -9.0367 C   0  0  0  0  0  0  0  0  0  0  0  0
    0.3087   -5.1907   -9.9505 C   0  0  0  0  0  0  0  0  0  0  0  0
    1.0069   -6.3460   -9.6646 C   0  0  0  0  0  0  0  0  0  0  0  0
    1.3340   -7.2623  -10.6856 C   0  0  0  0  0  0  0  0  0  0  0  0
    1.6085   -8.0175  -11.5040 N   0  0  0  0  0  0  0  0  0  0  0  0
    1.4462   -6.7144   -8.3805 C   0  0  0  0  0  0  0  0  0  0  0  0
    1.8250   -7.0623   -7.3538 N   0  0  0  0  0  0  0  0  0  0  0  0
   -0.0573   -4.9801  -11.3066 C   0  0  0  0  0  0  0  0  0  0  0  0
   -0.3549   -4.8027  -12.3983 N   0  0  0  0  0  0  0  0  0  0  0  0
    0.2541   -4.2265   -7.3286 S   0  0  0  0  0  0  0  0  0  0  0  0
   -1.4125    2.5725    5.1925 H   0  0  0  0  0  0  0  0  0  0  0  0
    4.1502   -0.9695    8.5105 H   0  0  0  0  0  0  0  0  0  0  0  0
    3.7917    0.2666   10.3899 H   0  0  0  0  0  0  0  0  0  0  0  0
    2.4550    2.0304   11.4364 H   0  0  0  0  0  0  0  0  0  0  0  0
    0.6521    3.1560   10.2136 H   0  0  0  0  0  0  0  0  0  0  0  0
   -2.8686    2.8593    1.9720 H   0  0  0  0  0  0  0  0  0  0  0  0
   -2.2263    3.3765    3.5178 H   0  0  0  0  0  0  0  0  0  0  0  0
   -4.5803    2.6932    3.7577 H   0  0  0  0  0  0  0  0  0  0  0  0
   -4.2078    1.0684    3.1673 H   0  0  0  0  0  0  0  0  0  0  0  0
   -3.5401    1.6257    4.6964 H   0  0  0  0  0  0  0  0  0  0  0  0
    3.6364   -4.8583   -0.4238 H   0  0  0  0  0  0  0  0  0  0  0  0
    3.4786   -4.4690    1.3174 H   0  0  0  0  0  0  0  0  0  0  0  0
    5.1388   -2.8874   -0.7119 H   0  0  0  0  0  0  0  0  0  0  0  0
    5.7863   -3.9626    0.5323 H   0  0  0  0  0  0  0  0  0  0  0  0
    4.9424   -2.4800    0.9996 H   0  0  0  0  0  0  0  0  0  0  0  0
   -2.8143   -1.0592   -6.7031 H   0  0  0  0  0  0  0  0  0  0  0  0
   -3.1801   -0.1026   -5.2802 H   0  0  0  0  0  0  0  0  0  0  0  0
   -2.5709    1.3346   -7.2427 H   0  0  0  0  0  0  0  0  0  0  0  0
   -1.4153    1.5611   -5.9292 H   0  0  0  0  0  0  0  0  0  0  0  0
   -0.9773    0.5707   -7.3067 H   0  0  0  0  0  0  0  0  0  0  0  0
   -2.2053    1.2108   -4.0137 H   0  0  0  0  0  0  0  0  0  0  0  0
   -3.0082    1.1301   -2.4560 H   0  0  0  0  0  0  0  0  0  0  0  0
   -0.1655    2.1567   -2.9854 H   0  0  0  0  0  0  0  0  0  0  0  0
   -0.9341    2.1472   -1.4005 H   0  0  0  0  0  0  0  0  0  0  0  0
   -1.5824    3.1683   -2.6863 H   0  0  0  0  0  0  0  0  0  0  0  0
   -3.2596    1.5597   -0.5960 H   0  0  0  0  0  0  0  0  0  0  0  0
   -3.5637    1.0837    1.0677 H   0  0  0  0  0  0  0  0  0  0  0  0
   -4.8305   -0.3755   -0.4218 H   0  0  0  0  0  0  0  0  0  0  0  0
   -3.6121   -1.3019    0.4592 H   0  0  0  0  0  0  0  0  0  0  0  0
   -3.3583   -0.9078   -1.2375 H   0  0  0  0  0  0  0  0  0  0  0  0
   -1.5371   -1.2606   -8.3787 H   0  0  0  0  0  0  0  0  0  0  0  0
   -1.0911   -2.7988  -10.3696 H   0  0  0  0  0  0  0  0  0  0  0  0
  1  2  2  0  0  0  0
  2  3  1  0  0  0  0
  3  4  2  0  0  0  0
  3  5  1  0  0  0  0
  5  6  2  0  0  0  0
  6  7  1  0  0  0  0
  6  8  1  0  0  0  0
  8  9  2  0  0  0  0
  9 10  1  0  0  0  0
 10 11  2  0  0  0  0
 11 12  1  0  0  0  0
 12 13  2  0  0  0  0
 13 14  1  0  0  0  0
 14 15  3  0  0  0  0
 13 16  1  0  0  0  0
 16 17  3  0  0  0  0
  1 18  1  0  0  0  0
 18 19  2  0  0  0  0
 19 20  1  0  0  0  0
 20 21  1  0  0  0  0
 19 22  1  0  0  0  0
 22 23  2  0  0  0  0
 23 24  1  0  0  0  0
 23 25  1  0  0  0  0
 25 26  1  0  0  0  0
 26 27  2  0  0  0  0
 27 28  1  0  0  0  0
 28 29  1  0  0  0  0
 29 30  1  0  0  0  0
 28 31  1  0  0  0  0
 31 32  2  0  0  0  0
 32 33  1  0  0  0  0
 33 34  1  0  0  0  0
 34 35  1  0  0  0  0
 35 36  1  0  0  0  0
 36 37  2  0  0  0  0
 37 38  1  0  0  0  0
 38 39  1  0  0  0  0
 37 40  1  0  0  0  0
 40 41  1  0  0  0  0
 41 42  1  0  0  0  0
 42 43  1  0  0  0  0
 41 44  1  0  0  0  0
 44 45  1  0  0  0  0
 45 46  1  0  0  0  0
 46 47  1  0  0  0  0
 47 48  1  0  0  0  0
 36 49  1  0  0  0  0
 49 50  2  0  0  0  0
 50 51  1  0  0  0  0
 51 52  2  0  0  0  0
 52 53  1  0  0  0  0
 53 54  2  0  0  0  0
 54 55  1  0  0  0  0
 55 56  3  0  0  0  0
 54 57  1  0  0  0  0
 57 58  3  0  0  0  0
 53 59  1  0  0  0  0
 59 60  3  0  0  0  0
 52 61  1  0  0  0  0
 12  2  1  0  0  0  0
 24 18  1  0  0  0  0
 45 25  2  0  0  0  0
 61 49  1  0  0  0  0
 11  5  1  0  0  0  0
 46 22  1  0  0  0  0
 32 26  1  0  0  0  0
 44 33  2  0  0  0  0
 40 34  2  0  0  0  0
  1 62  1  0  0  0  0
  7 63  1  0  0  0  0
  8 64  1  0  0  0  0
  9 65  1  0  0  0  0
 10 66  1  0  0  0  0
 20 67  1  0  0  0  0
 20 68  1  0  0  0  0
 21 69  1  0  0  0  0
 21 70  1  0  0  0  0
 21 71  1  0  0  0  0
 29 72  1  0  0  0  0
 29 73  1  0  0  0  0
 30 74  1  0  0  0  0
 30 75  1  0  0  0  0
 30 76  1  0  0  0  0
 38 77  1  0  0  0  0
 38 78  1  0  0  0  0
 39 79  1  0  0  0  0
 39 80  1  0  0  0  0
 39 81  1  0  0  0  0
 42 82  1  0  0  0  0
 42 83  1  0  0  0  0
 43 84  1  0  0  0  0
 43 85  1  0  0  0  0
 43 86  1  0  0  0  0
 47 87  1  0  0  0  0
 47 88  1  0  0  0  0
 48 89  1  0  0  0  0
 48 90  1  0  0  0  0
 48 91  1  0  0  0  0
 50 92  1  0  0  0  0
 51 93  1  0  0  0  0
M  END
