99

C         -2.45560       -2.01480       -8.15340
C         -1.39990       -2.79080       -8.57180
C         -0.29340       -3.23170       -7.72620
O         -0.12550       -2.95870       -6.54400
C          0.57090       -4.06090       -8.57230
C          1.74720       -4.73260       -8.24770
O          2.23540       -4.66850       -6.99930
C          2.37680       -5.45970       -9.26380
C          1.84660       -5.50650      -10.53810
C          0.67140       -4.83780      -10.86390
C          0.03440       -4.11350       -9.87310
C         -1.19650       -3.31860       -9.90300
C         -1.97960       -3.12030      -11.01110
C         -3.15900       -2.34770      -11.05900
N         -4.12550       -1.73990      -11.18840
C         -1.71010       -3.66160      -12.28570
N         -1.55590       -4.06510      -13.34960
C         -2.73400       -1.44890       -6.90330
C         -3.88840       -0.68510       -6.70250
C         -4.03880       -0.17120       -5.42960
S         -5.31590        0.81630       -4.73880
C         -4.46650        0.80890       -3.23300
C         -4.62270        1.26750       -1.91930
C         -5.70560        1.91970       -1.28850
C         -5.64870        2.14490        0.12610
N         -6.75240        2.70600        0.59370
S         -7.77370        2.93660       -0.64080
N         -6.84690        2.32710       -1.82020
C         -4.46410        1.81760        0.82310
C         -4.09150        2.04530        2.15440
C         -2.75460        1.65090        2.27500
N         -2.29910        1.15310        1.08140
C         -0.86690        1.10160        0.89250
C         -0.31240        2.48010        0.53970
C         -3.33500        1.24050        0.16650
C         -3.46470        0.85260       -1.19260
N         -2.66520        0.11660       -2.04430
C         -3.26200        0.09590       -3.27640
C         -3.00400       -0.48190       -4.52120
Se        -1.69570       -1.55120       -5.31760
C         -1.56420       -0.78080       -1.78660
C         -0.23380       -0.21490       -2.28300
C         -2.22000        1.88470        3.54360
C         -3.19600        2.44780        4.39210
S         -4.75260        2.69090        3.61600
C         -2.77390        2.73340        5.67640
C         -1.43640        2.42780        5.94520
Se        -0.58390        1.68490        4.41830
C         -0.88070        2.67890        7.20660
C          0.39160        2.46740        7.68150
C          1.49180        1.89220        6.91940
O          1.46710        1.51920        5.75030
C          2.65370        1.84310        7.81530
C          3.92660        1.36050        7.52030
C          4.81460        1.45420        8.56470
C          4.46150        1.98720        9.81120
C          3.20650        2.46030       10.11670
C          2.28710        2.37700        9.06840
C          0.87900        2.77380        9.01270
C          0.17410        3.33490       10.04590
C         -1.18430        3.71450       10.00870
N         -2.28110        4.05050       10.07210
C          0.71190        3.62300       11.31810
N          1.07660        3.88740       12.37420
C          5.84490        1.78920       10.37710
C          6.76260        3.03230       10.48680
C          6.30740        3.99850        9.42140
C          6.64300        3.49010        8.24330
C          7.33040        2.17000        8.49080
C          8.03270        2.47630        9.82320
C          6.23790        1.19180        8.98910
H         -3.21250       -1.78910       -8.89640
H          3.05010       -5.18190       -6.92300
H          3.29250       -5.99100       -9.04040
H          2.35610       -6.07620      -11.30010
H          0.28310       -4.89550      -11.86610
H         -4.59980       -0.51810       -7.49380
H         -0.43270        0.76560        1.84310
H         -0.59520        0.38550        0.12710
H         -0.51630        3.18620        1.34210
H         -0.77050        2.85330       -0.37450
H          0.76310        2.42030        0.39910
H         -1.76600       -1.71040       -2.33650
H         -1.54600       -1.02990       -0.72430
H         -0.06580        0.79560       -1.91930
H          0.58390       -0.85260       -1.95890
H         -0.22980       -0.18670       -3.37240
H         -3.41590        3.16570        6.42550
H         -1.59120        3.11210        7.90170
H          4.15500        0.95780        6.54590
H          2.95350        2.86250       11.08320
H          5.91600        1.14360       11.25000
H          6.85710        3.43560       11.49130
H          5.75480        4.89700        9.62480
H          6.42650        3.87870        7.26540
H          7.94280        1.78740        7.67840
H          8.81750        3.22450        9.72310
H          8.42930        1.59110       10.31850
H          6.56260        0.15370        8.95510
