135

C          7.21660       -2.31260        0.58860
C          7.35210       -3.58090        1.09660
C          6.24410       -4.44850        1.52140
O          5.05950       -4.16710        1.52930
C          6.86140       -5.71870        1.93160
C          6.25620       -6.88330        2.39790
O          4.92190       -6.94200        2.52800
C          7.08890       -7.96250        2.71330
C          8.45910       -7.87070        2.56610
C          9.06530       -6.70880        2.10230
C          8.25800       -5.63090        1.78550
C          8.59300       -4.29780        1.27930
C          9.86530       -3.83990        1.04400
C         10.20550       -2.55610        0.57030
N         10.57810       -1.53500        0.19680
C         11.03720       -4.59660        1.25060
N         12.03430       -5.14790        1.39510
C          6.06790       -1.54590        0.35920
S          4.40760       -1.99160        0.70090
C          3.86480       -0.47660        0.09100
C          2.54380       -0.02130       -0.09610
C          2.33880        1.05260       -0.96350
O          3.33630        1.70210       -1.58220
C          4.58530        1.72790       -0.85160
C          4.90920        0.33800       -0.36030
C          6.13820       -0.26640       -0.20770
C          4.40420        2.68310        0.32480
C          3.68990        3.85610        0.11650
C          3.47340        4.73720        1.15780
C          3.97320        4.47550        2.42740
C          3.68990        5.40560        3.57100
C          2.38720        5.00800        4.26860
C          4.69840        3.30820        2.62450
C          4.91220        2.41760        1.58800
C          5.66170        2.21590       -1.79920
C          5.56510        1.96700       -3.16020
C          6.57430        2.37000       -4.01490
C          7.70230        3.01950       -3.53160
C          8.82510        3.40320       -4.45120
C          9.86070        2.27880       -4.52240
C          7.79290        3.26040       -2.16650
C          6.78510        2.86710       -1.30680
C          0.97440        1.31110       -1.13740
S          0.06050        2.44070       -2.07590
C         -1.41690        1.77930       -1.42990
C         -2.74190        2.22280       -1.61940
S         -3.30240        3.66530       -2.36990
C         -4.94270        3.32560       -1.86760
C         -5.01090        2.12100       -1.18190
C         -3.78220        1.48910       -1.05660
C         -3.50400        0.13680       -0.44760
C         -4.47010       -0.11900        0.69730
C         -5.36820       -1.17540        0.69340
C         -6.22370       -1.36120        1.76430
C         -6.20510       -0.50350        2.85670
C         -7.14990       -0.71440        4.00400
C         -8.53040       -0.13590        3.68880
C         -5.31130        0.56010        2.84580
C         -4.45010        0.74960        1.78190
C         -3.56570       -0.94640       -1.51860
C         -4.41130       -0.84300       -2.61460
C         -4.45520       -1.85160       -3.55940
C         -3.65910       -2.98270       -3.43620
C         -3.67800       -4.05390       -4.48780
C         -2.64500       -3.75220       -5.57530
C         -2.81390       -3.07860       -2.33840
C         -2.76940       -2.07710       -1.38770
O         -2.18350        0.11300        0.14230
C         -1.20770        0.73160       -0.53470
C          0.15790        0.46190       -0.38020
S          1.06570       -0.68780        0.53830
C         -5.99300        4.19990       -2.22140
C         -7.20110        4.33400       -1.60690
C         -8.34090        4.96140       -2.34510
O         -8.28380        5.54770       -3.40220
C         -9.49870        4.65250       -1.51420
S        -11.19080        4.88760       -1.60630
C        -11.40000        4.11110       -0.05890
C        -12.76090        3.96020        0.51370
C        -10.21540        3.70600        0.49060
C         -9.12290        4.00950       -0.34150
C         -7.67640        3.90490       -0.30680
C         -6.94350        3.70000        0.83500
C         -5.55460        3.89810        0.94490
N         -4.43780        4.10060        1.11870
C         -7.55470        3.38220        2.06190
N         -8.03720        3.11090        3.06810
H          8.12720       -1.80360        0.29630
H          4.64670       -7.80540        2.86210
H          6.64540       -8.88030        3.07660
H          9.07420       -8.72160        2.81650
H         10.13580       -6.66810        1.99720
H          7.07360        0.18600       -0.48720
H          3.29970        4.06910       -0.86800
H          2.91040        5.64230        0.98130
H          4.50970        5.36850        4.29110
H          3.60300        6.42970        3.20300
H          2.45840        3.99310        4.65350
H          1.55500        5.05050        3.56970
H          2.17930        5.68040        5.09760
H          5.10050        3.08850        3.60310
H          5.47950        1.51620        1.76850
H          4.69290        1.46350       -3.54770
H          6.48460        2.17420       -5.07390
H          8.43540        3.59870       -5.45210
H          9.30690        4.31290       -4.08750
H          9.40310        1.36640       -4.89810
H         10.26680        2.07460       -3.53450
H         10.67810        2.55570       -5.18390
H          8.66260        3.76470       -1.77070
H          6.87080        3.06790       -0.24900
H         -5.93430        1.69820       -0.82590
H         -5.39840       -1.85910       -0.14190
H         -6.91140       -2.19480        1.75400
H         -7.24470       -1.78420        4.20490
H         -6.75590       -0.23090        4.89910
H         -8.45900        0.93780        3.53140
H         -8.93820       -0.59280        2.78920
H         -9.21420       -0.32120        4.51370
H         -5.28590        1.24590        3.68000
H         -3.75470        1.57590        1.79040
H         -5.04550        0.02370       -2.73110
H         -5.12200       -1.75810       -4.40460
H         -4.67010       -4.11170       -4.94010
H         -3.45120       -5.02090       -4.03460
H         -1.64720       -3.70150       -5.14520
H         -2.86200       -2.79740       -6.04890
H         -2.65660       -4.52850       -6.33660
H         -2.18780       -3.95130       -2.22030
H         -2.11790       -2.17100       -0.53160
H         -5.85560        4.79480       -3.11830
H        -13.37950        3.33340       -0.12830
H        -13.25030        4.92950        0.59960
H        -12.70270        3.50540        1.49920
H        -10.14450        3.20980        1.44110
