
  xtb     02012222333D
 energy: -186.678886795732 gnorm: 0.000258110202 xtb: 6.4.1 (unknown)
 98109  0     0  0            999 V2000
    2.7966   -1.5359    7.4853 C   0  0  0  0  0  0  0  0  0  0  0  0
    4.0528   -2.0841    7.3991 C   0  0  0  0  0  0  0  0  0  0  0  0
    4.7262   -2.5336    6.1822 C   0  0  0  0  0  0  0  0  0  0  0  0
    4.3220   -2.5076    5.0198 O   0  0  0  0  0  0  0  0  0  0  0  0
    6.0227   -3.0486    6.5979 C   0  0  0  0  0  0  0  0  0  0  0  0
    7.0068   -3.5895    5.7780 C   0  0  0  0  0  0  0  0  0  0  0  0
    6.8399   -3.6891    4.4539 O   0  0  0  0  0  0  0  0  0  0  0  0
    8.1838   -4.0267    6.3997 C   0  0  0  0  0  0  0  0  0  0  0  0
    8.3286   -3.9119    7.7682 C   0  0  0  0  0  0  0  0  0  0  0  0
    7.3370   -3.3686    8.5863 C   0  0  0  0  0  0  0  0  0  0  0  0
    6.1690   -2.9318    7.9908 C   0  0  0  0  0  0  0  0  0  0  0  0
    4.9459   -2.3244    8.5201 C   0  0  0  0  0  0  0  0  0  0  0  0
    4.7204   -2.0413    9.8425 C   0  0  0  0  0  0  0  0  0  0  0  0
    5.6481   -2.3076   10.8721 C   0  0  0  0  0  0  0  0  0  0  0  0
    6.3535   -2.4955   11.7578 N   0  0  0  0  0  0  0  0  0  0  0  0
    3.5573   -1.4494   10.3763 C   0  0  0  0  0  0  0  0  0  0  0  0
    2.6455   -0.9698   10.8858 N   0  0  0  0  0  0  0  0  0  0  0  0
    1.8542   -1.2475    6.4931 C   0  0  0  0  0  0  0  0  0  0  0  0
    0.6074   -0.6591    6.7673 C   0  0  0  0  0  0  0  0  0  0  0  0
    0.1223   -0.2247    8.1113 C   0  0  0  0  0  0  0  0  0  0  0  0
    0.6538    1.1696    8.4553 C   0  0  0  0  0  0  0  0  0  0  0  0
   -0.1261   -0.4635    5.6048 C   0  0  0  0  0  0  0  0  0  0  0  0
   -1.7166    0.2170    5.3169 S   0  0  0  0  0  0  0  0  0  0  0  0
   -1.5014   -0.0801    3.6277 C   0  0  0  0  0  0  0  0  0  0  0  0
   -2.2200    0.0450    2.4320 C   0  0  0  0  0  0  0  0  0  0  0  0
   -3.5577    0.4270    2.1861 C   0  0  0  0  0  0  0  0  0  0  0  0
   -4.0754    0.3137    0.8540 C   0  0  0  0  0  0  0  0  0  0  0  0
   -5.3559    0.6406    0.7794 N   0  0  0  0  0  0  0  0  0  0  0  0
   -5.8649    1.0611    2.2570 S   0  0  0  0  0  0  0  0  0  0  0  0
   -4.4715    0.8402    3.0499 N   0  0  0  0  0  0  0  0  0  0  0  0
   -3.1958   -0.0463   -0.1913 C   0  0  0  0  0  0  0  0  0  0  0  0
   -3.3833   -0.0764   -1.5805 C   0  0  0  0  0  0  0  0  0  0  0  0
   -4.6444    0.1609   -2.7357 S   0  0  0  0  0  0  0  0  0  0  0  0
   -3.4798   -0.0529   -4.0252 C   0  0  0  0  0  0  0  0  0  0  0  0
   -3.5778    0.0470   -5.4190 C   0  0  0  0  0  0  0  0  0  0  0  0
   -4.8655    0.1679   -6.1608 C   0  0  0  0  0  0  0  0  0  0  0  0
   -5.8931   -0.8680   -5.7068 C   0  0  0  0  0  0  0  0  0  0  0  0
   -2.3312   -0.1157   -6.0182 C   0  0  0  0  0  0  0  0  0  0  0  0
   -1.0657   -0.4952   -4.8457 S   0  0  0  0  0  0  0  0  0  0  0  0
   -2.1843   -0.3126   -3.5505 C   0  0  0  0  0  0  0  0  0  0  0  0
   -2.1338   -0.3350   -2.1548 C   0  0  0  0  0  0  0  0  0  0  0  0
   -1.1891   -0.5093   -1.1757 N   0  0  0  0  0  0  0  0  0  0  0  0
   -1.8222   -0.3398    0.0465 C   0  0  0  0  0  0  0  0  0  0  0  0
   -1.3675   -0.4232    1.3881 C   0  0  0  0  0  0  0  0  0  0  0  0
   -0.1919   -0.8731    1.9548 N   0  0  0  0  0  0  0  0  0  0  0  0
   -0.2667   -0.6589    3.3057 C   0  0  0  0  0  0  0  0  0  0  0  0
    0.5234   -0.8929    4.4342 C   0  0  0  0  0  0  0  0  0  0  0  0
    2.0763   -1.5573    4.7700 S   0  0  0  0  0  0  0  0  0  0  0  0
    0.8186   -1.7612    1.4244 C   0  0  0  0  0  0  0  0  0  0  0  0
    2.1741   -1.0734    1.2687 C   0  0  0  0  0  0  0  0  0  0  0  0
    0.2009   -0.3002   -1.5221 C   0  0  0  0  0  0  0  0  0  0  0  0
    0.5857    1.1695   -1.3675 C   0  0  0  0  0  0  0  0  0  0  0  0
   -1.9368   -0.0551   -7.3682 C   0  0  0  0  0  0  0  0  0  0  0  0
   -2.4402    0.7886   -8.3249 C   0  0  0  0  0  0  0  0  0  0  0  0
   -3.1462    2.0536   -8.0304 C   0  0  0  0  0  0  0  0  0  0  0  0
   -3.5162    2.4736   -6.9551 O   0  0  0  0  0  0  0  0  0  0  0  0
   -3.2016    2.7773   -9.3221 C   0  0  0  0  0  0  0  0  0  0  0  0
   -3.7351    4.0239   -9.5766 C   0  0  0  0  0  0  0  0  0  0  0  0
   -3.6649    4.5185  -10.8737 C   0  0  0  0  0  0  0  0  0  0  0  0
   -4.3160    6.0626  -11.2607 Cl  0  0  0  0  0  0  0  0  0  0  0  0
   -3.0565    3.7490  -11.8681 C   0  0  0  0  0  0  0  0  0  0  0  0
   -2.9859    4.2351  -13.1130 F   0  0  0  0  0  0  0  0  0  0  0  0
   -2.5158    2.4970  -11.6188 C   0  0  0  0  0  0  0  0  0  0  0  0
   -2.5915    2.0053  -10.3253 C   0  0  0  0  0  0  0  0  0  0  0  0
   -2.1322    0.7499   -9.7382 C   0  0  0  0  0  0  0  0  0  0  0  0
   -1.5864   -0.3058  -10.4210 C   0  0  0  0  0  0  0  0  0  0  0  0
   -1.2515   -1.5453   -9.8360 C   0  0  0  0  0  0  0  0  0  0  0  0
   -0.9801   -2.5836   -9.4277 N   0  0  0  0  0  0  0  0  0  0  0  0
   -1.3206   -0.2967  -11.8059 C   0  0  0  0  0  0  0  0  0  0  0  0
   -1.0750   -0.3402  -12.9262 N   0  0  0  0  0  0  0  0  0  0  0  0
    2.4638   -1.2712    8.4793 H   0  0  0  0  0  0  0  0  0  0  0  0
    5.9588   -3.3330    4.2241 H   0  0  0  0  0  0  0  0  0  0  0  0
    8.9659   -4.4509    5.7906 H   0  0  0  0  0  0  0  0  0  0  0  0
    9.2439   -4.2556    8.2258 H   0  0  0  0  0  0  0  0  0  0  0  0
    7.4977   -3.3015    9.6489 H   0  0  0  0  0  0  0  0  0  0  0  0
    0.4264   -0.9292    8.8866 H   0  0  0  0  0  0  0  0  0  0  0  0
   -0.9688   -0.1933    8.0858 H   0  0  0  0  0  0  0  0  0  0  0  0
    0.3278    1.8931    7.7116 H   0  0  0  0  0  0  0  0  0  0  0  0
    1.7407    1.1701    8.4891 H   0  0  0  0  0  0  0  0  0  0  0  0
    0.2802    1.4751    9.4283 H   0  0  0  0  0  0  0  0  0  0  0  0
   -4.6780    0.0452   -7.2286 H   0  0  0  0  0  0  0  0  0  0  0  0
   -5.2613    1.1755   -6.0066 H   0  0  0  0  0  0  0  0  0  0  0  0
   -5.4892   -1.8730   -5.8100 H   0  0  0  0  0  0  0  0  0  0  0  0
   -6.7841   -0.7899   -6.3242 H   0  0  0  0  0  0  0  0  0  0  0  0
   -6.1805   -0.7122   -4.6711 H   0  0  0  0  0  0  0  0  0  0  0  0
    0.4554   -2.1824    0.4858 H   0  0  0  0  0  0  0  0  0  0  0  0
    0.9320   -2.5898    2.1323 H   0  0  0  0  0  0  0  0  0  0  0  0
    2.8628   -1.7343    0.7497 H   0  0  0  0  0  0  0  0  0  0  0  0
    2.0896   -0.1424    0.7151 H   0  0  0  0  0  0  0  0  0  0  0  0
    2.5914   -0.8511    2.2468 H   0  0  0  0  0  0  0  0  0  0  0  0
    0.3128   -0.6032   -2.5663 H   0  0  0  0  0  0  0  0  0  0  0  0
    0.8543   -0.9255   -0.9226 H   0  0  0  0  0  0  0  0  0  0  0  0
    0.4505    1.4941   -0.3375 H   0  0  0  0  0  0  0  0  0  0  0  0
    1.6251    1.3121   -1.6497 H   0  0  0  0  0  0  0  0  0  0  0  0
   -0.0354    1.7920   -2.0074 H   0  0  0  0  0  0  0  0  0  0  0  0
   -1.0996   -0.6896   -7.6363 H   0  0  0  0  0  0  0  0  0  0  0  0
   -4.1957    4.5963   -8.7874 H   0  0  0  0  0  0  0  0  0  0  0  0
   -2.0541    1.9563  -12.4289 H   0  0  0  0  0  0  0  0  0  0  0  0
  1  2  2  0  0  0  0
  2  3  1  0  0  0  0
  3  4  2  0  0  0  0
  3  5  1  0  0  0  0
  5  6  2  0  0  0  0
  6  7  1  0  0  0  0
  6  8  1  0  0  0  0
  8  9  2  0  0  0  0
  9 10  1  0  0  0  0
 10 11  2  0  0  0  0
 11 12  1  0  0  0  0
 12 13  2  0  0  0  0
 13 14  1  0  0  0  0
 14 15  3  0  0  0  0
 13 16  1  0  0  0  0
 16 17  3  0  0  0  0
  1 18  1  0  0  0  0
 18 19  2  0  0  0  0
 19 20  1  0  0  0  0
 20 21  1  0  0  0  0
 19 22  1  0  0  0  0
 22 23  1  0  0  0  0
 23 24  1  0  0  0  0
 24 25  1  0  0  0  0
 25 26  1  0  0  0  0
 26 27  1  0  0  0  0
 27 28  2  0  0  0  0
 28 29  1  0  0  0  0
 29 30  1  0  0  0  0
 27 31  1  0  0  0  0
 31 32  1  0  0  0  0
 32 33  1  0  0  0  0
 33 34  1  0  0  0  0
 34 35  1  0  0  0  0
 35 36  1  0  0  0  0
 36 37  1  0  0  0  0
 35 38  2  0  0  0  0
 38 39  1  0  0  0  0
 39 40  1  0  0  0  0
 40 41  1  0  0  0  0
 41 42  1  0  0  0  0
 42 43  1  0  0  0  0
 43 44  1  0  0  0  0
 44 45  1  0  0  0  0
 45 46  1  0  0  0  0
 46 47  1  0  0  0  0
 47 48  1  0  0  0  0
 45 49  1  0  0  0  0
 49 50  1  0  0  0  0
 42 51  1  0  0  0  0
 51 52  1  0  0  0  0
 38 53  1  0  0  0  0
 53 54  2  0  0  0  0
 54 55  1  0  0  0  0
 55 56  2  0  0  0  0
 55 57  1  0  0  0  0
 57 58  2  0  0  0  0
 58 59  1  0  0  0  0
 59 60  1  0  0  0  0
 59 61  2  0  0  0  0
 61 62  1  0  0  0  0
 61 63  1  0  0  0  0
 63 64  2  0  0  0  0
 64 65  1  0  0  0  0
 65 66  2  0  0  0  0
 66 67  1  0  0  0  0
 67 68  3  0  0  0  0
 66 69  1  0  0  0  0
 69 70  3  0  0  0  0
 12  2  1  0  0  0  0
 48 18  1  0  0  0  0
 65 54  1  0  0  0  0
 11  5  1  0  0  0  0
 47 22  2  0  0  0  0
 64 57  1  0  0  0  0
 46 24  2  0  0  0  0
 44 25  2  0  0  0  0
 30 26  2  0  0  0  0
 43 31  2  0  0  0  0
 41 32  2  0  0  0  0
 40 34  2  0  0  0  0
  1 71  1  0  0  0  0
  7 72  1  0  0  0  0
  8 73  1  0  0  0  0
  9 74  1  0  0  0  0
 10 75  1  0  0  0  0
 20 76  1  0  0  0  0
 20 77  1  0  0  0  0
 21 78  1  0  0  0  0
 21 79  1  0  0  0  0
 21 80  1  0  0  0  0
 36 81  1  0  0  0  0
 36 82  1  0  0  0  0
 37 83  1  0  0  0  0
 37 84  1  0  0  0  0
 37 85  1  0  0  0  0
 49 86  1  0  0  0  0
 49 87  1  0  0  0  0
 50 88  1  0  0  0  0
 50 89  1  0  0  0  0
 50 90  1  0  0  0  0
 51 91  1  0  0  0  0
 51 92  1  0  0  0  0
 52 93  1  0  0  0  0
 52 94  1  0  0  0  0
 52 95  1  0  0  0  0
 53 96  1  0  0  0  0
 58 97  1  0  0  0  0
 63 98  1  0  0  0  0
M  END
