98

C         -2.23680        6.54230        2.42380
C         -3.11310        7.29680        3.14120
C         -2.91390        8.77690        3.20400
O         -2.15750        9.41970        2.51640
C         -3.79400        9.22980        4.29570
C         -3.91240       10.49450        4.86910
O         -3.16890       11.51110        4.40910
C         -4.81870       10.64400        5.92480
C         -5.56310        9.57470        6.38450
C         -5.45300        8.31310        5.81190
C         -4.56790        8.14980        4.76190
C         -4.25550        6.96830        3.95710
C         -5.04990        5.85640        3.83480
C         -4.84760        4.85630        2.86360
N         -4.75290        4.03620        2.06560
C         -6.21130        5.62590        4.59880
N         -7.15350        5.37600        5.20540
C         -1.98120        5.15110        2.46740
C         -2.04410        4.23920        3.51480
C         -2.34600        4.59110        4.93560
C         -1.27500        4.08180        5.89950
C         -1.68090        2.95390        3.08480
S         -1.59770        1.40190        3.89010
C         -1.11230        0.66930        2.40210
C         -0.75760       -0.59250        1.89760
C         -0.74290       -1.87810        2.48340
C         -0.35810       -3.00510        1.68050
N         -0.43460       -4.14750        2.34420
S         -0.94180       -3.83470        3.84910
N         -1.08180       -2.22870        3.71390
C          0.11820       -2.78060        0.36870
C          0.76520       -3.62710       -0.54230
S          1.25620       -5.27880       -0.66050
C          2.09230       -4.89730       -2.14860
C          2.86940       -5.66870       -3.01380
C          3.20600       -7.10040       -2.77050
C          4.58460       -7.21910       -2.11520
C          3.38110       -4.90260       -4.05900
S          2.82450       -3.23000       -3.98290
C          1.96500       -3.55120       -2.52460
C          1.20270       -2.82660       -1.60800
N          0.82480       -1.52580       -1.39950
C          0.14760       -1.47430       -0.19700
C         -0.42130       -0.39970        0.52830
N         -0.62910        0.92860        0.19630
C         -1.02580        1.57410        1.33950
C         -1.34680        2.87740        1.72670
S         -1.41510        4.41890        0.97000
C         -1.03050        1.47270       -1.08490
C         -2.55270        1.56550       -1.19260
C          1.44790       -0.45900       -2.15350
C          0.87190       -0.33430       -3.56340
C          4.17020       -5.36880       -5.12580
C          4.90640       -4.65860       -6.03110
C          5.24100       -5.26210       -7.34290
O          5.14530       -6.42600       -7.65900
C          5.65680       -4.12060       -8.19280
C          5.96220       -4.11270       -9.53840
C          6.29720       -2.88770      -10.09680
F          6.60010       -2.83110      -11.40480
C          6.32860       -1.71420       -9.35820
C          6.03000       -1.73640       -8.00400
C          5.69360       -2.94650       -7.41770
C          5.37960       -3.29420       -6.03320
C          5.74140       -2.56510       -4.92910
C          6.23310       -1.24730       -4.97960
N          6.60170       -0.15980       -4.96480
C          5.73520       -3.10350       -3.62540
N          5.79820       -3.53450       -2.56300
H         -1.61750        7.10890        1.73290
H         -3.35800       12.32510        4.89330
H         -4.93110       11.61630        6.38590
H         -6.24630        9.72330        7.20680
H         -6.03810        7.49250        6.19180
H         -3.31390        4.15950        5.21260
H         -2.41890        5.67560        5.03230
H         -1.23880        2.99650        5.91060
H         -1.49720        4.42740        6.90590
H         -0.29700        4.46080        5.61130
H          2.45050       -7.52870       -2.10900
H          3.20080       -7.65470       -3.71120
H          4.82080       -8.26370       -1.93120
H          4.59850       -6.68550       -1.16830
H          5.35040       -6.79220       -2.75830
H         -0.66670        0.83000       -1.87850
H         -0.58770        2.46830       -1.18820
H         -2.99920        0.58120       -1.06720
H         -2.96300        2.23010       -0.43760
H         -2.82350        1.94990       -2.17210
H          1.35360        0.47170       -1.59390
H          2.51670       -0.68920       -2.23430
H          1.30220        0.53230       -4.05690
H         -0.21090       -0.23020       -3.55090
H          1.11470       -1.21730       -4.14810
H          4.12100       -6.43680       -5.31690
H          5.94360       -5.01490      -10.12850
H          6.58900       -0.79050       -9.85060
H          6.05200       -0.82180       -7.43380
