104

C          0.79090        5.47980        6.60150
C          0.01650        6.55480        6.24290
C         -0.76850        6.68160        5.00750
O         -0.81880        5.88350        4.08860
C         -1.47690        7.96620        5.11030
C         -2.36670        8.55740        4.21680
O         -2.68080        7.93620        3.06850
C         -2.90580        9.79970        4.56760
C         -2.56600       10.41270        5.75780
C         -1.67760        9.82510        6.65100
C         -1.13300        8.59720        6.32010
C         -0.18690        7.74330        7.04090
C          0.39610        8.05240        8.24420
C          1.32310        7.25060        8.94200
N          2.08280        6.66310        9.57370
C          0.15760        9.24070        8.96570
N          0.01510       10.17900        9.61220
C          1.06480        4.28000        5.93610
C          1.85750        3.26390        6.49810
C          2.47030        3.28430        7.86030
C          1.45490        2.85350        8.92230
C          1.96910        2.17870        5.64020
S          2.80380        0.64330        5.78960
C          2.25120        0.22880        4.20510
C          2.39800       -0.80450        3.27240
C          3.20050       -1.96670        3.29940
C          3.28210       -2.77600        2.11970
N          4.11730       -3.79310        2.26000
S          4.74320       -3.74020        3.75190
N          3.97360       -2.41550        4.27530
C          2.46230       -2.45470        1.01490
C          2.24980       -3.12980       -0.19280
S          2.83980       -4.52230       -1.02840
C          1.68460       -4.19860       -2.30830
C          1.41350       -4.84990       -3.50080
C          2.11370       -6.10220       -3.91530
C          1.30160       -7.33820       -3.51790
C          0.37810       -4.21050       -4.21070
S         -0.23300       -2.78890       -3.35740
C          0.88760       -3.06100       -2.07680
C          1.22550       -2.45200       -0.86630
N          0.82150       -1.36300       -0.13510
C          1.57650       -1.33610        1.02630
C          1.64090       -0.43360        2.12030
N          1.09860        0.81630        2.34420
C          1.45760        1.21440        3.60390
C          1.29510        2.34030        4.41710
S          0.48120        3.85790        4.32630
C          0.55860        1.78650        1.41800
C         -0.93720        2.01680        1.62630
C         -0.50170       -0.83160       -0.38760
C         -1.54920       -1.56580        0.44670
C         -0.08330       -4.66750       -5.44460
C         -1.06310       -4.18300       -6.28280
C         -1.88580       -2.99700       -6.05090
O         -1.87210       -2.25520       -5.08200
C         -2.75250       -2.85900       -7.23650
C         -3.68520       -1.90120       -7.50780
C         -4.39800       -1.96430       -8.72650
C         -5.36880       -1.00070       -9.06060
C         -6.04180       -1.08510      -10.24730
F         -6.96510       -0.16550      -10.56380
C         -5.77490       -2.13410      -11.14880
F         -6.45060       -2.19160      -12.30480
C         -4.83810       -3.08420      -10.85230
C         -4.12640       -3.02510       -9.63760
C         -3.15370       -4.00330       -9.32550
C         -2.47370       -3.92210       -8.13980
C         -1.42940       -4.76370       -7.55670
C         -0.91790       -5.89630       -8.14110
C          0.08140       -6.72900       -7.59820
N          0.88850       -7.45820       -7.22640
C         -1.33390       -6.39530       -9.39250
N         -1.62880       -6.86030      -10.40030
H          1.27160        5.54760        7.56770
H         -3.30490        8.46440        2.55420
H         -3.59980       10.28160        3.89160
H         -3.00050       11.37040        6.00050
H         -1.43320       10.32620        7.57180
H          3.30900        2.58520        7.86630
H          2.85170        4.27680        8.10510
H          1.09610        1.84780        8.71630
H          0.60330        3.52980        8.93830
H          1.92160        2.86440        9.90300
H          2.29030       -6.11700       -4.99170
H          3.08080       -6.13440       -3.40950
H          1.14950       -7.36100       -2.44130
H          1.83320       -8.23720       -3.81570
H          0.33070       -7.33560       -4.00740
H          1.07980        2.73350        1.59590
H          0.79480        1.47000        0.40110
H         -1.49050        1.08160        1.62420
H         -1.32220        2.65940        0.83950
H         -1.10590        2.51260        2.57820
H         -0.70410       -0.98520       -1.45050
H         -0.54440        0.23400       -0.18850
H         -1.54460       -2.62700        0.20930
H         -1.34350       -1.45010        1.50920
H         -2.53720       -1.16810        0.23200
H          0.43210       -5.55270       -5.79050
H         -3.87610       -1.10510       -6.80420
H         -5.58500       -0.19100       -8.38130
H         -4.64530       -3.88100      -11.55360
H         -2.97200       -4.79130      -10.03790
