98

C          2.79660       -1.53590        7.48530
C          4.05280       -2.08410        7.39910
C          4.72620       -2.53360        6.18220
O          4.32200       -2.50760        5.01980
C          6.02270       -3.04860        6.59790
C          7.00680       -3.58950        5.77800
O          6.83990       -3.68910        4.45390
C          8.18380       -4.02670        6.39970
C          8.32860       -3.91190        7.76820
C          7.33700       -3.36860        8.58630
C          6.16900       -2.93180        7.99080
C          4.94590       -2.32440        8.52010
C          4.72040       -2.04130        9.84250
C          5.64810       -2.30760       10.87210
N          6.35350       -2.49550       11.75780
C          3.55730       -1.44940       10.37630
N          2.64550       -0.96980       10.88580
C          1.85420       -1.24750        6.49310
C          0.60740       -0.65910        6.76730
C          0.12230       -0.22470        8.11130
C          0.65380        1.16960        8.45530
C         -0.12610       -0.46350        5.60480
S         -1.71660        0.21700        5.31690
C         -1.50140       -0.08010        3.62770
C         -2.22000        0.04500        2.43200
C         -3.55770        0.42700        2.18610
C         -4.07540        0.31370        0.85400
N         -5.35590        0.64060        0.77940
S         -5.86490        1.06110        2.25700
N         -4.47150        0.84020        3.04990
C         -3.19580       -0.04630       -0.19130
C         -3.38330       -0.07640       -1.58050
S         -4.64440        0.16090       -2.73570
C         -3.47980       -0.05290       -4.02520
C         -3.57780        0.04700       -5.41900
C         -4.86550        0.16790       -6.16080
C         -5.89310       -0.86800       -5.70680
C         -2.33120       -0.11570       -6.01820
S         -1.06570       -0.49520       -4.84570
C         -2.18430       -0.31260       -3.55050
C         -2.13380       -0.33500       -2.15480
N         -1.18910       -0.50930       -1.17570
C         -1.82220       -0.33980        0.04650
C         -1.36750       -0.42320        1.38810
N         -0.19190       -0.87310        1.95480
C         -0.26670       -0.65890        3.30570
C          0.52340       -0.89290        4.43420
S          2.07630       -1.55730        4.77000
C          0.81860       -1.76120        1.42440
C          2.17410       -1.07340        1.26870
C          0.20090       -0.30020       -1.52210
C          0.58570        1.16950       -1.36750
C         -1.93680       -0.05510       -7.36820
C         -2.44020        0.78860       -8.32490
C         -3.14620        2.05360       -8.03040
O         -3.51620        2.47360       -6.95510
C         -3.20160        2.77730       -9.32210
C         -3.73510        4.02390       -9.57660
C         -3.66490        4.51850      -10.87370
Cl        -4.31600        6.06260      -11.26070
C         -3.05650        3.74900      -11.86810
F         -2.98590        4.23510      -13.11300
C         -2.51580        2.49700      -11.61880
C         -2.59150        2.00530      -10.32530
C         -2.13220        0.74990       -9.73820
C         -1.58640       -0.30580      -10.42100
C         -1.25150       -1.54530       -9.83600
N         -0.98010       -2.58360       -9.42770
C         -1.32060       -0.29670      -11.80590
N         -1.07500       -0.34020      -12.92620
H          2.46380       -1.27120        8.47930
H          5.95880       -3.33300        4.22410
H          8.96590       -4.45090        5.79060
H          9.24390       -4.25560        8.22580
H          7.49770       -3.30150        9.64890
H          0.42640       -0.92920        8.88660
H         -0.96880       -0.19330        8.08580
H          0.32780        1.89310        7.71160
H          1.74070        1.17010        8.48910
H          0.28020        1.47510        9.42830
H         -4.67800        0.04520       -7.22860
H         -5.26130        1.17550       -6.00660
H         -5.48920       -1.87300       -5.81000
H         -6.78410       -0.78990       -6.32420
H         -6.18050       -0.71220       -4.67110
H          0.45540       -2.18240        0.48580
H          0.93200       -2.58980        2.13230
H          2.86280       -1.73430        0.74970
H          2.08960       -0.14240        0.71510
H          2.59140       -0.85110        2.24680
H          0.31280       -0.60320       -2.56630
H          0.85430       -0.92550       -0.92260
H          0.45050        1.49410       -0.33750
H          1.62510        1.31210       -1.64970
H         -0.03540        1.79200       -2.00740
H         -1.09960       -0.68960       -7.63630
H         -4.19570        4.59630       -8.78740
H         -2.05410        1.95630      -12.42890
