
  xtb     02012216083D
 energy: -251.956480855942 gnorm: 0.000379225946 xtb: 6.4.1 (unknown)
153168  0     0  0            999 V2000
   -1.0570    8.4711    2.4478 C   0  0  0  0  0  0  0  0  0  0  0  0
   -0.4055    9.6522    2.1965 C   0  0  0  0  0  0  0  0  0  0  0  0
    0.7713    9.8234    1.3428 C   0  0  0  0  0  0  0  0  0  0  0  0
    1.3678    8.9829    0.6739 O   0  0  0  0  0  0  0  0  0  0  0  0
    1.1357   11.2311    1.4285 C   0  0  0  0  0  0  0  0  0  0  0  0
    2.2035   11.8560    0.7940 C   0  0  0  0  0  0  0  0  0  0  0  0
    3.0385   11.1826   -0.0049 O   0  0  0  0  0  0  0  0  0  0  0  0
    2.3690   13.2275    1.0293 C   0  0  0  0  0  0  0  0  0  0  0  0
    1.4931   13.8997    1.8586 C   0  0  0  0  0  0  0  0  0  0  0  0
    0.4219   13.2675    2.4911 C   0  0  0  0  0  0  0  0  0  0  0  0
    0.2429   11.9148    2.2714 C   0  0  0  0  0  0  0  0  0  0  0  0
   -0.7451   10.9484    2.7567 C   0  0  0  0  0  0  0  0  0  0  0  0
   -1.7968   11.2507    3.5827 C   0  0  0  0  0  0  0  0  0  0  0  0
   -2.7714   10.3447    4.0490 C   0  0  0  0  0  0  0  0  0  0  0  0
   -3.6061    9.6758    4.4694 N   0  0  0  0  0  0  0  0  0  0  0  0
   -2.0569   12.5439    4.0838 C   0  0  0  0  0  0  0  0  0  0  0  0
   -2.3275   13.5673    4.5280 N   0  0  0  0  0  0  0  0  0  0  0  0
   -0.8075    7.1743    1.9802 C   0  0  0  0  0  0  0  0  0  0  0  0
    0.4675    6.6928    0.8562 S   0  0  0  0  0  0  0  0  0  0  0  0
   -0.0577    5.0591    0.9584 C   0  0  0  0  0  0  0  0  0  0  0  0
    0.2432    3.7839    0.4834 C   0  0  0  0  0  0  0  0  0  0  0  0
    1.3616    3.0166   -0.5937 S   0  0  0  0  0  0  0  0  0  0  0  0
    0.5873    1.5046   -0.2607 C   0  0  0  0  0  0  0  0  0  0  0  0
    0.7805    0.1698   -0.7293 C   0  0  0  0  0  0  0  0  0  0  0  0
    1.7046   -0.3587   -1.6271 C   0  0  0  0  0  0  0  0  0  0  0  0
    1.6208   -1.7052   -1.8944 C   0  0  0  0  0  0  0  0  0  0  0  0
    2.4930   -2.5345   -2.8227 C   0  0  0  0  0  0  0  0  0  0  0  0
    2.3082   -2.2016   -4.2931 C   0  0  0  0  0  0  0  0  0  0  0  0
    3.2022   -2.7216   -5.2217 C   0  0  0  0  0  0  0  0  0  0  0  0
    3.0328   -2.4805   -6.5708 C   0  0  0  0  0  0  0  0  0  0  0  0
    1.9631   -1.7224   -7.0307 C   0  0  0  0  0  0  0  0  0  0  0  0
    1.8070   -1.4218   -8.4933 C   0  0  0  0  0  0  0  0  0  0  0  0
    2.5513   -0.1351   -8.8563 C   0  0  0  0  0  0  0  0  0  0  0  0
    1.0684   -1.2134   -6.0999 C   0  0  0  0  0  0  0  0  0  0  0  0
    1.2322   -1.4536   -4.7472 C   0  0  0  0  0  0  0  0  0  0  0  0
    3.9377   -2.3819   -2.3879 C   0  0  0  0  0  0  0  0  0  0  0  0
    4.5034   -3.2427   -1.4583 C   0  0  0  0  0  0  0  0  0  0  0  0
    5.8086   -3.0614   -1.0386 C   0  0  0  0  0  0  0  0  0  0  0  0
    6.5760   -2.0114   -1.5239 C   0  0  0  0  0  0  0  0  0  0  0  0
    8.0076   -1.8447   -1.1039 C   0  0  0  0  0  0  0  0  0  0  0  0
    8.9335   -2.6092   -2.0522 C   0  0  0  0  0  0  0  0  0  0  0  0
    6.0009   -1.1457   -2.4455 C   0  0  0  0  0  0  0  0  0  0  0  0
    4.6988   -1.3246   -2.8710 C   0  0  0  0  0  0  0  0  0  0  0  0
    1.9185   -3.9110   -2.5982 C   0  0  0  0  0  0  0  0  0  0  0  0
    0.8407   -3.8512   -1.7089 C   0  0  0  0  0  0  0  0  0  0  0  0
    0.6479   -2.5120   -1.2574 C   0  0  0  0  0  0  0  0  0  0  0  0
   -0.2800   -1.9804   -0.3630 C   0  0  0  0  0  0  0  0  0  0  0  0
   -0.2089   -0.6321   -0.1133 C   0  0  0  0  0  0  0  0  0  0  0  0
   -1.0883    0.2007    0.8105 C   0  0  0  0  0  0  0  0  0  0  0  0
   -2.5215    0.2746    0.3097 C   0  0  0  0  0  0  0  0  0  0  0  0
   -2.7629    0.3097   -1.0589 C   0  0  0  0  0  0  0  0  0  0  0  0
   -4.0495    0.4379   -1.5447 C   0  0  0  0  0  0  0  0  0  0  0  0
   -5.1315    0.5482   -0.6806 C   0  0  0  0  0  0  0  0  0  0  0  0
   -6.5332    0.6381   -1.2100 C   0  0  0  0  0  0  0  0  0  0  0  0
   -7.1302   -0.7609   -1.3766 C   0  0  0  0  0  0  0  0  0  0  0  0
   -4.8848    0.5243    0.6846 C   0  0  0  0  0  0  0  0  0  0  0  0
   -3.5989    0.3930    1.1753 C   0  0  0  0  0  0  0  0  0  0  0  0
   -0.9315   -0.3684    2.2057 C   0  0  0  0  0  0  0  0  0  0  0  0
   -1.6845   -1.4626    2.6134 C   0  0  0  0  0  0  0  0  0  0  0  0
   -1.5081   -2.0076    3.8718 C   0  0  0  0  0  0  0  0  0  0  0  0
   -0.5652   -1.4893    4.7500 C   0  0  0  0  0  0  0  0  0  0  0  0
   -0.4111   -2.0409    6.1376 C   0  0  0  0  0  0  0  0  0  0  0  0
   -1.2809   -1.2581    7.1237 C   0  0  0  0  0  0  0  0  0  0  0  0
    0.2063   -0.4160    4.3267 C   0  0  0  0  0  0  0  0  0  0  0  0
    0.0313    0.1342    3.0711 C   0  0  0  0  0  0  0  0  0  0  0  0
   -0.4702    1.5684    0.6365 C   0  0  0  0  0  0  0  0  0  0  0  0
   -0.6805    2.8790    1.0687 C   0  0  0  0  0  0  0  0  0  0  0  0
   -1.5410    3.5776    1.8857 N   0  0  0  0  0  0  0  0  0  0  0  0
   -1.1690    4.9054    1.8246 C   0  0  0  0  0  0  0  0  0  0  0  0
   -1.5891    6.0897    2.3939 C   0  0  0  0  0  0  0  0  0  0  0  0
   -2.5842    3.1018    2.6710 C   0  0  0  0  0  0  0  0  0  0  0  0
   -3.9011    3.4285    2.5649 C   0  0  0  0  0  0  0  0  0  0  0  0
   -4.6893    2.8273    3.5684 C   0  0  0  0  0  0  0  0  0  0  0  0
   -3.9733    2.0675    4.4402 C   0  0  0  0  0  0  0  0  0  0  0  0
   -4.4751    1.2178    5.5563 C   0  0  0  0  0  0  0  0  0  0  0  0
   -4.6267   -0.2367    5.1026 C   0  0  0  0  0  0  0  0  0  0  0  0
   -2.2834    2.0820    4.0524 S   0  0  0  0  0  0  0  0  0  0  0  0
    0.1005   -5.3634   -1.4302 S   0  0  0  0  0  0  0  0  0  0  0  0
    1.2452   -6.1232   -2.5309 C   0  0  0  0  0  0  0  0  0  0  0  0
    2.1437   -5.1844   -3.0663 C   0  0  0  0  0  0  0  0  0  0  0  0
    1.3053   -7.4774   -2.8704 C   0  0  0  0  0  0  0  0  0  0  0  0
    0.5309   -8.5407   -2.4670 C   0  0  0  0  0  0  0  0  0  0  0  0
   -0.5971   -8.4762   -1.5340 C   0  0  0  0  0  0  0  0  0  0  0  0
   -1.0385   -7.4976   -0.9576 O   0  0  0  0  0  0  0  0  0  0  0  0
   -1.1120   -9.8545   -1.4204 C   0  0  0  0  0  0  0  0  0  0  0  0
   -2.1686  -10.3271   -0.6675 C   0  0  0  0  0  0  0  0  0  0  0  0
   -2.4699  -11.6794   -0.7261 C   0  0  0  0  0  0  0  0  0  0  0  0
   -1.7122  -12.5171   -1.5304 C   0  0  0  0  0  0  0  0  0  0  0  0
   -2.1931  -14.5727   -1.6026 I   0  0  0  0  0  0  0  0  0  0  0  0
   -0.6462  -12.0559   -2.2919 C   0  0  0  0  0  0  0  0  0  0  0  0
   -0.3447  -10.7055   -2.2332 C   0  0  0  0  0  0  0  0  0  0  0  0
    0.6938   -9.9130   -2.8980 C   0  0  0  0  0  0  0  0  0  0  0  0
    1.6325  -10.4173   -3.7612 C   0  0  0  0  0  0  0  0  0  0  0  0
    2.6445   -9.6782   -4.4087 C   0  0  0  0  0  0  0  0  0  0  0  0
    3.4972   -9.1578   -4.9764 N   0  0  0  0  0  0  0  0  0  0  0  0
    1.7215  -11.7767   -4.1289 C   0  0  0  0  0  0  0  0  0  0  0  0
    1.8512  -12.8657   -4.4682 N   0  0  0  0  0  0  0  0  0  0  0  0
   -1.9014    8.5180    3.1246 H   0  0  0  0  0  0  0  0  0  0  0  0
    2.7558   10.2471   -0.0379 H   0  0  0  0  0  0  0  0  0  0  0  0
    3.1889   13.7405    0.5525 H   0  0  0  0  0  0  0  0  0  0  0  0
    1.6410   14.9559    2.0262 H   0  0  0  0  0  0  0  0  0  0  0  0
   -0.2334   13.8353    3.1296 H   0  0  0  0  0  0  0  0  0  0  0  0
    2.4467    0.2727   -2.0904 H   0  0  0  0  0  0  0  0  0  0  0  0
    4.0413   -3.3113   -4.8819 H   0  0  0  0  0  0  0  0  0  0  0  0
    3.7388   -2.8910   -7.2785 H   0  0  0  0  0  0  0  0  0  0  0  0
    0.7489   -1.3063   -8.7370 H   0  0  0  0  0  0  0  0  0  0  0  0
    2.2063   -2.2475   -9.0854 H   0  0  0  0  0  0  0  0  0  0  0  0
    3.6110   -0.2353   -8.6322 H   0  0  0  0  0  0  0  0  0  0  0  0
    2.1587    0.7031   -8.2850 H   0  0  0  0  0  0  0  0  0  0  0  0
    2.4393    0.0833   -9.9157 H   0  0  0  0  0  0  0  0  0  0  0  0
    0.2269   -0.6245   -6.4363 H   0  0  0  0  0  0  0  0  0  0  0  0
    0.5163   -1.0536   -4.0440 H   0  0  0  0  0  0  0  0  0  0  0  0
    3.9238   -4.0627   -1.0597 H   0  0  0  0  0  0  0  0  0  0  0  0
    6.2352   -3.7455   -0.3189 H   0  0  0  0  0  0  0  0  0  0  0  0
    8.1422   -2.2212   -0.0879 H   0  0  0  0  0  0  0  0  0  0  0  0
    8.2758   -0.7863   -1.1151 H   0  0  0  0  0  0  0  0  0  0  0  0
    8.8228   -2.2390   -3.0690 H   0  0  0  0  0  0  0  0  0  0  0  0
    9.9712   -2.4897   -1.7498 H   0  0  0  0  0  0  0  0  0  0  0  0
    8.6894   -3.6692   -2.0461 H   0  0  0  0  0  0  0  0  0  0  0  0
    6.5793   -0.3193   -2.8335 H   0  0  0  0  0  0  0  0  0  0  0  0
    4.2736   -0.6444   -3.5950 H   0  0  0  0  0  0  0  0  0  0  0  0
   -1.0171   -2.6152    0.1024 H   0  0  0  0  0  0  0  0  0  0  0  0
   -1.9365    0.2350   -1.7512 H   0  0  0  0  0  0  0  0  0  0  0  0
   -4.2156    0.4578   -2.6124 H   0  0  0  0  0  0  0  0  0  0  0  0
   -7.1538    1.2145   -0.5209 H   0  0  0  0  0  0  0  0  0  0  0  0
   -6.5326    1.1459   -2.1766 H   0  0  0  0  0  0  0  0  0  0  0  0
   -6.5296   -1.3485   -2.0673 H   0  0  0  0  0  0  0  0  0  0  0  0
   -7.1546   -1.2783   -0.4201 H   0  0  0  0  0  0  0  0  0  0  0  0
   -8.1444   -0.6985   -1.7640 H   0  0  0  0  0  0  0  0  0  0  0  0
   -5.7084    0.6159    1.3786 H   0  0  0  0  0  0  0  0  0  0  0  0
   -3.4414    0.3737    2.2414 H   0  0  0  0  0  0  0  0  0  0  0  0
   -2.4238   -1.8864    1.9495 H   0  0  0  0  0  0  0  0  0  0  0  0
   -2.1091   -2.8545    4.1725 H   0  0  0  0  0  0  0  0  0  0  0  0
    0.6335   -1.9699    6.4471 H   0  0  0  0  0  0  0  0  0  0  0  0
   -0.7024   -3.0928    6.1554 H   0  0  0  0  0  0  0  0  0  0  0  0
   -1.1382   -1.6306    8.1353 H   0  0  0  0  0  0  0  0  0  0  0  0
   -2.3318   -1.3574    6.8632 H   0  0  0  0  0  0  0  0  0  0  0  0
   -1.0194   -0.2024    7.1010 H   0  0  0  0  0  0  0  0  0  0  0  0
    0.9557   -0.0044    4.9871 H   0  0  0  0  0  0  0  0  0  0  0  0
    0.6491    0.9663    2.7669 H   0  0  0  0  0  0  0  0  0  0  0  0
   -2.4105    6.1960    3.0794 H   0  0  0  0  0  0  0  0  0  0  0  0
   -4.2896    4.0581    1.7851 H   0  0  0  0  0  0  0  0  0  0  0  0
   -5.7547    2.9543    3.6370 H   0  0  0  0  0  0  0  0  0  0  0  0
   -5.4417    1.6020    5.8883 H   0  0  0  0  0  0  0  0  0  0  0  0
   -3.7793    1.2612    6.3967 H   0  0  0  0  0  0  0  0  0  0  0  0
   -5.3293   -0.3040    4.2750 H   0  0  0  0  0  0  0  0  0  0  0  0
   -3.6669   -0.6306    4.7740 H   0  0  0  0  0  0  0  0  0  0  0  0
   -4.9963   -0.8498    5.9209 H   0  0  0  0  0  0  0  0  0  0  0  0
    2.9142   -5.4685   -3.7607 H   0  0  0  0  0  0  0  0  0  0  0  0
    2.1018   -7.6997   -3.5703 H   0  0  0  0  0  0  0  0  0  0  0  0
   -2.7418   -9.6523   -0.0509 H   0  0  0  0  0  0  0  0  0  0  0  0
   -3.2900  -12.0785   -0.1495 H   0  0  0  0  0  0  0  0  0  0  0  0
   -0.0818  -12.7394   -2.9043 H   0  0  0  0  0  0  0  0  0  0  0  0
  1  2  2  0  0  0  0
  2  3  1  0  0  0  0
  3  4  2  0  0  0  0
  3  5  1  0  0  0  0
  5  6  2  0  0  0  0
  6  7  1  0  0  0  0
  6  8  1  0  0  0  0
  8  9  2  0  0  0  0
  9 10  1  0  0  0  0
 10 11  2  0  0  0  0
 11 12  1  0  0  0  0
 12 13  2  0  0  0  0
 13 14  1  0  0  0  0
 14 15  3  0  0  0  0
 13 16  1  0  0  0  0
 16 17  3  0  0  0  0
  1 18  1  0  0  0  0
 18 19  1  0  0  0  0
 19 20  1  0  0  0  0
 20 21  1  0  0  0  0
 21 22  1  0  0  0  0
 22 23  1  0  0  0  0
 23 24  1  0  0  0  0
 24 25  2  0  0  0  0
 25 26  1  0  0  0  0
 26 27  1  0  0  0  0
 27 28  1  0  0  0  0
 28 29  2  0  0  0  0
 29 30  1  0  0  0  0
 30 31  2  0  0  0  0
 31 32  1  0  0  0  0
 32 33  1  0  0  0  0
 31 34  1  0  0  0  0
 34 35  2  0  0  0  0
 27 36  1  0  0  0  0
 36 37  2  0  0  0  0
 37 38  1  0  0  0  0
 38 39  2  0  0  0  0
 39 40  1  0  0  0  0
 40 41  1  0  0  0  0
 39 42  1  0  0  0  0
 42 43  2  0  0  0  0
 27 44  1  0  0  0  0
 44 45  2  0  0  0  0
 45 46  1  0  0  0  0
 46 47  1  0  0  0  0
 47 48  2  0  0  0  0
 48 49  1  0  0  0  0
 49 50  1  0  0  0  0
 50 51  2  0  0  0  0
 51 52  1  0  0  0  0
 52 53  2  0  0  0  0
 53 54  1  0  0  0  0
 54 55  1  0  0  0  0
 53 56  1  0  0  0  0
 56 57  2  0  0  0  0
 49 58  1  0  0  0  0
 58 59  2  0  0  0  0
 59 60  1  0  0  0  0
 60 61  2  0  0  0  0
 61 62  1  0  0  0  0
 62 63  1  0  0  0  0
 61 64  1  0  0  0  0
 64 65  2  0  0  0  0
 49 66  1  0  0  0  0
 66 67  1  0  0  0  0
 67 68  1  0  0  0  0
 68 69  1  0  0  0  0
 69 70  1  0  0  0  0
 68 71  1  0  0  0  0
 71 72  2  0  0  0  0
 72 73  1  0  0  0  0
 73 74  2  0  0  0  0
 74 75  1  0  0  0  0
 75 76  1  0  0  0  0
 74 77  1  0  0  0  0
 45 78  1  0  0  0  0
 78 79  1  0  0  0  0
 79 80  2  0  0  0  0
 79 81  1  0  0  0  0
 81 82  2  0  0  0  0
 82 83  1  0  0  0  0
 83 84  2  0  0  0  0
 83 85  1  0  0  0  0
 85 86  2  0  0  0  0
 86 87  1  0  0  0  0
 87 88  2  0  0  0  0
 88 89  1  0  0  0  0
 88 90  1  0  0  0  0
 90 91  2  0  0  0  0
 91 92  1  0  0  0  0
 92 93  2  0  0  0  0
 93 94  1  0  0  0  0
 94 95  3  0  0  0  0
 93 96  1  0  0  0  0
 96 97  3  0  0  0  0
 12  2  1  0  0  0  0
 70 18  2  0  0  0  0
 77 71  1  0  0  0  0
 92 82  1  0  0  0  0
 11  5  1  0  0  0  0
 69 20  2  0  0  0  0
 91 85  1  0  0  0  0
 67 21  2  0  0  0  0
 66 23  2  0  0  0  0
 48 24  1  0  0  0  0
 57 50  1  0  0  0  0
 65 58  1  0  0  0  0
 46 26  2  0  0  0  0
 35 28  1  0  0  0  0
 43 36  1  0  0  0  0
 80 44  1  0  0  0  0
  1 98  1  0  0  0  0
  7 99  1  0  0  0  0
  8100  1  0  0  0  0
  9101  1  0  0  0  0
 10102  1  0  0  0  0
 25103  1  0  0  0  0
 29104  1  0  0  0  0
 30105  1  0  0  0  0
 32106  1  0  0  0  0
 32107  1  0  0  0  0
 33108  1  0  0  0  0
 33109  1  0  0  0  0
 33110  1  0  0  0  0
 34111  1  0  0  0  0
 35112  1  0  0  0  0
 37113  1  0  0  0  0
 38114  1  0  0  0  0
 40115  1  0  0  0  0
 40116  1  0  0  0  0
 41117  1  0  0  0  0
 41118  1  0  0  0  0
 41119  1  0  0  0  0
 42120  1  0  0  0  0
 43121  1  0  0  0  0
 47122  1  0  0  0  0
 51123  1  0  0  0  0
 52124  1  0  0  0  0
 54125  1  0  0  0  0
 54126  1  0  0  0  0
 55127  1  0  0  0  0
 55128  1  0  0  0  0
 55129  1  0  0  0  0
 56130  1  0  0  0  0
 57131  1  0  0  0  0
 59132  1  0  0  0  0
 60133  1  0  0  0  0
 62134  1  0  0  0  0
 62135  1  0  0  0  0
 63136  1  0  0  0  0
 63137  1  0  0  0  0
 63138  1  0  0  0  0
 64139  1  0  0  0  0
 65140  1  0  0  0  0
 70141  1  0  0  0  0
 72142  1  0  0  0  0
 73143  1  0  0  0  0
 75144  1  0  0  0  0
 75145  1  0  0  0  0
 76146  1  0  0  0  0
 76147  1  0  0  0  0
 76148  1  0  0  0  0
 80149  1  0  0  0  0
 81150  1  0  0  0  0
 86151  1  0  0  0  0
 87152  1  0  0  0  0
 90153  1  0  0  0  0
M  END
