
  xtb     02012216053D
 energy: -246.046258989065 gnorm: 0.000712041747 xtb: 6.4.1 (unknown)
152166  0     0  0            999 V2000
   -7.8837    0.8267   -2.0724 C   0  0  0  0  0  0  0  0  0  0  0  0
   -8.9945    0.1191   -1.6834 C   0  0  0  0  0  0  0  0  0  0  0  0
   -9.0396   -0.9829   -0.7217 C   0  0  0  0  0  0  0  0  0  0  0  0
   -8.1237   -1.4839   -0.0728 O   0  0  0  0  0  0  0  0  0  0  0  0
  -10.4315   -1.4079   -0.6538 C   0  0  0  0  0  0  0  0  0  0  0  0
  -10.9522   -2.4311    0.1303 C   0  0  0  0  0  0  0  0  0  0  0  0
  -10.1755   -3.1597    0.9406 O   0  0  0  0  0  0  0  0  0  0  0  0
  -12.3298   -2.6681    0.0345 C   0  0  0  0  0  0  0  0  0  0  0  0
  -13.1081   -1.9013   -0.8101 C   0  0  0  0  0  0  0  0  0  0  0  0
  -12.5798   -0.8746   -1.5937 C   0  0  0  0  0  0  0  0  0  0  0  0
  -11.2226   -0.6264   -1.5123 C   0  0  0  0  0  0  0  0  0  0  0  0
  -10.3443    0.3430   -2.1714 C   0  0  0  0  0  0  0  0  0  0  0  0
  -10.7582    1.2783   -3.0853 C   0  0  0  0  0  0  0  0  0  0  0  0
   -9.9366    2.2157   -3.7440 C   0  0  0  0  0  0  0  0  0  0  0  0
   -9.3392    3.0072   -4.3256 N   0  0  0  0  0  0  0  0  0  0  0  0
  -12.0972    1.4306   -3.5028 C   0  0  0  0  0  0  0  0  0  0  0  0
  -13.1634    1.6109   -3.8883 N   0  0  0  0  0  0  0  0  0  0  0  0
   -6.5404    0.7024   -1.7021 C   0  0  0  0  0  0  0  0  0  0  0  0
   -5.5241    1.5067   -2.2498 C   0  0  0  0  0  0  0  0  0  0  0  0
   -5.7052    2.5535   -3.3004 C   0  0  0  0  0  0  0  0  0  0  0  0
   -5.7380    1.9256   -4.6966 C   0  0  0  0  0  0  0  0  0  0  0  0
   -4.2846    1.1599   -1.7328 C   0  0  0  0  0  0  0  0  0  0  0  0
   -2.6658    1.7433   -2.0335 S   0  0  0  0  0  0  0  0  0  0  0  0
   -2.0646    0.5804   -0.9023 C   0  0  0  0  0  0  0  0  0  0  0  0
   -0.7701    0.1942   -0.4353 C   0  0  0  0  0  0  0  0  0  0  0  0
    0.4997    0.6559   -0.7721 C   0  0  0  0  0  0  0  0  0  0  0  0
    1.5733    0.0279   -0.1857 C   0  0  0  0  0  0  0  0  0  0  0  0
    3.0504    0.3132   -0.3862 C   0  0  0  0  0  0  0  0  0  0  0  0
    3.3880    1.7437    0.0019 C   0  0  0  0  0  0  0  0  0  0  0  0
    3.2563    2.7651   -0.9298 C   0  0  0  0  0  0  0  0  0  0  0  0
    3.6134    4.0608   -0.6058 C   0  0  0  0  0  0  0  0  0  0  0  0
    4.1159    4.3713    0.6509 C   0  0  0  0  0  0  0  0  0  0  0  0
    4.5273    5.7695    1.0073 C   0  0  0  0  0  0  0  0  0  0  0  0
    3.4490    6.4585    1.8454 C   0  0  0  0  0  0  0  0  0  0  0  0
    4.2084    3.3529    1.5903 C   0  0  0  0  0  0  0  0  0  0  0  0
    3.8429    2.0580    1.2758 C   0  0  0  0  0  0  0  0  0  0  0  0
    3.5476   -0.0002   -1.7885 C   0  0  0  0  0  0  0  0  0  0  0  0
    4.8315    0.3922   -2.1490 C   0  0  0  0  0  0  0  0  0  0  0  0
    5.3293    0.0987   -3.4031 C   0  0  0  0  0  0  0  0  0  0  0  0
    4.5615   -0.5946   -4.3305 C   0  0  0  0  0  0  0  0  0  0  0  0
    5.1148   -0.9381   -5.6834 C   0  0  0  0  0  0  0  0  0  0  0  0
    5.8375   -2.2860   -5.6406 C   0  0  0  0  0  0  0  0  0  0  0  0
    3.2885   -1.0021   -3.9577 C   0  0  0  0  0  0  0  0  0  0  0  0
    2.7858   -0.7149   -2.7009 C   0  0  0  0  0  0  0  0  0  0  0  0
    3.6565   -0.6896    0.5537 C   0  0  0  0  0  0  0  0  0  0  0  0
    2.6780   -1.4544    1.1638 C   0  0  0  0  0  0  0  0  0  0  0  0
    1.3808   -1.0356    0.7300 C   0  0  0  0  0  0  0  0  0  0  0  0
    0.1107   -1.4863    1.0787 C   0  0  0  0  0  0  0  0  0  0  0  0
   -0.9626   -0.8591    0.4906 C   0  0  0  0  0  0  0  0  0  0  0  0
   -2.4400   -1.1589    0.6727 C   0  0  0  0  0  0  0  0  0  0  0  0
   -2.7032   -2.6205    0.3720 C   0  0  0  0  0  0  0  0  0  0  0  0
   -2.5567   -3.5704    1.3752 C   0  0  0  0  0  0  0  0  0  0  0  0
   -2.7654   -4.9095    1.1081 C   0  0  0  0  0  0  0  0  0  0  0  0
   -3.1224   -5.3363   -0.1646 C   0  0  0  0  0  0  0  0  0  0  0  0
   -3.4077   -6.7851   -0.4358 C   0  0  0  0  0  0  0  0  0  0  0  0
   -4.8794   -7.0978   -0.1572 C   0  0  0  0  0  0  0  0  0  0  0  0
   -3.2580   -4.3841   -1.1652 C   0  0  0  0  0  0  0  0  0  0  0  0
   -3.0447   -3.0429   -0.9044 C   0  0  0  0  0  0  0  0  0  0  0  0
   -2.9790   -0.7669    2.0396 C   0  0  0  0  0  0  0  0  0  0  0  0
   -4.2687   -1.1529    2.3859 C   0  0  0  0  0  0  0  0  0  0  0  0
   -4.8135   -0.7671    3.5947 C   0  0  0  0  0  0  0  0  0  0  0  0
   -4.0902    0.0163    4.4856 C   0  0  0  0  0  0  0  0  0  0  0  0
   -4.6677    0.3979    5.8181 C   0  0  0  0  0  0  0  0  0  0  0  0
   -4.3256   -0.6575    6.8718 C   0  0  0  0  0  0  0  0  0  0  0  0
   -2.8051    0.4020    4.1312 C   0  0  0  0  0  0  0  0  0  0  0  0
   -2.2544    0.0227    2.9197 C   0  0  0  0  0  0  0  0  0  0  0  0
   -3.0454   -0.2055   -0.3214 C   0  0  0  0  0  0  0  0  0  0  0  0
   -4.3183    0.1186   -0.7853 C   0  0  0  0  0  0  0  0  0  0  0  0
   -5.9147   -0.4625   -0.5309 S   0  0  0  0  0  0  0  0  0  0  0  0
    3.2953   -2.5993    2.3050 S   0  0  0  0  0  0  0  0  0  0  0  0
    4.9078   -2.0175    1.9956 C   0  0  0  0  0  0  0  0  0  0  0  0
    6.1519   -2.2869    2.5739 C   0  0  0  0  0  0  0  0  0  0  0  0
    6.3683   -3.3230    3.6271 C   0  0  0  0  0  0  0  0  0  0  0  0
    6.6038   -4.6934    2.9863 C   0  0  0  0  0  0  0  0  0  0  0  0
    7.1299   -1.4452    2.0602 C   0  0  0  0  0  0  0  0  0  0  0  0
    6.5099   -0.3843    0.7918 S   0  0  0  0  0  0  0  0  0  0  0  0
    4.9260   -1.0087    1.0203 C   0  0  0  0  0  0  0  0  0  0  0  0
    8.4939   -1.3889    2.4265 C   0  0  0  0  0  0  0  0  0  0  0  0
    9.3420   -0.3300    2.2960 C   0  0  0  0  0  0  0  0  0  0  0  0
   10.8070   -0.5392    2.2679 C   0  0  0  0  0  0  0  0  0  0  0  0
   11.4319   -1.5500    2.5492 O   0  0  0  0  0  0  0  0  0  0  0  0
   11.3641    0.7083    1.7531 C   0  0  0  0  0  0  0  0  0  0  0  0
   12.6961    0.9678    1.4483 C   0  0  0  0  0  0  0  0  0  0  0  0
   13.6518    0.0500    1.6336 O   0  0  0  0  0  0  0  0  0  0  0  0
   12.9980    2.2376    0.9383 C   0  0  0  0  0  0  0  0  0  0  0  0
   11.9969    3.1720    0.7559 C   0  0  0  0  0  0  0  0  0  0  0  0
   10.6635    2.9126    1.0726 C   0  0  0  0  0  0  0  0  0  0  0  0
   10.3489    1.6666    1.5784 C   0  0  0  0  0  0  0  0  0  0  0  0
    9.0961    1.0801    2.0527 C   0  0  0  0  0  0  0  0  0  0  0  0
    7.9982    1.7928    2.4583 C   0  0  0  0  0  0  0  0  0  0  0  0
    7.8323    3.1766    2.2547 C   0  0  0  0  0  0  0  0  0  0  0  0
    7.6277    4.2964    2.1038 N   0  0  0  0  0  0  0  0  0  0  0  0
    6.9412    1.2348    3.2080 C   0  0  0  0  0  0  0  0  0  0  0  0
    6.0978    0.8340    3.8765 N   0  0  0  0  0  0  0  0  0  0  0  0
   -8.0572    1.6114   -2.7960 H   0  0  0  0  0  0  0  0  0  0  0  0
   -9.2550   -2.8385    0.8619 H   0  0  0  0  0  0  0  0  0  0  0  0
  -12.7634   -3.4557    0.6298 H   0  0  0  0  0  0  0  0  0  0  0  0
  -14.1673   -2.1017   -0.8680 H   0  0  0  0  0  0  0  0  0  0  0  0
  -13.2287   -0.3042   -2.2363 H   0  0  0  0  0  0  0  0  0  0  0  0
   -4.8638    3.2473   -3.2415 H   0  0  0  0  0  0  0  0  0  0  0  0
   -6.6240    3.1184   -3.1368 H   0  0  0  0  0  0  0  0  0  0  0  0
   -6.5677    1.2284   -4.7856 H   0  0  0  0  0  0  0  0  0  0  0  0
   -5.8606    2.7019   -5.4463 H   0  0  0  0  0  0  0  0  0  0  0  0
   -4.8117    1.3907   -4.8939 H   0  0  0  0  0  0  0  0  0  0  0  0
    0.6263    1.4662   -1.4733 H   0  0  0  0  0  0  0  0  0  0  0  0
    2.8969    2.5413   -1.9241 H   0  0  0  0  0  0  0  0  0  0  0  0
    3.5158    4.8393   -1.3492 H   0  0  0  0  0  0  0  0  0  0  0  0
    4.7006    6.3467    0.0971 H   0  0  0  0  0  0  0  0  0  0  0  0
    5.4595    5.7344    1.5743 H   0  0  0  0  0  0  0  0  0  0  0  0
    3.2718    5.9057    2.7650 H   0  0  0  0  0  0  0  0  0  0  0  0
    3.7571    7.4691    2.1024 H   0  0  0  0  0  0  0  0  0  0  0  0
    2.5134    6.5102    1.2920 H   0  0  0  0  0  0  0  0  0  0  0  0
    4.5877    3.5697    2.5783 H   0  0  0  0  0  0  0  0  0  0  0  0
    3.9319    1.2925    2.0326 H   0  0  0  0  0  0  0  0  0  0  0  0
    5.4399    0.9418   -1.4449 H   0  0  0  0  0  0  0  0  0  0  0  0
    6.3273    0.4180   -3.6673 H   0  0  0  0  0  0  0  0  0  0  0  0
    5.8159   -0.1645   -6.0031 H   0  0  0  0  0  0  0  0  0  0  0  0
    4.3041   -0.9878   -6.4130 H   0  0  0  0  0  0  0  0  0  0  0  0
    6.6578   -2.2525   -4.9270 H   0  0  0  0  0  0  0  0  0  0  0  0
    5.1514   -3.0733   -5.3359 H   0  0  0  0  0  0  0  0  0  0  0  0
    6.2386   -2.5341   -6.6204 H   0  0  0  0  0  0  0  0  0  0  0  0
    2.6767   -1.5500   -4.6603 H   0  0  0  0  0  0  0  0  0  0  0  0
    1.7925   -1.0470   -2.4367 H   0  0  0  0  0  0  0  0  0  0  0  0
   -0.0161   -2.2969    1.7795 H   0  0  0  0  0  0  0  0  0  0  0  0
   -2.2926   -3.2571    2.3749 H   0  0  0  0  0  0  0  0  0  0  0  0
   -2.6506   -5.6351    1.9009 H   0  0  0  0  0  0  0  0  0  0  0  0
   -2.7799   -7.4120    0.2008 H   0  0  0  0  0  0  0  0  0  0  0  0
   -3.1804   -7.0196   -1.4777 H   0  0  0  0  0  0  0  0  0  0  0  0
   -5.0906   -8.1459   -0.3562 H   0  0  0  0  0  0  0  0  0  0  0  0
   -5.1209   -6.8853    0.8818 H   0  0  0  0  0  0  0  0  0  0  0  0
   -5.5214   -6.4873   -0.7882 H   0  0  0  0  0  0  0  0  0  0  0  0
   -3.5330   -4.6946   -2.1632 H   0  0  0  0  0  0  0  0  0  0  0  0
   -3.1497   -2.3221   -1.7023 H   0  0  0  0  0  0  0  0  0  0  0  0
   -4.8476   -1.7596    1.7050 H   0  0  0  0  0  0  0  0  0  0  0  0
   -5.8183   -1.0743    3.8462 H   0  0  0  0  0  0  0  0  0  0  0  0
   -5.7529    0.4877    5.7384 H   0  0  0  0  0  0  0  0  0  0  0  0
   -4.2663    1.3633    6.1328 H   0  0  0  0  0  0  0  0  0  0  0  0
   -4.7284   -1.6255    6.5819 H   0  0  0  0  0  0  0  0  0  0  0  0
   -3.2470   -0.7527    6.9753 H   0  0  0  0  0  0  0  0  0  0  0  0
   -4.7443   -0.3815    7.8367 H   0  0  0  0  0  0  0  0  0  0  0  0
   -2.2256    1.0142    4.8075 H   0  0  0  0  0  0  0  0  0  0  0  0
   -1.2559    0.3461    2.6639 H   0  0  0  0  0  0  0  0  0  0  0  0
    7.2190   -3.0531    4.2524 H   0  0  0  0  0  0  0  0  0  0  0  0
    5.4786   -3.3692    4.2585 H   0  0  0  0  0  0  0  0  0  0  0  0
    6.7467   -5.4454    3.7576 H   0  0  0  0  0  0  0  0  0  0  0  0
    5.7492   -4.9791    2.3773 H   0  0  0  0  0  0  0  0  0  0  0  0
    7.4877   -4.6730    2.3528 H   0  0  0  0  0  0  0  0  0  0  0  0
    8.9439   -2.3083    2.7870 H   0  0  0  0  0  0  0  0  0  0  0  0
   13.2453   -0.7615    1.9941 H   0  0  0  0  0  0  0  0  0  0  0  0
   14.0229    2.4664    0.6937 H   0  0  0  0  0  0  0  0  0  0  0  0
   12.2556    4.1407    0.3556 H   0  0  0  0  0  0  0  0  0  0  0  0
    9.9105    3.6664    0.9115 H   0  0  0  0  0  0  0  0  0  0  0  0
  1  2  2  0  0  0  0
  2  3  1  0  0  0  0
  3  4  2  0  0  0  0
  3  5  1  0  0  0  0
  5  6  2  0  0  0  0
  6  7  1  0  0  0  0
  6  8  1  0  0  0  0
  8  9  2  0  0  0  0
  9 10  1  0  0  0  0
 10 11  2  0  0  0  0
 11 12  1  0  0  0  0
 12 13  2  0  0  0  0
 13 14  1  0  0  0  0
 14 15  3  0  0  0  0
 13 16  1  0  0  0  0
 16 17  3  0  0  0  0
  1 18  1  0  0  0  0
 18 19  2  0  0  0  0
 19 20  1  0  0  0  0
 20 21  1  0  0  0  0
 19 22  1  0  0  0  0
 22 23  1  0  0  0  0
 23 24  1  0  0  0  0
 24 25  1  0  0  0  0
 25 26  2  0  0  0  0
 26 27  1  0  0  0  0
 27 28  1  0  0  0  0
 28 29  1  0  0  0  0
 29 30  2  0  0  0  0
 30 31  1  0  0  0  0
 31 32  2  0  0  0  0
 32 33  1  0  0  0  0
 33 34  1  0  0  0  0
 32 35  1  0  0  0  0
 35 36  2  0  0  0  0
 28 37  1  0  0  0  0
 37 38  2  0  0  0  0
 38 39  1  0  0  0  0
 39 40  2  0  0  0  0
 40 41  1  0  0  0  0
 41 42  1  0  0  0  0
 40 43  1  0  0  0  0
 43 44  2  0  0  0  0
 28 45  1  0  0  0  0
 45 46  2  0  0  0  0
 46 47  1  0  0  0  0
 47 48  1  0  0  0  0
 48 49  2  0  0  0  0
 49 50  1  0  0  0  0
 50 51  1  0  0  0  0
 51 52  2  0  0  0  0
 52 53  1  0  0  0  0
 53 54  2  0  0  0  0
 54 55  1  0  0  0  0
 55 56  1  0  0  0  0
 54 57  1  0  0  0  0
 57 58  2  0  0  0  0
 50 59  1  0  0  0  0
 59 60  2  0  0  0  0
 60 61  1  0  0  0  0
 61 62  2  0  0  0  0
 62 63  1  0  0  0  0
 63 64  1  0  0  0  0
 62 65  1  0  0  0  0
 65 66  2  0  0  0  0
 50 67  1  0  0  0  0
 67 68  1  0  0  0  0
 68 69  1  0  0  0  0
 46 70  1  0  0  0  0
 70 71  1  0  0  0  0
 71 72  1  0  0  0  0
 72 73  1  0  0  0  0
 73 74  1  0  0  0  0
 72 75  2  0  0  0  0
 75 76  1  0  0  0  0
 76 77  1  0  0  0  0
 75 78  1  0  0  0  0
 78 79  2  0  0  0  0
 79 80  1  0  0  0  0
 80 81  2  0  0  0  0
 80 82  1  0  0  0  0
 82 83  2  0  0  0  0
 83 84  1  0  0  0  0
 83 85  1  0  0  0  0
 85 86  2  0  0  0  0
 86 87  1  0  0  0  0
 87 88  2  0  0  0  0
 88 89  1  0  0  0  0
 89 90  2  0  0  0  0
 90 91  1  0  0  0  0
 91 92  3  0  0  0  0
 90 93  1  0  0  0  0
 93 94  3  0  0  0  0
 12  2  1  0  0  0  0
 69 18  1  0  0  0  0
 77 71  2  0  0  0  0
 89 79  1  0  0  0  0
 11  5  1  0  0  0  0
 68 22  2  0  0  0  0
 88 82  1  0  0  0  0
 67 24  2  0  0  0  0
 49 25  1  0  0  0  0
 58 51  1  0  0  0  0
 66 59  1  0  0  0  0
 47 27  2  0  0  0  0
 36 29  1  0  0  0  0
 44 37  1  0  0  0  0
 77 45  1  0  0  0  0
  1 95  1  0  0  0  0
  7 96  1  0  0  0  0
  8 97  1  0  0  0  0
  9 98  1  0  0  0  0
 10 99  1  0  0  0  0
 20100  1  0  0  0  0
 20101  1  0  0  0  0
 21102  1  0  0  0  0
 21103  1  0  0  0  0
 21104  1  0  0  0  0
 26105  1  0  0  0  0
 30106  1  0  0  0  0
 31107  1  0  0  0  0
 33108  1  0  0  0  0
 33109  1  0  0  0  0
 34110  1  0  0  0  0
 34111  1  0  0  0  0
 34112  1  0  0  0  0
 35113  1  0  0  0  0
 36114  1  0  0  0  0
 38115  1  0  0  0  0
 39116  1  0  0  0  0
 41117  1  0  0  0  0
 41118  1  0  0  0  0
 42119  1  0  0  0  0
 42120  1  0  0  0  0
 42121  1  0  0  0  0
 43122  1  0  0  0  0
 44123  1  0  0  0  0
 48124  1  0  0  0  0
 52125  1  0  0  0  0
 53126  1  0  0  0  0
 55127  1  0  0  0  0
 55128  1  0  0  0  0
 56129  1  0  0  0  0
 56130  1  0  0  0  0
 56131  1  0  0  0  0
 57132  1  0  0  0  0
 58133  1  0  0  0  0
 60134  1  0  0  0  0
 61135  1  0  0  0  0
 63136  1  0  0  0  0
 63137  1  0  0  0  0
 64138  1  0  0  0  0
 64139  1  0  0  0  0
 64140  1  0  0  0  0
 65141  1  0  0  0  0
 66142  1  0  0  0  0
 73143  1  0  0  0  0
 73144  1  0  0  0  0
 74145  1  0  0  0  0
 74146  1  0  0  0  0
 74147  1  0  0  0  0
 78148  1  0  0  0  0
 84149  1  0  0  0  0
 85150  1  0  0  0  0
 86151  1  0  0  0  0
 87152  1  0  0  0  0
M  END
