
  xtb     02012219063D
 energy: -221.765580148444 gnorm: 0.000642759363 xtb: 6.4.1 (unknown)
114129  0     0  0            999 V2000
   -3.3378   -8.6698    4.1150 C   0  0  0  0  0  0  0  0  0  0  0  0
   -4.4260   -9.3181    3.5970 C   0  0  0  0  0  0  0  0  0  0  0  0
   -5.3338   -8.7831    2.5643 C   0  0  0  0  0  0  0  0  0  0  0  0
   -5.2188   -7.7323    1.9654 O   0  0  0  0  0  0  0  0  0  0  0  0
   -6.4052   -9.7791    2.4180 C   0  0  0  0  0  0  0  0  0  0  0  0
   -7.5286   -9.7455    1.5943 C   0  0  0  0  0  0  0  0  0  0  0  0
   -7.7376   -8.6946    0.7886 O   0  0  0  0  0  0  0  0  0  0  0  0
   -8.4042  -10.8351    1.6525 C   0  0  0  0  0  0  0  0  0  0  0  0
   -8.1596  -11.8999    2.4980 C   0  0  0  0  0  0  0  0  0  0  0  0
   -7.0395  -11.9353    3.3202 C   0  0  0  0  0  0  0  0  0  0  0  0
   -6.1603  -10.8674    3.2749 C   0  0  0  0  0  0  0  0  0  0  0  0
   -4.9149  -10.6193    4.0031 C   0  0  0  0  0  0  0  0  0  0  0  0
   -4.3226  -11.4969    4.8743 C   0  0  0  0  0  0  0  0  0  0  0  0
   -3.0994  -11.2929    5.5469 C   0  0  0  0  0  0  0  0  0  0  0  0
   -2.1112  -11.2177    6.1281 N   0  0  0  0  0  0  0  0  0  0  0  0
   -4.8480  -12.7613    5.2144 C   0  0  0  0  0  0  0  0  0  0  0  0
   -5.2113  -13.8002    5.5416 N   0  0  0  0  0  0  0  0  0  0  0  0
   -2.7684   -7.4272    3.7793 C   0  0  0  0  0  0  0  0  0  0  0  0
   -3.2844   -6.3448    2.4984 S   0  0  0  0  0  0  0  0  0  0  0  0
   -1.9932   -5.2578    2.8690 C   0  0  0  0  0  0  0  0  0  0  0  0
   -1.6996   -4.0662    2.1951 C   0  0  0  0  0  0  0  0  0  0  0  0
   -2.6303   -3.4738    0.8377 S   0  0  0  0  0  0  0  0  0  0  0  0
   -1.5511   -2.1421    0.7075 C   0  0  0  0  0  0  0  0  0  0  0  0
   -1.3990   -0.9930   -0.0770 C   0  0  0  0  0  0  0  0  0  0  0  0
   -2.2464   -0.4429   -1.0622 C   0  0  0  0  0  0  0  0  0  0  0  0
   -1.9262    0.8457   -1.5976 C   0  0  0  0  0  0  0  0  0  0  0  0
   -2.8317    1.2762   -2.4619 N   0  0  0  0  0  0  0  0  0  0  0  0
   -3.9872    0.1493   -2.5937 S   0  0  0  0  0  0  0  0  0  0  0  0
   -3.3768   -0.9284   -1.5510 N   0  0  0  0  0  0  0  0  0  0  0  0
   -0.7147    1.4562   -1.2088 C   0  0  0  0  0  0  0  0  0  0  0  0
   -0.1080    2.6327   -1.6671 C   0  0  0  0  0  0  0  0  0  0  0  0
   -0.4422    3.9070   -2.7701 S   0  0  0  0  0  0  0  0  0  0  0  0
    1.1360    4.5861   -2.4332 C   0  0  0  0  0  0  0  0  0  0  0  0
    1.6386    5.7324   -3.0568 C   0  0  0  0  0  0  0  0  0  0  0  0
    2.9214    6.2414   -2.7516 C   0  0  0  0  0  0  0  0  0  0  0  0
    3.6698    5.5461   -1.7676 C   0  0  0  0  0  0  0  0  0  0  0  0
    4.8746    5.7853   -1.2505 N   0  0  0  0  0  0  0  0  0  0  0  0
    5.0558    4.8255   -0.3836 N   0  0  0  0  0  0  0  0  0  0  0  0
    6.2703    4.6992    0.3686 C   0  0  0  0  0  0  0  0  0  0  0  0
    7.1760    3.6388   -0.2505 C   0  0  0  0  0  0  0  0  0  0  0  0
    4.0811    3.9551   -0.2719 N   0  0  0  0  0  0  0  0  0  0  0  0
    3.1577    4.3701   -1.1453 C   0  0  0  0  0  0  0  0  0  0  0  0
    1.8789    3.8518   -1.4824 C   0  0  0  0  0  0  0  0  0  0  0  0
    1.1478    2.7216   -1.0605 C   0  0  0  0  0  0  0  0  0  0  0  0
    1.3317    1.6457   -0.2236 N   0  0  0  0  0  0  0  0  0  0  0  0
    0.1900    0.8553   -0.2884 C   0  0  0  0  0  0  0  0  0  0  0  0
   -0.2195   -0.3355    0.3778 C   0  0  0  0  0  0  0  0  0  0  0  0
    0.2775   -1.0527    1.4510 N   0  0  0  0  0  0  0  0  0  0  0  0
   -0.5220   -2.1481    1.6536 C   0  0  0  0  0  0  0  0  0  0  0  0
   -0.6055   -3.2456    2.5415 C   0  0  0  0  0  0  0  0  0  0  0  0
    0.1601   -3.6635    3.6630 C   0  0  0  0  0  0  0  0  0  0  0  0
   -0.1360   -4.8761    4.3549 C   0  0  0  0  0  0  0  0  0  0  0  0
   -1.2131   -5.7065    3.9550 C   0  0  0  0  0  0  0  0  0  0  0  0
   -1.6584   -6.9275    4.4515 C   0  0  0  0  0  0  0  0  0  0  0  0
    0.7450   -5.0015    5.3470 N   0  0  0  0  0  0  0  0  0  0  0  0
    1.5016   -3.9403    5.2483 N   0  0  0  0  0  0  0  0  0  0  0  0
    2.5634   -3.6761    6.1756 C   0  0  0  0  0  0  0  0  0  0  0  0
    2.0348   -2.9484    7.4081 C   0  0  0  0  0  0  0  0  0  0  0  0
    1.2086   -3.1079    4.2794 N   0  0  0  0  0  0  0  0  0  0  0  0
    1.3238   -0.7120    2.3840 C   0  0  0  0  0  0  0  0  0  0  0  0
    2.6149   -1.4813    2.0966 C   0  0  0  0  0  0  0  0  0  0  0  0
    2.6897    1.2286    0.0559 C   0  0  0  0  0  0  0  0  0  0  0  0
    3.2276    0.3587   -1.0803 C   0  0  0  0  0  0  0  0  0  0  0  0
    3.2365    7.3620   -3.5082 C   0  0  0  0  0  0  0  0  0  0  0  0
    2.2314    7.7326   -4.3993 C   0  0  0  0  0  0  0  0  0  0  0  0
    0.8423    6.6643   -4.2736 S   0  0  0  0  0  0  0  0  0  0  0  0
    2.3940    8.8090   -5.2832 C   0  0  0  0  0  0  0  0  0  0  0  0
    1.5571    9.3091   -6.2504 C   0  0  0  0  0  0  0  0  0  0  0  0
    0.2041    8.8234   -6.5432 C   0  0  0  0  0  0  0  0  0  0  0  0
   -0.3942    7.9179   -5.9968 O   0  0  0  0  0  0  0  0  0  0  0  0
   -0.3008    9.6718   -7.6442 C   0  0  0  0  0  0  0  0  0  0  0  0
    0.6863   10.6095   -7.9998 C   0  0  0  0  0  0  0  0  0  0  0  0
    0.4410   11.5180   -9.0169 C   0  0  0  0  0  0  0  0  0  0  0  0
   -0.7854   11.4760   -9.6643 C   0  0  0  0  0  0  0  0  0  0  0  0
   -1.7537   10.5496   -9.3102 C   0  0  0  0  0  0  0  0  0  0  0  0
   -3.4025   10.5442  -10.2322 Br  0  0  0  0  0  0  0  0  0  0  0  0
   -1.5282    9.6237   -8.2850 C   0  0  0  0  0  0  0  0  0  0  0  0
   -2.7193    8.4764   -7.8438 Cl  0  0  0  0  0  0  0  0  0  0  0  0
    1.8585   10.4031   -7.1486 C   0  0  0  0  0  0  0  0  0  0  0  0
    3.0233   11.1235   -7.2305 C   0  0  0  0  0  0  0  0  0  0  0  0
    3.2457   12.1727   -8.1470 C   0  0  0  0  0  0  0  0  0  0  0  0
    3.4960   13.0356   -8.8618 N   0  0  0  0  0  0  0  0  0  0  0  0
    4.1727   10.9325   -6.4354 C   0  0  0  0  0  0  0  0  0  0  0  0
    5.1511   10.8502   -5.8386 N   0  0  0  0  0  0  0  0  0  0  0  0
   -2.8084   -9.1680    4.9188 H   0  0  0  0  0  0  0  0  0  0  0  0
   -8.5491   -8.8063    0.2768 H   0  0  0  0  0  0  0  0  0  0  0  0
   -9.2846  -10.8367    1.0236 H   0  0  0  0  0  0  0  0  0  0  0  0
   -8.8556  -12.7246    2.5210 H   0  0  0  0  0  0  0  0  0  0  0  0
   -6.8783  -12.7781    3.9702 H   0  0  0  0  0  0  0  0  0  0  0  0
    6.7548    5.6766    0.3576 H   0  0  0  0  0  0  0  0  0  0  0  0
    6.0078    4.4228    1.3925 H   0  0  0  0  0  0  0  0  0  0  0  0
    7.4360    3.9143   -1.2696 H   0  0  0  0  0  0  0  0  0  0  0  0
    6.6698    2.6766   -0.2645 H   0  0  0  0  0  0  0  0  0  0  0  0
    8.0889    3.5480    0.3306 H   0  0  0  0  0  0  0  0  0  0  0  0
   -1.1885   -7.4421    5.2705 H   0  0  0  0  0  0  0  0  0  0  0  0
    2.9978   -4.6363    6.4602 H   0  0  0  0  0  0  0  0  0  0  0  0
    3.3061   -3.0664    5.6572 H   0  0  0  0  0  0  0  0  0  0  0  0
    1.6016   -1.9918    7.1258 H   0  0  0  0  0  0  0  0  0  0  0  0
    1.2722   -3.5496    7.8966 H   0  0  0  0  0  0  0  0  0  0  0  0
    2.8455   -2.7731    8.1093 H   0  0  0  0  0  0  0  0  0  0  0  0
    1.4645    0.3701    2.3714 H   0  0  0  0  0  0  0  0  0  0  0  0
    0.9804   -0.9951    3.3823 H   0  0  0  0  0  0  0  0  0  0  0  0
    2.4879   -2.5150    2.4031 H   0  0  0  0  0  0  0  0  0  0  0  0
    3.4380   -1.0561    2.6647 H   0  0  0  0  0  0  0  0  0  0  0  0
    2.8646   -1.4678    1.0395 H   0  0  0  0  0  0  0  0  0  0  0  0
    2.7475    0.6927    0.9944 H   0  0  0  0  0  0  0  0  0  0  0  0
    3.2911    2.1363    0.1409 H   0  0  0  0  0  0  0  0  0  0  0  0
    3.2399    0.9199   -2.0119 H   0  0  0  0  0  0  0  0  0  0  0  0
    4.2416    0.0388   -0.8553 H   0  0  0  0  0  0  0  0  0  0  0  0
    2.6029   -0.5219   -1.2216 H   0  0  0  0  0  0  0  0  0  0  0  0
    4.1695    7.8905   -3.4268 H   0  0  0  0  0  0  0  0  0  0  0  0
    3.3540    9.2990   -5.1736 H   0  0  0  0  0  0  0  0  0  0  0  0
    1.1718   12.2504   -9.3152 H   0  0  0  0  0  0  0  0  0  0  0  0
   -0.9955   12.1750  -10.4591 H   0  0  0  0  0  0  0  0  0  0  0  0
  1  2  2  0  0  0  0
  2  3  1  0  0  0  0
  3  4  2  0  0  0  0
  3  5  1  0  0  0  0
  5  6  2  0  0  0  0
  6  7  1  0  0  0  0
  6  8  1  0  0  0  0
  8  9  2  0  0  0  0
  9 10  1  0  0  0  0
 10 11  2  0  0  0  0
 11 12  1  0  0  0  0
 12 13  2  0  0  0  0
 13 14  1  0  0  0  0
 14 15  3  0  0  0  0
 13 16  1  0  0  0  0
 16 17  3  0  0  0  0
  1 18  1  0  0  0  0
 18 19  1  0  0  0  0
 19 20  1  0  0  0  0
 20 21  1  0  0  0  0
 21 22  1  0  0  0  0
 22 23  1  0  0  0  0
 23 24  1  0  0  0  0
 24 25  1  0  0  0  0
 25 26  1  0  0  0  0
 26 27  2  0  0  0  0
 27 28  1  0  0  0  0
 28 29  1  0  0  0  0
 26 30  1  0  0  0  0
 30 31  1  0  0  0  0
 31 32  1  0  0  0  0
 32 33  1  0  0  0  0
 33 34  1  0  0  0  0
 34 35  2  0  0  0  0
 35 36  1  0  0  0  0
 36 37  2  0  0  0  0
 37 38  1  0  0  0  0
 38 39  1  0  0  0  0
 39 40  1  0  0  0  0
 38 41  1  0  0  0  0
 41 42  2  0  0  0  0
 42 43  1  0  0  0  0
 43 44  1  0  0  0  0
 44 45  1  0  0  0  0
 45 46  1  0  0  0  0
 46 47  1  0  0  0  0
 47 48  1  0  0  0  0
 48 49  1  0  0  0  0
 49 50  1  0  0  0  0
 50 51  1  0  0  0  0
 51 52  1  0  0  0  0
 52 53  1  0  0  0  0
 53 54  1  0  0  0  0
 52 55  2  0  0  0  0
 55 56  1  0  0  0  0
 56 57  1  0  0  0  0
 57 58  1  0  0  0  0
 56 59  1  0  0  0  0
 48 60  1  0  0  0  0
 60 61  1  0  0  0  0
 45 62  1  0  0  0  0
 62 63  1  0  0  0  0
 35 64  1  0  0  0  0
 64 65  2  0  0  0  0
 65 66  1  0  0  0  0
 65 67  1  0  0  0  0
 67 68  2  0  0  0  0
 68 69  1  0  0  0  0
 69 70  2  0  0  0  0
 69 71  1  0  0  0  0
 71 72  2  0  0  0  0
 72 73  1  0  0  0  0
 73 74  2  0  0  0  0
 74 75  1  0  0  0  0
 75 76  1  0  0  0  0
 75 77  2  0  0  0  0
 77 78  1  0  0  0  0
 72 79  1  0  0  0  0
 79 80  2  0  0  0  0
 80 81  1  0  0  0  0
 81 82  3  0  0  0  0
 80 83  1  0  0  0  0
 83 84  3  0  0  0  0
 12  2  1  0  0  0  0
 54 18  2  0  0  0  0
 79 68  1  0  0  0  0
 11  5  1  0  0  0  0
 53 20  2  0  0  0  0
 77 71  1  0  0  0  0
 50 21  2  0  0  0  0
 59 51  2  0  0  0  0
 49 23  2  0  0  0  0
 47 24  2  0  0  0  0
 29 25  2  0  0  0  0
 46 30  2  0  0  0  0
 44 31  2  0  0  0  0
 43 33  2  0  0  0  0
 66 34  1  0  0  0  0
 42 36  1  0  0  0  0
  1 85  1  0  0  0  0
  7 86  1  0  0  0  0
  8 87  1  0  0  0  0
  9 88  1  0  0  0  0
 10 89  1  0  0  0  0
 39 90  1  0  0  0  0
 39 91  1  0  0  0  0
 40 92  1  0  0  0  0
 40 93  1  0  0  0  0
 40 94  1  0  0  0  0
 54 95  1  0  0  0  0
 57 96  1  0  0  0  0
 57 97  1  0  0  0  0
 58 98  1  0  0  0  0
 58 99  1  0  0  0  0
 58100  1  0  0  0  0
 60101  1  0  0  0  0
 60102  1  0  0  0  0
 61103  1  0  0  0  0
 61104  1  0  0  0  0
 61105  1  0  0  0  0
 62106  1  0  0  0  0
 62107  1  0  0  0  0
 63108  1  0  0  0  0
 63109  1  0  0  0  0
 63110  1  0  0  0  0
 64111  1  0  0  0  0
 67112  1  0  0  0  0
 73113  1  0  0  0  0
 74114  1  0  0  0  0
M  END
