122

C          1.75600        5.29630        5.87830
C          1.54270        5.55590        7.20120
C          0.90900        4.68160        8.22140
O          0.70500        3.48530        8.17710
C          0.54240        5.58030        9.32620
C         -0.16900        5.27710       10.47540
C         -0.42690        6.28890       11.38790
O         -1.11110        6.14020       12.54180
C         -1.63050        4.86910       12.85700
C          0.04350        7.61020       11.13230
O         -0.26880        8.51530       12.08160
C          0.15060        9.85130       11.91270
C          0.76080        7.89430        9.97880
C          1.01210        6.87400        9.06970
C          1.71760        6.87230        7.79900
C          2.47630        7.90130        7.30370
C          2.62150        9.14430        7.95270
N          2.76730       10.17520        8.43780
C          3.25350        7.84990        6.12750
N          3.92820        7.88070        5.19860
C          1.61610        4.09920        5.14320
C          1.51100        2.77520        5.52980
C          1.38550        1.92290        4.43900
S          1.19280        0.19650        4.28990
C          1.07660        0.36100        2.56340
C          0.86080       -0.51490        1.50020
C          0.59640       -1.98490        1.30860
C         -0.62540       -2.33810        2.13860
C         -1.90090       -2.34220        1.59230
C         -3.00050       -2.61010        2.38970
C         -2.83840       -2.86380        3.74020
C         -1.56890       -2.84660        4.29290
C         -0.46900       -2.58390        3.49780
C          1.78390       -2.86940        1.64100
C          3.07170       -2.35430        1.68550
C          4.14830       -3.18280        1.95010
C          3.95070       -4.53550        2.16330
C          2.66920       -5.05700        2.10930
C          1.59220       -4.23010        1.84850
C          0.36260       -2.03930       -0.19270
C          0.49940       -0.75580       -0.77270
C          0.80110        0.15250        0.28940
S          1.04140        1.86180        0.41130
C          1.20050        1.69290        2.13130
C          1.38510        2.57750        3.19600
S          1.58500        4.27190        3.38310
C          0.30170       -0.53630       -2.13290
C         -0.05330       -1.62200       -2.89920
C         -0.37880       -1.65870       -4.38240
C          0.82870       -1.17260       -5.16180
C          1.79090       -2.06090       -5.62040
C          2.90400       -1.59730       -6.29960
C          3.07230       -0.24150       -6.51820
C          2.12120        0.65040       -6.05260
C          1.00640        0.18860       -5.37760
C         -1.63570       -0.89170       -4.75940
C         -1.90900       -0.67590       -6.10540
C         -3.07320       -0.03710       -6.48880
C         -3.97820        0.39320       -5.53280
C         -3.71400        0.17420       -4.19260
C         -2.55160       -0.47130       -3.80580
C         -0.68000       -3.12160       -4.56980
C         -0.55530       -3.80230       -3.36970
C         -0.16520       -2.91020       -2.32390
C          0.05070       -3.13240       -0.96590
S         -0.93830       -5.48780       -3.46570
C         -1.29920       -5.28190       -5.16050
C         -1.74240       -6.12960       -6.15400
C         -1.91630       -5.47140       -7.37590
S         -1.49960       -3.76330       -7.26590
C         -1.11390       -3.95190       -5.60030
C         -2.39080       -6.14310       -8.50990
C         -2.66590       -5.68530       -9.77500
C         -2.49760       -4.29810      -10.24420
O         -2.07990       -3.34680       -9.61130
C         -2.94090       -4.30650      -11.64210
C         -3.35090       -5.62980      -12.00470
C         -3.77800       -5.72360      -13.29180
S         -3.68950       -4.19560      -14.09270
C         -3.06260       -3.41140      -12.66050
Cl        -2.69140       -1.75790      -12.65160
C         -3.18560       -6.50230      -10.85620
C         -3.48800       -7.84040      -10.85820
C         -3.34850       -8.72930       -9.77560
N         -3.26310       -9.51000       -8.93680
C         -3.99430       -8.47290      -12.01230
N         -4.40730       -9.00660      -12.94060
H          2.02590        6.14510        5.25950
H         -0.50470        4.26470       10.63010
H         -0.83420        4.12660       12.96710
H         -2.14440        4.99160       13.80860
H         -2.34360        4.52880       12.09990
H          1.24030        9.92730       11.85400
H         -0.29250       10.30090       11.01920
H         -0.20250       10.37970       12.79630
H          1.10730        8.89480        9.78790
H          1.51480        2.46120        6.55630
H         -2.03920       -2.13780        0.54070
H         -3.98760       -2.61700        1.95140
H         -3.69780       -3.07070        4.36020
H         -1.43270       -3.03590        5.34710
H          0.52020       -2.57430        3.93230
H          3.23860       -1.30080        1.51480
H          5.14450       -2.76760        1.98880
H          4.79110       -5.18090        2.37030
H          2.50630       -6.11220        2.27210
H          0.59350       -4.64120        1.82010
H          0.40290        0.45210       -2.55320
H          1.67220       -3.12120       -5.45080
H          3.64160       -2.29990       -6.65850
H          3.94050        0.11910       -7.04930
H          2.24590        1.71050       -6.21730
H          0.26080        0.88850       -5.02890
H         -1.20620       -1.00710       -6.85550
H         -3.27290        0.12040       -7.53780
H         -4.88700        0.89450       -5.83110
H         -4.41610        0.50310       -3.44050
H         -2.35990       -0.64440       -2.75690
H         -0.04840       -4.12150       -0.54640
H         -1.94710       -7.17740       -6.02580
H         -2.57510       -7.19600       -8.33050
H         -4.13890       -6.57670      -13.83100
