166

C         -2.13760        5.06670       -7.25620
C         -3.40090        5.47960       -7.59660
C         -4.59590        5.43560       -6.74370
O         -4.67280        5.05990       -5.58570
C         -5.70020        5.94180       -7.57000
C         -7.03510        6.08490       -7.23200
C         -7.91530        6.57870       -8.18330
O         -9.23960        6.76980       -7.99370
C         -9.78990        6.45330       -6.73650
C         -7.43490        6.92450       -9.47820
O         -8.37600        7.39000      -10.32670
C         -7.99340        7.74960      -11.63540
C         -6.09220        6.77620       -9.79800
C         -5.21670        6.28270       -8.83890
C         -3.78390        6.01870       -8.88700
C         -2.97330        6.24670       -9.97330
C         -1.58800        6.00000      -10.04150
N         -0.46050        5.82850      -10.18790
C         -3.43230        6.77390      -11.19670
N         -3.74400        7.20220      -12.21640
C         -1.64390        4.48760       -6.08090
C         -0.30400        4.08340       -5.94140
C          0.78350        4.28430       -6.94660
C          1.35470        5.70170       -6.85530
C         -0.08880        3.49520       -4.70460
S          1.31540        2.75220       -3.97520
C          0.35340        2.35700       -2.59420
C          0.53610        1.66460       -1.37540
C         -0.66520        1.67540       -0.66820
C         -1.73350        2.42330       -1.42610
C         -0.97010        2.78780       -2.67610
C         -1.22800        3.43830       -3.87780
S         -2.60480        4.13440       -4.64250
C         -2.91070        1.49400       -1.65430
C         -3.05830        0.77560       -2.83080
C         -4.12630       -0.08860       -2.99030
C         -5.06200       -0.26290       -1.98020
C         -6.19260       -1.23820       -2.13810
C         -5.78090       -2.61860       -1.62240
C         -4.89920        0.44910       -0.79850
C         -3.83870        1.31860       -0.63560
C         -2.18150        3.71060       -0.75530
C         -1.51930        4.24050        0.34130
C         -1.94600        5.42920        0.90640
C         -3.03340        6.11710        0.38720
C         -3.46540        7.42980        0.97470
C         -2.75350        8.58850        0.27350
C         -3.68350        5.58610       -0.72030
C         -3.26700        4.39720       -1.28550
C         -0.56710        0.94740        0.51190
S         -1.65930        0.54630        1.80240
C         -0.39630       -0.36200        2.56370
C         -0.26090       -1.19440        3.70020
C          1.03110       -1.71620        3.71780
C          1.84890       -1.19320        2.56460
C          2.34310       -2.28830        1.63430
C          3.35820       -2.00450        0.72990
C          3.84790       -2.99220       -0.10320
C          3.34050       -4.28430       -0.05350
C          3.86910       -5.36300       -0.95260
C          3.02220       -5.46690       -2.22220
C          2.29920       -4.54980        0.82530
C          1.79970       -3.56500        1.65690
C          3.01540       -0.39860        3.12650
C          4.10130       -1.08710        3.65360
C          5.16820       -0.40040        4.19780
C          5.18150        0.98870        4.22850
C          6.32670        1.73200        4.85330
C          6.07370        1.94620        6.34710
C          4.08950        1.66980        3.70990
C          3.01500        0.98710        3.16780
C          0.81210       -0.34900        1.86830
C          0.71760        0.39290        0.69690
S          1.80790        0.78060       -0.59860
C          1.19550       -2.62980        4.74900
C          0.03200       -2.80460        5.51510
S         -1.27590       -1.79210        4.96600
C          0.12510       -3.79870        6.49310
C         -1.00490       -4.22120        7.37130
C         -1.69450       -5.46300        6.80210
C          1.35800       -4.43470        6.43760
S          2.43880       -3.71000        5.24560
C          1.78110       -5.53730        7.21530
C          2.70850       -6.47620        6.88320
C          3.35970       -7.29910        7.93710
O          3.01060       -7.40820        9.09260
C          4.53500       -7.89460        7.27990
C          5.54320       -8.66530        7.83520
C          6.57010       -9.11440        7.01800
O          7.60930       -9.87620        7.42420
C          7.67920      -10.24800        8.78100
C          6.57540       -8.77760        5.63360
O          7.62340       -9.26220        4.93500
C          7.69570       -8.99890        3.55170
C          5.55500       -8.00980        5.09060
C          4.52940       -7.56950        5.91610
C          3.32130       -6.81640        5.61490
C          2.74520       -6.70620        4.37330
C          1.42470       -6.26160        4.16150
N          0.33290       -5.97430        3.94910
C          3.36790       -7.11450        3.17970
N          3.83490       -7.41850        2.17460
H         -1.38370        5.18330       -8.02270
H         -7.35600        5.80720       -6.24120
H        -10.85000        6.68810       -6.81420
H         -9.66930        5.39120       -6.50150
H         -9.34200        7.05520       -5.93970
H         -8.90660        8.08740      -12.12180
H         -7.26110        8.56230      -11.63210
H         -7.58380        6.89600      -12.18360
H         -5.73900        7.04000      -10.77910
H          0.42000        4.10660       -7.95990
H          1.57850        3.56460       -6.73930
H          1.75490        5.88590       -5.86070
H          0.58360        6.44020       -7.06130
H          2.15190        5.82540       -7.58260
H         -2.34140        0.89010       -3.63040
H         -4.23300       -0.63470       -3.91680
H         -6.47140       -1.31510       -3.19090
H         -7.06280       -0.88980       -1.57810
H         -5.50850       -2.56360       -0.57090
H         -4.92230       -2.98910       -2.17800
H         -6.59890       -3.32650       -1.73350
H         -5.61310        0.32490        0.00310
H         -3.73280        1.87270        0.28600
H         -0.66770        3.72710        0.76330
H         -1.42420        5.82530        1.76610
H         -3.23010        7.45470        2.04070
H         -4.54450        7.54880        0.85950
H         -2.98430        8.58550       -0.78930
H         -1.67580        8.49550        0.38910
H         -3.06750        9.54040        0.69560
H         -4.52850        6.10750       -1.14580
H         -3.78860        3.99630       -2.14190
H          3.77700       -1.00890        0.68990
H          4.64540       -2.75670       -0.79350
H          3.84880       -6.31680       -0.42260
H          4.90280       -5.14250       -1.22640
H          3.03850       -4.52480       -2.76650
H          3.40480       -6.25070       -2.87180
H          1.98980       -5.69780       -1.96990
H          1.87940       -5.54400        0.87160
H          0.98970       -3.80650        2.32890
H          4.11180       -2.16730        3.62730
H          6.00590       -0.95160        4.60040
H          6.44910        2.70150        4.36640
H          7.25040        1.16470        4.72300
H          5.16400        2.52320        6.49780
H          5.95890        0.98960        6.85190
H          6.90430        2.48170        6.80100
H          4.07780        2.75030        3.72590
H          2.17720        1.54240        2.77290
H         -0.63480       -4.43870        8.37560
H         -1.72370       -3.40180        7.43470
H         -2.04330       -5.27060        5.79100
H         -2.54460       -5.73630        7.42170
H         -1.00060       -6.29920        6.76710
H          1.36450       -5.61920        8.21470
H          5.50090       -8.90310        8.88540
H          8.58350      -10.84670        8.87360
H          6.81400      -10.84920        9.07690
H          7.75440       -9.37260        9.43340
H          6.82490       -9.39410        3.02040
H          8.59340       -9.50800        3.20600
H          7.78620       -7.92700        3.35140
H          5.56250       -7.74810        4.04650
