
  xtb     02012216163D
 energy: -223.844653117749 gnorm: 0.000278390910 xtb: 6.4.1 (unknown)
122137  0     0  0            999 V2000
    1.7560    5.2963    5.8783 C   0  0  0  0  0  0  0  0  0  0  0  0
    1.5427    5.5559    7.2012 C   0  0  0  0  0  0  0  0  0  0  0  0
    0.9090    4.6816    8.2214 C   0  0  0  0  0  0  0  0  0  0  0  0
    0.7050    3.4853    8.1771 O   0  0  0  0  0  0  0  0  0  0  0  0
    0.5424    5.5803    9.3262 C   0  0  0  0  0  0  0  0  0  0  0  0
   -0.1690    5.2771   10.4754 C   0  0  0  0  0  0  0  0  0  0  0  0
   -0.4269    6.2889   11.3879 C   0  0  0  0  0  0  0  0  0  0  0  0
   -1.1111    6.1402   12.5418 O   0  0  0  0  0  0  0  0  0  0  0  0
   -1.6305    4.8691   12.8570 C   0  0  0  0  0  0  0  0  0  0  0  0
    0.0435    7.6102   11.1323 C   0  0  0  0  0  0  0  0  0  0  0  0
   -0.2688    8.5153   12.0816 O   0  0  0  0  0  0  0  0  0  0  0  0
    0.1506    9.8513   11.9127 C   0  0  0  0  0  0  0  0  0  0  0  0
    0.7608    7.8943    9.9788 C   0  0  0  0  0  0  0  0  0  0  0  0
    1.0121    6.8740    9.0697 C   0  0  0  0  0  0  0  0  0  0  0  0
    1.7176    6.8723    7.7990 C   0  0  0  0  0  0  0  0  0  0  0  0
    2.4763    7.9013    7.3037 C   0  0  0  0  0  0  0  0  0  0  0  0
    2.6215    9.1443    7.9527 C   0  0  0  0  0  0  0  0  0  0  0  0
    2.7673   10.1752    8.4378 N   0  0  0  0  0  0  0  0  0  0  0  0
    3.2535    7.8499    6.1275 C   0  0  0  0  0  0  0  0  0  0  0  0
    3.9282    7.8807    5.1986 N   0  0  0  0  0  0  0  0  0  0  0  0
    1.6161    4.0992    5.1432 C   0  0  0  0  0  0  0  0  0  0  0  0
    1.5110    2.7752    5.5298 C   0  0  0  0  0  0  0  0  0  0  0  0
    1.3855    1.9229    4.4390 C   0  0  0  0  0  0  0  0  0  0  0  0
    1.1928    0.1965    4.2899 S   0  0  0  0  0  0  0  0  0  0  0  0
    1.0766    0.3610    2.5634 C   0  0  0  0  0  0  0  0  0  0  0  0
    0.8608   -0.5149    1.5002 C   0  0  0  0  0  0  0  0  0  0  0  0
    0.5964   -1.9849    1.3086 C   0  0  0  0  0  0  0  0  0  0  0  0
   -0.6254   -2.3381    2.1386 C   0  0  0  0  0  0  0  0  0  0  0  0
   -1.9009   -2.3422    1.5923 C   0  0  0  0  0  0  0  0  0  0  0  0
   -3.0005   -2.6101    2.3897 C   0  0  0  0  0  0  0  0  0  0  0  0
   -2.8384   -2.8638    3.7402 C   0  0  0  0  0  0  0  0  0  0  0  0
   -1.5689   -2.8466    4.2929 C   0  0  0  0  0  0  0  0  0  0  0  0
   -0.4690   -2.5839    3.4978 C   0  0  0  0  0  0  0  0  0  0  0  0
    1.7839   -2.8694    1.6410 C   0  0  0  0  0  0  0  0  0  0  0  0
    3.0717   -2.3543    1.6855 C   0  0  0  0  0  0  0  0  0  0  0  0
    4.1483   -3.1828    1.9501 C   0  0  0  0  0  0  0  0  0  0  0  0
    3.9507   -4.5355    2.1633 C   0  0  0  0  0  0  0  0  0  0  0  0
    2.6692   -5.0570    2.1093 C   0  0  0  0  0  0  0  0  0  0  0  0
    1.5922   -4.2301    1.8485 C   0  0  0  0  0  0  0  0  0  0  0  0
    0.3626   -2.0393   -0.1927 C   0  0  0  0  0  0  0  0  0  0  0  0
    0.4994   -0.7558   -0.7727 C   0  0  0  0  0  0  0  0  0  0  0  0
    0.8011    0.1525    0.2894 C   0  0  0  0  0  0  0  0  0  0  0  0
    1.0414    1.8618    0.4113 S   0  0  0  0  0  0  0  0  0  0  0  0
    1.2005    1.6929    2.1313 C   0  0  0  0  0  0  0  0  0  0  0  0
    1.3851    2.5775    3.1960 C   0  0  0  0  0  0  0  0  0  0  0  0
    1.5850    4.2719    3.3831 S   0  0  0  0  0  0  0  0  0  0  0  0
    0.3017   -0.5363   -2.1329 C   0  0  0  0  0  0  0  0  0  0  0  0
   -0.0533   -1.6220   -2.8992 C   0  0  0  0  0  0  0  0  0  0  0  0
   -0.3788   -1.6587   -4.3824 C   0  0  0  0  0  0  0  0  0  0  0  0
    0.8287   -1.1726   -5.1618 C   0  0  0  0  0  0  0  0  0  0  0  0
    1.7909   -2.0609   -5.6204 C   0  0  0  0  0  0  0  0  0  0  0  0
    2.9040   -1.5973   -6.2996 C   0  0  0  0  0  0  0  0  0  0  0  0
    3.0723   -0.2415   -6.5182 C   0  0  0  0  0  0  0  0  0  0  0  0
    2.1212    0.6504   -6.0526 C   0  0  0  0  0  0  0  0  0  0  0  0
    1.0064    0.1886   -5.3776 C   0  0  0  0  0  0  0  0  0  0  0  0
   -1.6357   -0.8917   -4.7594 C   0  0  0  0  0  0  0  0  0  0  0  0
   -1.9090   -0.6759   -6.1054 C   0  0  0  0  0  0  0  0  0  0  0  0
   -3.0732   -0.0371   -6.4888 C   0  0  0  0  0  0  0  0  0  0  0  0
   -3.9782    0.3932   -5.5328 C   0  0  0  0  0  0  0  0  0  0  0  0
   -3.7140    0.1742   -4.1926 C   0  0  0  0  0  0  0  0  0  0  0  0
   -2.5516   -0.4713   -3.8058 C   0  0  0  0  0  0  0  0  0  0  0  0
   -0.6800   -3.1216   -4.5698 C   0  0  0  0  0  0  0  0  0  0  0  0
   -0.5553   -3.8023   -3.3697 C   0  0  0  0  0  0  0  0  0  0  0  0
   -0.1652   -2.9102   -2.3239 C   0  0  0  0  0  0  0  0  0  0  0  0
    0.0507   -3.1324   -0.9659 C   0  0  0  0  0  0  0  0  0  0  0  0
   -0.9383   -5.4878   -3.4657 S   0  0  0  0  0  0  0  0  0  0  0  0
   -1.2992   -5.2819   -5.1605 C   0  0  0  0  0  0  0  0  0  0  0  0
   -1.7424   -6.1296   -6.1540 C   0  0  0  0  0  0  0  0  0  0  0  0
   -1.9163   -5.4714   -7.3759 C   0  0  0  0  0  0  0  0  0  0  0  0
   -1.4996   -3.7633   -7.2659 S   0  0  0  0  0  0  0  0  0  0  0  0
   -1.1139   -3.9519   -5.6003 C   0  0  0  0  0  0  0  0  0  0  0  0
   -2.3908   -6.1431   -8.5099 C   0  0  0  0  0  0  0  0  0  0  0  0
   -2.6659   -5.6853   -9.7750 C   0  0  0  0  0  0  0  0  0  0  0  0
   -2.4976   -4.2981  -10.2442 C   0  0  0  0  0  0  0  0  0  0  0  0
   -2.0799   -3.3468   -9.6113 O   0  0  0  0  0  0  0  0  0  0  0  0
   -2.9409   -4.3065  -11.6421 C   0  0  0  0  0  0  0  0  0  0  0  0
   -3.3509   -5.6298  -12.0047 C   0  0  0  0  0  0  0  0  0  0  0  0
   -3.7780   -5.7236  -13.2918 C   0  0  0  0  0  0  0  0  0  0  0  0
   -3.6895   -4.1956  -14.0927 S   0  0  0  0  0  0  0  0  0  0  0  0
   -3.0626   -3.4114  -12.6605 C   0  0  0  0  0  0  0  0  0  0  0  0
   -2.6914   -1.7579  -12.6516 Cl  0  0  0  0  0  0  0  0  0  0  0  0
   -3.1856   -6.5023  -10.8562 C   0  0  0  0  0  0  0  0  0  0  0  0
   -3.4880   -7.8404  -10.8582 C   0  0  0  0  0  0  0  0  0  0  0  0
   -3.3485   -8.7293   -9.7756 C   0  0  0  0  0  0  0  0  0  0  0  0
   -3.2631   -9.5100   -8.9368 N   0  0  0  0  0  0  0  0  0  0  0  0
   -3.9943   -8.4729  -12.0123 C   0  0  0  0  0  0  0  0  0  0  0  0
   -4.4073   -9.0066  -12.9406 N   0  0  0  0  0  0  0  0  0  0  0  0
    2.0259    6.1451    5.2595 H   0  0  0  0  0  0  0  0  0  0  0  0
   -0.5047    4.2647   10.6301 H   0  0  0  0  0  0  0  0  0  0  0  0
   -0.8342    4.1266   12.9671 H   0  0  0  0  0  0  0  0  0  0  0  0
   -2.1444    4.9916   13.8086 H   0  0  0  0  0  0  0  0  0  0  0  0
   -2.3436    4.5288   12.0999 H   0  0  0  0  0  0  0  0  0  0  0  0
    1.2403    9.9273   11.8540 H   0  0  0  0  0  0  0  0  0  0  0  0
   -0.2925   10.3009   11.0192 H   0  0  0  0  0  0  0  0  0  0  0  0
   -0.2025   10.3797   12.7963 H   0  0  0  0  0  0  0  0  0  0  0  0
    1.1073    8.8948    9.7879 H   0  0  0  0  0  0  0  0  0  0  0  0
    1.5148    2.4612    6.5563 H   0  0  0  0  0  0  0  0  0  0  0  0
   -2.0392   -2.1378    0.5407 H   0  0  0  0  0  0  0  0  0  0  0  0
   -3.9876   -2.6170    1.9514 H   0  0  0  0  0  0  0  0  0  0  0  0
   -3.6978   -3.0707    4.3602 H   0  0  0  0  0  0  0  0  0  0  0  0
   -1.4327   -3.0359    5.3471 H   0  0  0  0  0  0  0  0  0  0  0  0
    0.5202   -2.5743    3.9323 H   0  0  0  0  0  0  0  0  0  0  0  0
    3.2386   -1.3008    1.5148 H   0  0  0  0  0  0  0  0  0  0  0  0
    5.1445   -2.7676    1.9888 H   0  0  0  0  0  0  0  0  0  0  0  0
    4.7911   -5.1809    2.3703 H   0  0  0  0  0  0  0  0  0  0  0  0
    2.5063   -6.1122    2.2721 H   0  0  0  0  0  0  0  0  0  0  0  0
    0.5935   -4.6412    1.8201 H   0  0  0  0  0  0  0  0  0  0  0  0
    0.4029    0.4521   -2.5532 H   0  0  0  0  0  0  0  0  0  0  0  0
    1.6722   -3.1212   -5.4508 H   0  0  0  0  0  0  0  0  0  0  0  0
    3.6416   -2.2999   -6.6585 H   0  0  0  0  0  0  0  0  0  0  0  0
    3.9405    0.1191   -7.0493 H   0  0  0  0  0  0  0  0  0  0  0  0
    2.2459    1.7105   -6.2173 H   0  0  0  0  0  0  0  0  0  0  0  0
    0.2608    0.8885   -5.0289 H   0  0  0  0  0  0  0  0  0  0  0  0
   -1.2062   -1.0071   -6.8555 H   0  0  0  0  0  0  0  0  0  0  0  0
   -3.2729    0.1204   -7.5378 H   0  0  0  0  0  0  0  0  0  0  0  0
   -4.8870    0.8945   -5.8311 H   0  0  0  0  0  0  0  0  0  0  0  0
   -4.4161    0.5031   -3.4405 H   0  0  0  0  0  0  0  0  0  0  0  0
   -2.3599   -0.6444   -2.7569 H   0  0  0  0  0  0  0  0  0  0  0  0
   -0.0484   -4.1215   -0.5464 H   0  0  0  0  0  0  0  0  0  0  0  0
   -1.9471   -7.1774   -6.0258 H   0  0  0  0  0  0  0  0  0  0  0  0
   -2.5751   -7.1960   -8.3305 H   0  0  0  0  0  0  0  0  0  0  0  0
   -4.1389   -6.5767  -13.8310 H   0  0  0  0  0  0  0  0  0  0  0  0
  1  2  2  0  0  0  0
  2  3  1  0  0  0  0
  3  4  2  0  0  0  0
  3  5  1  0  0  0  0
  5  6  2  0  0  0  0
  6  7  1  0  0  0  0
  7  8  1  0  0  0  0
  8  9  1  0  0  0  0
  7 10  2  0  0  0  0
 10 11  1  0  0  0  0
 11 12  1  0  0  0  0
 10 13  1  0  0  0  0
 13 14  2  0  0  0  0
 14 15  1  0  0  0  0
 15 16  2  0  0  0  0
 16 17  1  0  0  0  0
 17 18  3  0  0  0  0
 16 19  1  0  0  0  0
 19 20  3  0  0  0  0
  1 21  1  0  0  0  0
 21 22  2  0  0  0  0
 22 23  1  0  0  0  0
 23 24  1  0  0  0  0
 24 25  1  0  0  0  0
 25 26  1  0  0  0  0
 26 27  1  0  0  0  0
 27 28  1  0  0  0  0
 28 29  2  0  0  0  0
 29 30  1  0  0  0  0
 30 31  2  0  0  0  0
 31 32  1  0  0  0  0
 32 33  2  0  0  0  0
 27 34  1  0  0  0  0
 34 35  2  0  0  0  0
 35 36  1  0  0  0  0
 36 37  2  0  0  0  0
 37 38  1  0  0  0  0
 38 39  2  0  0  0  0
 27 40  1  0  0  0  0
 40 41  2  0  0  0  0
 41 42  1  0  0  0  0
 42 43  1  0  0  0  0
 43 44  1  0  0  0  0
 44 45  1  0  0  0  0
 45 46  1  0  0  0  0
 41 47  1  0  0  0  0
 47 48  2  0  0  0  0
 48 49  1  0  0  0  0
 49 50  1  0  0  0  0
 50 51  2  0  0  0  0
 51 52  1  0  0  0  0
 52 53  2  0  0  0  0
 53 54  1  0  0  0  0
 54 55  2  0  0  0  0
 49 56  1  0  0  0  0
 56 57  2  0  0  0  0
 57 58  1  0  0  0  0
 58 59  2  0  0  0  0
 59 60  1  0  0  0  0
 60 61  2  0  0  0  0
 49 62  1  0  0  0  0
 62 63  2  0  0  0  0
 63 64  1  0  0  0  0
 64 65  2  0  0  0  0
 63 66  1  0  0  0  0
 66 67  1  0  0  0  0
 67 68  1  0  0  0  0
 68 69  2  0  0  0  0
 69 70  1  0  0  0  0
 70 71  1  0  0  0  0
 69 72  1  0  0  0  0
 72 73  2  0  0  0  0
 73 74  1  0  0  0  0
 74 75  2  0  0  0  0
 74 76  1  0  0  0  0
 76 77  1  0  0  0  0
 77 78  2  0  0  0  0
 78 79  1  0  0  0  0
 79 80  1  0  0  0  0
 80 81  1  0  0  0  0
 77 82  1  0  0  0  0
 82 83  2  0  0  0  0
 83 84  1  0  0  0  0
 84 85  3  0  0  0  0
 83 86  1  0  0  0  0
 86 87  3  0  0  0  0
 15  2  1  0  0  0  0
 46 21  1  0  0  0  0
 64 48  1  0  0  0  0
 71 67  2  0  0  0  0
 82 73  1  0  0  0  0
 14  5  1  0  0  0  0
 45 23  2  0  0  0  0
 55 50  1  0  0  0  0
 61 56  1  0  0  0  0
 71 62  1  0  0  0  0
 80 76  2  0  0  0  0
 44 25  2  0  0  0  0
 42 26  2  0  0  0  0
 33 28  1  0  0  0  0
 39 34  1  0  0  0  0
 65 40  1  0  0  0  0
  1 88  1  0  0  0  0
  6 89  1  0  0  0  0
  9 90  1  0  0  0  0
  9 91  1  0  0  0  0
  9 92  1  0  0  0  0
 12 93  1  0  0  0  0
 12 94  1  0  0  0  0
 12 95  1  0  0  0  0
 13 96  1  0  0  0  0
 22 97  1  0  0  0  0
 29 98  1  0  0  0  0
 30 99  1  0  0  0  0
 31100  1  0  0  0  0
 32101  1  0  0  0  0
 33102  1  0  0  0  0
 35103  1  0  0  0  0
 36104  1  0  0  0  0
 37105  1  0  0  0  0
 38106  1  0  0  0  0
 39107  1  0  0  0  0
 47108  1  0  0  0  0
 51109  1  0  0  0  0
 52110  1  0  0  0  0
 53111  1  0  0  0  0
 54112  1  0  0  0  0
 55113  1  0  0  0  0
 57114  1  0  0  0  0
 58115  1  0  0  0  0
 59116  1  0  0  0  0
 60117  1  0  0  0  0
 61118  1  0  0  0  0
 65119  1  0  0  0  0
 68120  1  0  0  0  0
 72121  1  0  0  0  0
 78122  1  0  0  0  0
M  END
