147

C         -1.76490        2.79280        7.72450
C         -2.66310        1.92620        8.29210
C         -3.18070        0.68920        7.69470
O         -2.87200        0.19400        6.62250
C         -4.15450        0.15330        8.65410
C         -4.93440       -0.98590        8.54810
C         -5.79860       -1.30240        9.58550
O         -6.61860       -2.37560        9.61590
C         -6.62000       -3.25160        8.51290
C         -5.86470       -0.46030       10.73210
O         -6.73590       -0.86180       11.68090
C         -6.86830       -0.08990       12.85370
C         -5.07460        0.67770       10.82080
C         -4.21420        0.98960        9.77580
C         -3.28810        2.09950        9.59000
C         -3.06200        3.10430       10.49900
C         -3.70990        3.19170       11.74760
N         -4.20390        3.31640       12.77730
C         -2.16460        4.17910       10.34070
N         -1.45980        5.08620       10.29250
C         -1.10190        2.75430        6.49140
C         -0.24030        3.77570        6.05850
C          0.05610        5.04200        6.79380
C         -1.03490        6.08560        6.53890
C          0.27680        3.50120        4.79860
S          1.36150        4.39150        3.74610
C          1.22180        3.12250        2.58230
C          1.70730        2.80100        1.30400
C          2.66240        3.43970        0.47360
N          3.18360        4.61970        0.79600
C          4.13360        5.13200        0.03060
C          4.52360        6.47980        0.36770
S          4.33490        6.98160        2.01940
C          4.85560        8.58810        1.65280
C          4.95890        9.64780        2.69520
C          3.62060        9.88300        3.39480
C          5.11910        8.69190        0.31610
C          4.93660        7.51350       -0.42780
F          5.53220        9.84050       -0.25350
C          4.67860        4.37200       -1.04630
C          5.89300        4.69520       -1.76190
C          6.20290        4.27220       -3.02610
C          7.49820        4.66480       -3.40540
F          8.01060        4.38350       -4.61710
C          8.19860        5.35790       -2.46010
C          9.59220        5.87710       -2.53800
C         10.53720        5.07240       -1.64370
S          7.22770        5.54550       -1.04060
N          4.09260        3.24780       -1.42850
C          3.06050        2.78800       -0.72630
C          2.34090        1.63580       -1.13550
C          2.39190        0.87640       -2.31580
S          3.30650        0.80350       -3.78040
C          2.30300       -0.53590       -4.30580
C          2.31140       -1.31950       -5.45180
C          3.24920       -1.07760       -6.58910
C          2.58360       -0.21920       -7.66850
C          1.30440       -2.29980       -5.40830
S          0.35640       -2.21820       -3.92100
C          1.30790       -0.88840       -3.37810
C          1.36570       -0.07560       -2.24380
N          0.69080        0.05050       -1.05330
C         -0.68730       -0.38470       -0.94510
C         -1.56520        0.29440       -1.99570
C          1.29770        1.07200       -0.35160
C          1.09690        1.56750        0.95090
N          0.32620        1.11410        2.00230
C          0.38970        2.06990        2.98810
C         -0.15500        2.27870        4.25750
S         -1.24120        1.45140        5.30960
C          0.03650       -0.26660        2.33470
C          0.99750       -0.79230        3.40050
C          1.10920       -3.23180       -6.43340
C          0.20950       -4.26130       -6.55700
C         -0.81550       -4.64050       -5.58190
O         -1.07020       -4.09640       -4.51950
C         -1.49250       -5.82750       -6.13010
C         -2.52210       -6.55450       -5.53670
C         -2.94830       -7.62840       -6.28060
C         -2.38970       -7.95590       -7.52290
C         -1.37260       -7.24780       -8.11820
C         -0.92470       -6.14870       -7.37920
C          0.13050       -5.17970       -7.67530
C          0.89100       -5.16570       -8.81780
C          1.91240       -4.24200       -9.12080
N          2.75370       -3.53160       -9.45120
C          0.75640       -6.08410       -9.87980
N          0.71310       -6.79400      -10.78160
C         -3.29660       -9.14710       -7.70710
C         -4.48490       -8.96710       -8.67520
C         -5.43470      -10.07890       -8.29180
C         -5.96430       -9.76940       -7.11520
C         -5.38160       -8.44290       -6.68360
C         -5.21490       -7.77010       -8.05220
C         -3.91990       -8.78180       -6.32170
H         -1.52210        3.66940        8.30900
H         -4.85140       -1.59630        7.66360
H         -5.63860       -3.71290        8.36580
H         -7.34940       -4.02280        8.75370
H         -6.92290       -2.73900        7.59470
H         -7.21810        0.92270       12.63170
H         -7.61280       -0.60550       13.45740
H         -5.92640       -0.03390       13.40730
H         -5.13320        1.30880       11.68980
H          1.01070        5.42950        6.43230
H          0.14330        4.86390        7.86660
H         -0.79840        7.00330        7.06970
H         -2.00040        5.72560        6.88650
H         -1.10740        6.30420        5.47600
H          5.70450        9.35230        3.43890
H          5.30030       10.56850        2.21760
H          3.72420       10.65610        4.15180
H          3.28130        8.96710        3.87280
H          2.86710       10.19850        2.67700
H          5.07940        7.45650       -1.49090
H          5.52920        3.71360       -3.64760
H          9.60930        6.92520       -2.22880
H          9.92420        5.81650       -3.57660
H         10.54850        4.02830       -1.94730
H         11.54720        5.46670       -1.71690
H         10.21370        5.12930       -0.60680
H          4.12370       -0.55000       -6.20330
H          3.58440       -2.01710       -7.03080
H          1.70850       -0.72110       -8.07450
H          3.28360       -0.04050       -8.47950
H          2.27530        0.73780       -7.25410
H         -0.72260       -1.47000       -1.08100
H         -1.06850       -0.12350        0.03990
H         -2.59860       -0.00730       -1.85160
H         -1.26220        0.01090       -2.99920
H         -1.49880        1.37620       -1.89940
H          0.15010       -0.87800        1.44130
H         -0.99230       -0.33210        2.70230
H          2.02720       -0.68070        3.06710
H          0.87120       -0.25810        4.33750
H          0.79880       -1.84560        3.57680
H          1.80190       -3.11010       -7.25460
H         -2.91820       -6.26950       -4.57450
H         -0.95120       -7.51980       -9.07120
H         -2.79950      -10.10900       -7.81770
H         -4.21070       -8.89690       -9.72420
H         -5.57620      -10.97300       -8.87010
H         -6.63650      -10.35350       -6.51430
H         -5.92550       -7.89540       -5.91850
H         -6.17150       -7.57530       -8.53420
H         -4.62630       -6.85490       -8.02820
H         -3.83830       -9.50070       -5.50840
