
  xtb     02102221503D
 energy: -199.479861427570 gnorm: 0.000530157557 xtb: 6.4.1 (unknown)
116129  0     0  0            999 V2000
   -2.6689   -6.1485   -2.8495 C   0  0  0  0  0  0  0  0  0  0  0  0
   -3.0771   -6.5219   -4.1009 C   0  0  0  0  0  0  0  0  0  0  0  0
   -3.3101   -5.5867   -5.2305 C   0  0  0  0  0  0  0  0  0  0  0  0
   -3.0727   -4.3960   -5.2743 O   0  0  0  0  0  0  0  0  0  0  0  0
   -4.0005   -6.3844   -6.2570 C   0  0  0  0  0  0  0  0  0  0  0  0
   -4.4537   -5.9741   -7.4993 C   0  0  0  0  0  0  0  0  0  0  0  0
   -5.0882   -6.8968   -8.3176 C   0  0  0  0  0  0  0  0  0  0  0  0
   -5.5704   -6.6388   -9.5533 O   0  0  0  0  0  0  0  0  0  0  0  0
   -5.4389   -5.3336  -10.0662 C   0  0  0  0  0  0  0  0  0  0  0  0
   -5.2677   -8.2359   -7.8674 C   0  0  0  0  0  0  0  0  0  0  0  0
   -5.8983   -9.0484   -8.7420 O   0  0  0  0  0  0  0  0  0  0  0  0
   -6.1129  -10.3953   -8.3845 C   0  0  0  0  0  0  0  0  0  0  0  0
   -4.8129   -8.6281   -6.6162 C   0  0  0  0  0  0  0  0  0  0  0  0
   -4.1748   -7.6979   -5.8051 C   0  0  0  0  0  0  0  0  0  0  0  0
   -3.5980   -7.8204   -4.4745 C   0  0  0  0  0  0  0  0  0  0  0  0
   -3.4992   -8.9789   -3.7429 C   0  0  0  0  0  0  0  0  0  0  0  0
   -4.0202  -10.2178   -4.1630 C   0  0  0  0  0  0  0  0  0  0  0  0
   -4.4304  -11.2501   -4.4570 N   0  0  0  0  0  0  0  0  0  0  0  0
   -2.8465   -9.0931   -2.4995 C   0  0  0  0  0  0  0  0  0  0  0  0
   -2.3158   -9.2683   -1.4953 N   0  0  0  0  0  0  0  0  0  0  0  0
   -2.0472   -4.9368   -2.4672 C   0  0  0  0  0  0  0  0  0  0  0  0
   -2.2887   -4.2846   -1.2420 C   0  0  0  0  0  0  0  0  0  0  0  0
   -1.5696   -3.1010   -1.2969 C   0  0  0  0  0  0  0  0  0  0  0  0
   -0.8745   -3.0783   -2.5230 C   0  0  0  0  0  0  0  0  0  0  0  0
   -1.1712   -4.1891   -3.2311 N   0  0  0  0  0  0  0  0  0  0  0  0
   -0.3831   -4.6481   -4.3487 C   0  0  0  0  0  0  0  0  0  0  0  0
    1.0406   -4.9750   -3.9041 C   0  0  0  0  0  0  0  0  0  0  0  0
   -0.1554   -1.8712   -2.5664 C   0  0  0  0  0  0  0  0  0  0  0  0
    0.6040   -1.2715   -3.5949 C   0  0  0  0  0  0  0  0  0  0  0  0
    1.1227    0.0508   -3.3964 C   0  0  0  0  0  0  0  0  0  0  0  0
    1.7662    0.5114   -4.4570 N   0  0  0  0  0  0  0  0  0  0  0  0
    1.7292   -0.6218   -5.6118 S   0  0  0  0  0  0  0  0  0  0  0  0
    0.8893   -1.7456   -4.7991 N   0  0  0  0  0  0  0  0  0  0  0  0
    0.9529    0.6660   -2.1379 C   0  0  0  0  0  0  0  0  0  0  0  0
    1.4600    1.8680   -1.6319 C   0  0  0  0  0  0  0  0  0  0  0  0
    2.3924    3.2213   -2.1691 S   0  0  0  0  0  0  0  0  0  0  0  0
    2.3218    3.8711   -0.5413 C   0  0  0  0  0  0  0  0  0  0  0  0
    2.8555    5.0196    0.0257 C   0  0  0  0  0  0  0  0  0  0  0  0
    3.6079    6.0371   -0.7681 C   0  0  0  0  0  0  0  0  0  0  0  0
    2.6807    7.1695   -1.2177 C   0  0  0  0  0  0  0  0  0  0  0  0
    2.5466    5.1071    1.3943 C   0  0  0  0  0  0  0  0  0  0  0  0
    1.5851    3.7339    1.9476 S   0  0  0  0  0  0  0  0  0  0  0  0
    1.6020    3.0651    0.3580 C   0  0  0  0  0  0  0  0  0  0  0  0
    1.1040    1.9247   -0.2788 C   0  0  0  0  0  0  0  0  0  0  0  0
    0.3666    0.8204    0.0559 N   0  0  0  0  0  0  0  0  0  0  0  0
    0.2477    0.0282   -1.0729 C   0  0  0  0  0  0  0  0  0  0  0  0
   -0.4119   -1.2013   -1.3312 C   0  0  0  0  0  0  0  0  0  0  0  0
   -1.2891   -1.9686   -0.5724 N   0  0  0  0  0  0  0  0  0  0  0  0
   -2.1918   -1.5649    0.4829 C   0  0  0  0  0  0  0  0  0  0  0  0
   -3.0317   -0.3548    0.0808 C   0  0  0  0  0  0  0  0  0  0  0  0
    0.1549    0.5017    1.4504 C   0  0  0  0  0  0  0  0  0  0  0  0
    0.9586   -0.7242    1.8751 C   0  0  0  0  0  0  0  0  0  0  0  0
    2.9700    6.1678    2.2005 C   0  0  0  0  0  0  0  0  0  0  0  0
    2.7836    6.4148    3.5385 C   0  0  0  0  0  0  0  0  0  0  0  0
    2.0659    5.5606    4.4866 C   0  0  0  0  0  0  0  0  0  0  0  0
    1.4963    4.5059    4.2553 O   0  0  0  0  0  0  0  0  0  0  0  0
    2.1668    6.2203    5.7994 C   0  0  0  0  0  0  0  0  0  0  0  0
    1.6429    5.7685    7.0086 C   0  0  0  0  0  0  0  0  0  0  0  0
    1.9016    6.5972    8.0740 C   0  0  0  0  0  0  0  0  0  0  0  0
    2.6225    7.7912    7.9444 C   0  0  0  0  0  0  0  0  0  0  0  0
    3.1420    8.2496    6.7569 C   0  0  0  0  0  0  0  0  0  0  0  0
    2.8967    7.4178    5.6604 C   0  0  0  0  0  0  0  0  0  0  0  0
    3.2904    7.5644    4.2591 C   0  0  0  0  0  0  0  0  0  0  0  0
    4.0111    8.6151    3.7479 C   0  0  0  0  0  0  0  0  0  0  0  0
    4.4825    9.7070    4.5060 C   0  0  0  0  0  0  0  0  0  0  0  0
    4.9034   10.6261    5.0512 N   0  0  0  0  0  0  0  0  0  0  0  0
    4.3953    8.7783    2.4011 C   0  0  0  0  0  0  0  0  0  0  0  0
    4.7467    8.9947    1.3280 N   0  0  0  0  0  0  0  0  0  0  0  0
    2.5080    8.1143    9.4134 C   0  0  0  0  0  0  0  0  0  0  0  0
    3.7619    7.8559   10.2751 C   0  0  0  0  0  0  0  0  0  0  0  0
    3.2244    7.7941   11.6866 C   0  0  0  0  0  0  0  0  0  0  0  0
    2.5442    6.6615   11.8100 C   0  0  0  0  0  0  0  0  0  0  0  0
    2.6104    5.9389   10.4838 C   0  0  0  0  0  0  0  0  0  0  0  0
    4.0105    6.3633   10.0219 C   0  0  0  0  0  0  0  0  0  0  0  0
    1.7062    6.7811    9.5587 C   0  0  0  0  0  0  0  0  0  0  0  0
   -2.9034   -6.8072   -2.0217 H   0  0  0  0  0  0  0  0  0  0  0  0
   -4.2963   -4.9513   -7.8007 H   0  0  0  0  0  0  0  0  0  0  0  0
   -5.9629   -4.6029   -9.4425 H   0  0  0  0  0  0  0  0  0  0  0  0
   -4.3878   -5.0439  -10.1607 H   0  0  0  0  0  0  0  0  0  0  0  0
   -5.8964   -5.3604  -11.0535 H   0  0  0  0  0  0  0  0  0  0  0  0
   -6.7486  -10.4801   -7.4980 H   0  0  0  0  0  0  0  0  0  0  0  0
   -6.6194  -10.8443   -9.2368 H   0  0  0  0  0  0  0  0  0  0  0  0
   -5.1696  -10.9193   -8.2044 H   0  0  0  0  0  0  0  0  0  0  0  0
   -4.9588   -9.6391   -6.2785 H   0  0  0  0  0  0  0  0  0  0  0  0
   -2.9503   -4.6440   -0.4786 H   0  0  0  0  0  0  0  0  0  0  0  0
   -0.3646   -3.8575   -5.1017 H   0  0  0  0  0  0  0  0  0  0  0  0
   -0.8472   -5.5382   -4.7699 H   0  0  0  0  0  0  0  0  0  0  0  0
    1.6073   -5.3585   -4.7475 H   0  0  0  0  0  0  0  0  0  0  0  0
    1.5351   -4.0813   -3.5348 H   0  0  0  0  0  0  0  0  0  0  0  0
    1.0316   -5.7266   -3.1168 H   0  0  0  0  0  0  0  0  0  0  0  0
    4.4347    6.4542   -0.1915 H   0  0  0  0  0  0  0  0  0  0  0  0
    4.0207    5.5432   -1.6501 H   0  0  0  0  0  0  0  0  0  0  0  0
    1.8686    6.7751   -1.8242 H   0  0  0  0  0  0  0  0  0  0  0  0
    3.2399    7.8906   -1.8068 H   0  0  0  0  0  0  0  0  0  0  0  0
    2.2560    7.6836   -0.3588 H   0  0  0  0  0  0  0  0  0  0  0  0
   -2.8513   -2.4181    0.6567 H   0  0  0  0  0  0  0  0  0  0  0  0
   -1.6502   -1.3839    1.4126 H   0  0  0  0  0  0  0  0  0  0  0  0
   -3.7075   -0.0863    0.8886 H   0  0  0  0  0  0  0  0  0  0  0  0
   -2.4040    0.5022   -0.1507 H   0  0  0  0  0  0  0  0  0  0  0  0
   -3.6213   -0.5912   -0.8021 H   0  0  0  0  0  0  0  0  0  0  0  0
   -0.9084    0.3771    1.6582 H   0  0  0  0  0  0  0  0  0  0  0  0
    0.4935    1.3695    2.0216 H   0  0  0  0  0  0  0  0  0  0  0  0
    0.6920   -1.5972    1.2841 H   0  0  0  0  0  0  0  0  0  0  0  0
    0.7757   -0.9389    2.9244 H   0  0  0  0  0  0  0  0  0  0  0  0
    2.0211   -0.5345    1.7419 H   0  0  0  0  0  0  0  0  0  0  0  0
    3.5451    6.9074    1.6609 H   0  0  0  0  0  0  0  0  0  0  0  0
    1.0879    4.8449    7.0612 H   0  0  0  0  0  0  0  0  0  0  0  0
    3.6912    9.1724    6.6764 H   0  0  0  0  0  0  0  0  0  0  0  0
    2.0100    9.0510    9.6560 H   0  0  0  0  0  0  0  0  0  0  0  0
    4.5869    8.5396   10.0945 H   0  0  0  0  0  0  0  0  0  0  0  0
    3.3433    8.5803   12.4088 H   0  0  0  0  0  0  0  0  0  0  0  0
    1.9811    6.3128   12.6558 H   0  0  0  0  0  0  0  0  0  0  0  0
    2.3872    4.8753   10.4945 H   0  0  0  0  0  0  0  0  0  0  0  0
    4.7942    5.9622   10.6624 H   0  0  0  0  0  0  0  0  0  0  0  0
    4.2286    6.1196    8.9838 H   0  0  0  0  0  0  0  0  0  0  0  0
    0.6739    6.8286    9.9008 H   0  0  0  0  0  0  0  0  0  0  0  0
  1  2  2  0  0  0  0
  2  3  1  0  0  0  0
  3  4  2  0  0  0  0
  3  5  1  0  0  0  0
  5  6  2  0  0  0  0
  6  7  1  0  0  0  0
  7  8  1  0  0  0  0
  8  9  1  0  0  0  0
  7 10  2  0  0  0  0
 10 11  1  0  0  0  0
 11 12  1  0  0  0  0
 10 13  1  0  0  0  0
 13 14  2  0  0  0  0
 14 15  1  0  0  0  0
 15 16  2  0  0  0  0
 16 17  1  0  0  0  0
 17 18  3  0  0  0  0
 16 19  1  0  0  0  0
 19 20  3  0  0  0  0
  1 21  1  0  0  0  0
 21 22  2  0  0  0  0
 22 23  1  0  0  0  0
 23 24  2  0  0  0  0
 24 25  1  0  0  0  0
 25 26  1  0  0  0  0
 26 27  1  0  0  0  0
 24 28  1  0  0  0  0
 28 29  1  0  0  0  0
 29 30  1  0  0  0  0
 30 31  2  0  0  0  0
 31 32  1  0  0  0  0
 32 33  1  0  0  0  0
 30 34  1  0  0  0  0
 34 35  1  0  0  0  0
 35 36  1  0  0  0  0
 36 37  1  0  0  0  0
 37 38  1  0  0  0  0
 38 39  1  0  0  0  0
 39 40  1  0  0  0  0
 38 41  2  0  0  0  0
 41 42  1  0  0  0  0
 42 43  1  0  0  0  0
 43 44  1  0  0  0  0
 44 45  1  0  0  0  0
 45 46  1  0  0  0  0
 46 47  1  0  0  0  0
 47 48  1  0  0  0  0
 48 49  1  0  0  0  0
 49 50  1  0  0  0  0
 45 51  1  0  0  0  0
 51 52  1  0  0  0  0
 41 53  1  0  0  0  0
 53 54  2  0  0  0  0
 54 55  1  0  0  0  0
 55 56  2  0  0  0  0
 55 57  1  0  0  0  0
 57 58  2  0  0  0  0
 58 59  1  0  0  0  0
 59 60  2  0  0  0  0
 60 61  1  0  0  0  0
 61 62  2  0  0  0  0
 62 63  1  0  0  0  0
 63 64  2  0  0  0  0
 64 65  1  0  0  0  0
 65 66  3  0  0  0  0
 64 67  1  0  0  0  0
 67 68  3  0  0  0  0
 60 69  1  0  0  0  0
 69 70  1  0  0  0  0
 70 71  1  0  0  0  0
 71 72  2  0  0  0  0
 72 73  1  0  0  0  0
 73 74  1  0  0  0  0
 73 75  1  0  0  0  0
 15  2  1  0  0  0  0
 25 21  1  0  0  0  0
 47 28  2  0  0  0  0
 63 54  1  0  0  0  0
 75 69  1  0  0  0  0
 14  5  1  0  0  0  0
 48 23  1  0  0  0  0
 62 57  1  0  0  0  0
 74 70  1  0  0  0  0
 33 29  2  0  0  0  0
 46 34  2  0  0  0  0
 75 59  1  0  0  0  0
 44 35  2  0  0  0  0
 43 37  2  0  0  0  0
  1 76  1  0  0  0  0
  6 77  1  0  0  0  0
  9 78  1  0  0  0  0
  9 79  1  0  0  0  0
  9 80  1  0  0  0  0
 12 81  1  0  0  0  0
 12 82  1  0  0  0  0
 12 83  1  0  0  0  0
 13 84  1  0  0  0  0
 22 85  1  0  0  0  0
 26 86  1  0  0  0  0
 26 87  1  0  0  0  0
 27 88  1  0  0  0  0
 27 89  1  0  0  0  0
 27 90  1  0  0  0  0
 39 91  1  0  0  0  0
 39 92  1  0  0  0  0
 40 93  1  0  0  0  0
 40 94  1  0  0  0  0
 40 95  1  0  0  0  0
 49 96  1  0  0  0  0
 49 97  1  0  0  0  0
 50 98  1  0  0  0  0
 50 99  1  0  0  0  0
 50100  1  0  0  0  0
 51101  1  0  0  0  0
 51102  1  0  0  0  0
 52103  1  0  0  0  0
 52104  1  0  0  0  0
 52105  1  0  0  0  0
 53106  1  0  0  0  0
 58107  1  0  0  0  0
 61108  1  0  0  0  0
 69109  1  0  0  0  0
 70110  1  0  0  0  0
 71111  1  0  0  0  0
 72112  1  0  0  0  0
 73113  1  0  0  0  0
 74114  1  0  0  0  0
 74115  1  0  0  0  0
 75116  1  0  0  0  0
M  END
