
  xtb     02022223373D
 energy: -236.603803662066 gnorm: 0.000409581165 xtb: 6.4.1 (unknown)
138154  0     0  0            999 V2000
   -1.8528   -7.1514   -3.5081 C   0  0  0  0  0  0  0  0  0  0  0  0
   -3.0852   -7.3690   -2.9510 C   0  0  0  0  0  0  0  0  0  0  0  0
   -3.7785   -6.4863   -2.0055 C   0  0  0  0  0  0  0  0  0  0  0  0
   -3.3513   -5.4644   -1.4913 O   0  0  0  0  0  0  0  0  0  0  0  0
   -5.1077   -7.0771   -1.8046 C   0  0  0  0  0  0  0  0  0  0  0  0
   -6.1525   -6.6097   -1.0250 C   0  0  0  0  0  0  0  0  0  0  0  0
   -7.3358   -7.3320   -0.9913 C   0  0  0  0  0  0  0  0  0  0  0  0
   -8.4330   -6.9957   -0.2777 O   0  0  0  0  0  0  0  0  0  0  0  0
   -8.3935   -5.8237    0.5022 C   0  0  0  0  0  0  0  0  0  0  0  0
   -7.4550   -8.5296   -1.7525 C   0  0  0  0  0  0  0  0  0  0  0  0
   -8.6495   -9.1492   -1.6517 O   0  0  0  0  0  0  0  0  0  0  0  0
   -8.8613  -10.3402   -2.3764 C   0  0  0  0  0  0  0  0  0  0  0  0
   -6.3952   -8.9855   -2.5248 C   0  0  0  0  0  0  0  0  0  0  0  0
   -5.2128   -8.2572   -2.5520 C   0  0  0  0  0  0  0  0  0  0  0  0
   -3.9549   -8.4896   -3.2507 C   0  0  0  0  0  0  0  0  0  0  0  0
   -3.6539   -9.5941   -4.0087 C   0  0  0  0  0  0  0  0  0  0  0  0
   -4.5608  -10.6458   -4.2486 C   0  0  0  0  0  0  0  0  0  0  0  0
   -5.2605  -11.5276   -4.4785 N   0  0  0  0  0  0  0  0  0  0  0  0
   -2.4137   -9.8644   -4.6236 C   0  0  0  0  0  0  0  0  0  0  0  0
   -1.4370  -10.1782   -5.1417 N   0  0  0  0  0  0  0  0  0  0  0  0
   -0.9190   -6.1315   -3.2843 C   0  0  0  0  0  0  0  0  0  0  0  0
    0.3056   -6.0931   -3.9718 C   0  0  0  0  0  0  0  0  0  0  0  0
    0.6348   -7.0207   -5.0645 C   0  0  0  0  0  0  0  0  0  0  0  0
   -0.0738   -6.9059   -6.2576 C   0  0  0  0  0  0  0  0  0  0  0  0
    0.1917   -7.7505   -7.3173 C   0  0  0  0  0  0  0  0  0  0  0  0
    1.1663   -8.7243   -7.1875 C   0  0  0  0  0  0  0  0  0  0  0  0
    1.8650   -8.8455   -6.0010 C   0  0  0  0  0  0  0  0  0  0  0  0
    1.6170   -8.0028   -4.9262 C   0  0  0  0  0  0  0  0  0  0  0  0
    2.3271   -8.2206   -3.6209 C   0  0  0  0  0  0  0  0  0  0  0  0
    1.4498   -9.0383   -2.6700 C   0  0  0  0  0  0  0  0  0  0  0  0
    1.1077   -5.0463   -3.5314 C   0  0  0  0  0  0  0  0  0  0  0  0
    2.7033   -4.4841   -3.9966 S   0  0  0  0  0  0  0  0  0  0  0  0
    2.5546   -3.2035   -2.8403 C   0  0  0  0  0  0  0  0  0  0  0  0
    3.2964   -2.1167   -2.3520 C   0  0  0  0  0  0  0  0  0  0  0  0
    4.6232   -1.6938   -2.5938 C   0  0  0  0  0  0  0  0  0  0  0  0
    5.1401   -0.5696   -1.8644 C   0  0  0  0  0  0  0  0  0  0  0  0
    6.4088   -0.3240   -2.1480 N   0  0  0  0  0  0  0  0  0  0  0  0
    6.9110   -1.4083   -3.2409 S   0  0  0  0  0  0  0  0  0  0  0  0
    5.5269   -2.2340   -3.3951 N   0  0  0  0  0  0  0  0  0  0  0  0
    4.2662    0.1678   -1.0330 C   0  0  0  0  0  0  0  0  0  0  0  0
    4.4182    1.4035   -0.3894 C   0  0  0  0  0  0  0  0  0  0  0  0
    5.6421    2.5997   -0.1297 S   0  0  0  0  0  0  0  0  0  0  0  0
    4.4358    3.6143    0.6372 C   0  0  0  0  0  0  0  0  0  0  0  0
    4.4974    4.8831    1.1982 C   0  0  0  0  0  0  0  0  0  0  0  0
    5.7174    5.7032    1.2417 C   0  0  0  0  0  0  0  0  0  0  0  0
    6.3781    5.9820    2.4405 C   0  0  0  0  0  0  0  0  0  0  0  0
    5.9374    5.3763    3.7427 C   0  0  0  0  0  0  0  0  0  0  0  0
    6.5241    3.9708    3.8921 C   0  0  0  0  0  0  0  0  0  0  0  0
    7.5204    6.7698    2.3981 C   0  0  0  0  0  0  0  0  0  0  0  0
    8.0021    7.2732    1.2044 C   0  0  0  0  0  0  0  0  0  0  0  0
    7.3528    6.9779    0.0181 C   0  0  0  0  0  0  0  0  0  0  0  0
    6.2169    6.1924    0.0385 C   0  0  0  0  0  0  0  0  0  0  0  0
    3.2419    5.3054    1.6678 C   0  0  0  0  0  0  0  0  0  0  0  0
    1.9993    4.0803    1.4298 S   0  0  0  0  0  0  0  0  0  0  0  0
    3.1573    3.0316    0.6967 C   0  0  0  0  0  0  0  0  0  0  0  0
    3.1603    1.7600    0.1171 C   0  0  0  0  0  0  0  0  0  0  0  0
    2.2513    0.7735   -0.1605 N   0  0  0  0  0  0  0  0  0  0  0  0
    2.9082   -0.2240   -0.8503 C   0  0  0  0  0  0  0  0  0  0  0  0
    2.4702   -1.4553   -1.3985 C   0  0  0  0  0  0  0  0  0  0  0  0
    1.2877   -2.1611   -1.2669 N   0  0  0  0  0  0  0  0  0  0  0  0
    1.3389   -3.2125   -2.1463 C   0  0  0  0  0  0  0  0  0  0  0  0
    0.5085   -4.2705   -2.5242 C   0  0  0  0  0  0  0  0  0  0  0  0
   -1.0655   -4.8365   -2.1022 S   0  0  0  0  0  0  0  0  0  0  0  0
    0.4259   -2.2766   -0.1094 C   0  0  0  0  0  0  0  0  0  0  0  0
    0.8853   -3.4145    0.8020 C   0  0  0  0  0  0  0  0  0  0  0  0
    0.8347    1.0307   -0.0229 C   0  0  0  0  0  0  0  0  0  0  0  0
    0.3741    0.9625    1.4334 C   0  0  0  0  0  0  0  0  0  0  0  0
    3.0479    6.5773    2.2193 C   0  0  0  0  0  0  0  0  0  0  0  0
    1.9070    7.1797    2.6861 C   0  0  0  0  0  0  0  0  0  0  0  0
    0.5568    6.6128    2.6548 C   0  0  0  0  0  0  0  0  0  0  0  0
    0.2307    5.4840    2.3230 O   0  0  0  0  0  0  0  0  0  0  0  0
   -0.3526    7.6824    3.0977 C   0  0  0  0  0  0  0  0  0  0  0  0
   -1.7409    7.6203    3.1861 C   0  0  0  0  0  0  0  0  0  0  0  0
   -2.3260    8.7866    3.6170 C   0  0  0  0  0  0  0  0  0  0  0  0
   -1.5844    9.9329    3.9307 C   0  0  0  0  0  0  0  0  0  0  0  0
   -0.2138   10.0067    3.8481 C   0  0  0  0  0  0  0  0  0  0  0  0
    0.4026    8.8284    3.4195 C   0  0  0  0  0  0  0  0  0  0  0  0
    1.8194    8.5217    3.2241 C   0  0  0  0  0  0  0  0  0  0  0  0
    2.8631    9.3479    3.5549 C   0  0  0  0  0  0  0  0  0  0  0  0
    4.2328    9.0214    3.4693 C   0  0  0  0  0  0  0  0  0  0  0  0
    5.3670    8.8374    3.4631 N   0  0  0  0  0  0  0  0  0  0  0  0
    2.7138   10.6475    4.0821 C   0  0  0  0  0  0  0  0  0  0  0  0
    2.6709   11.7121    4.5108 N   0  0  0  0  0  0  0  0  0  0  0  0
   -2.8143   10.7259    4.2953 C   0  0  0  0  0  0  0  0  0  0  0  0
   -3.1170   10.9334    5.7998 C   0  0  0  0  0  0  0  0  0  0  0  0
   -2.4901    9.7700    6.5274 C   0  0  0  0  0  0  0  0  0  0  0  0
   -3.1915    8.6834    6.2336 C   0  0  0  0  0  0  0  0  0  0  0  0
   -4.3054    9.0923    5.3018 C   0  0  0  0  0  0  0  0  0  0  0  0
   -4.5935   10.5071    5.8289 C   0  0  0  0  0  0  0  0  0  0  0  0
   -3.6405    9.4473    3.9486 C   0  0  0  0  0  0  0  0  0  0  0  0
   -1.5180   -7.8689   -4.2481 H   0  0  0  0  0  0  0  0  0  0  0  0
   -6.0205   -5.6982   -0.4652 H   0  0  0  0  0  0  0  0  0  0  0  0
   -7.6148   -5.8785    1.2693 H   0  0  0  0  0  0  0  0  0  0  0  0
   -8.2332   -4.9353   -0.1165 H   0  0  0  0  0  0  0  0  0  0  0  0
   -9.3687   -5.7589    0.9815 H   0  0  0  0  0  0  0  0  0  0  0  0
   -8.1668  -11.1276   -2.0691 H   0  0  0  0  0  0  0  0  0  0  0  0
   -8.7688  -10.1769   -3.4542 H   0  0  0  0  0  0  0  0  0  0  0  0
   -9.8798  -10.6443   -2.1428 H   0  0  0  0  0  0  0  0  0  0  0  0
   -6.4934   -9.8910   -3.0969 H   0  0  0  0  0  0  0  0  0  0  0  0
   -0.8330   -6.1411   -6.3463 H   0  0  0  0  0  0  0  0  0  0  0  0
   -0.3646   -7.6520   -8.2372 H   0  0  0  0  0  0  0  0  0  0  0  0
    1.3750   -9.3944   -8.0075 H   0  0  0  0  0  0  0  0  0  0  0  0
    2.6154   -9.6158   -5.8987 H   0  0  0  0  0  0  0  0  0  0  0  0
    2.5770   -7.2665   -3.1546 H   0  0  0  0  0  0  0  0  0  0  0  0
    3.2576   -8.7610   -3.8029 H   0  0  0  0  0  0  0  0  0  0  0  0
    0.5529   -8.4839   -2.4020 H   0  0  0  0  0  0  0  0  0  0  0  0
    1.9949   -9.2744   -1.7589 H   0  0  0  0  0  0  0  0  0  0  0  0
    1.1437   -9.9668   -3.1466 H   0  0  0  0  0  0  0  0  0  0  0  0
    6.2813    6.0050    4.5653 H   0  0  0  0  0  0  0  0  0  0  0  0
    4.8494    5.3168    3.7973 H   0  0  0  0  0  0  0  0  0  0  0  0
    6.1799    3.3273    3.0851 H   0  0  0  0  0  0  0  0  0  0  0  0
    7.6104    4.0087    3.8570 H   0  0  0  0  0  0  0  0  0  0  0  0
    6.2211    3.5314    4.8397 H   0  0  0  0  0  0  0  0  0  0  0  0
    8.0321    6.9965    3.3211 H   0  0  0  0  0  0  0  0  0  0  0  0
    8.8864    7.8926    1.1985 H   0  0  0  0  0  0  0  0  0  0  0  0
    7.7266    7.3592   -0.9203 H   0  0  0  0  0  0  0  0  0  0  0  0
    5.6973    5.9600   -0.8801 H   0  0  0  0  0  0  0  0  0  0  0  0
   -0.5894   -2.4757   -0.4647 H   0  0  0  0  0  0  0  0  0  0  0  0
    0.4365   -1.3522    0.4549 H   0  0  0  0  0  0  0  0  0  0  0  0
    1.9116   -3.2493    1.1243 H   0  0  0  0  0  0  0  0  0  0  0  0
    0.8308   -4.3692    0.2864 H   0  0  0  0  0  0  0  0  0  0  0  0
    0.2451   -3.4600    1.6784 H   0  0  0  0  0  0  0  0  0  0  0  0
    0.6438    2.0430   -0.3963 H   0  0  0  0  0  0  0  0  0  0  0  0
    0.2868    0.3349   -0.6596 H   0  0  0  0  0  0  0  0  0  0  0  0
    0.7629    1.8116    1.9880 H   0  0  0  0  0  0  0  0  0  0  0  0
   -0.7107    0.9968    1.4763 H   0  0  0  0  0  0  0  0  0  0  0  0
    0.7193    0.0543    1.9231 H   0  0  0  0  0  0  0  0  0  0  0  0
    3.9589    7.1646    2.2485 H   0  0  0  0  0  0  0  0  0  0  0  0
   -2.2731    6.7177    2.9287 H   0  0  0  0  0  0  0  0  0  0  0  0
    0.3398   10.8988    4.0884 H   0  0  0  0  0  0  0  0  0  0  0  0
   -2.9943   11.6242    3.7080 H   0  0  0  0  0  0  0  0  0  0  0  0
   -2.8731   11.9228    6.1769 H   0  0  0  0  0  0  0  0  0  0  0  0
   -1.5945    9.8448    7.1159 H   0  0  0  0  0  0  0  0  0  0  0  0
   -2.9990    7.6682    6.5278 H   0  0  0  0  0  0  0  0  0  0  0  0
   -5.1447    8.4058    5.2261 H   0  0  0  0  0  0  0  0  0  0  0  0
   -5.0116   10.5049    6.8344 H   0  0  0  0  0  0  0  0  0  0  0  0
   -5.2282   11.0957    5.1678 H   0  0  0  0  0  0  0  0  0  0  0  0
   -4.3619    9.5113    3.1361 H   0  0  0  0  0  0  0  0  0  0  0  0
  1  2  2  0  0  0  0
  2  3  1  0  0  0  0
  3  4  2  0  0  0  0
  3  5  1  0  0  0  0
  5  6  2  0  0  0  0
  6  7  1  0  0  0  0
  7  8  1  0  0  0  0
  8  9  1  0  0  0  0
  7 10  2  0  0  0  0
 10 11  1  0  0  0  0
 11 12  1  0  0  0  0
 10 13  1  0  0  0  0
 13 14  2  0  0  0  0
 14 15  1  0  0  0  0
 15 16  2  0  0  0  0
 16 17  1  0  0  0  0
 17 18  3  0  0  0  0
 16 19  1  0  0  0  0
 19 20  3  0  0  0  0
  1 21  1  0  0  0  0
 21 22  2  0  0  0  0
 22 23  1  0  0  0  0
 23 24  2  0  0  0  0
 24 25  1  0  0  0  0
 25 26  2  0  0  0  0
 26 27  1  0  0  0  0
 27 28  2  0  0  0  0
 28 29  1  0  0  0  0
 29 30  1  0  0  0  0
 22 31  1  0  0  0  0
 31 32  1  0  0  0  0
 32 33  1  0  0  0  0
 33 34  1  0  0  0  0
 34 35  1  0  0  0  0
 35 36  1  0  0  0  0
 36 37  2  0  0  0  0
 37 38  1  0  0  0  0
 38 39  1  0  0  0  0
 36 40  1  0  0  0  0
 40 41  1  0  0  0  0
 41 42  1  0  0  0  0
 42 43  1  0  0  0  0
 43 44  1  0  0  0  0
 44 45  1  0  0  0  0
 45 46  2  0  0  0  0
 46 47  1  0  0  0  0
 47 48  1  0  0  0  0
 46 49  1  0  0  0  0
 49 50  2  0  0  0  0
 50 51  1  0  0  0  0
 51 52  2  0  0  0  0
 44 53  2  0  0  0  0
 53 54  1  0  0  0  0
 54 55  1  0  0  0  0
 55 56  1  0  0  0  0
 56 57  1  0  0  0  0
 57 58  1  0  0  0  0
 58 59  1  0  0  0  0
 59 60  1  0  0  0  0
 60 61  1  0  0  0  0
 61 62  1  0  0  0  0
 62 63  1  0  0  0  0
 60 64  1  0  0  0  0
 64 65  1  0  0  0  0
 57 66  1  0  0  0  0
 66 67  1  0  0  0  0
 53 68  1  0  0  0  0
 68 69  2  0  0  0  0
 69 70  1  0  0  0  0
 70 71  2  0  0  0  0
 70 72  1  0  0  0  0
 72 73  2  0  0  0  0
 73 74  1  0  0  0  0
 74 75  2  0  0  0  0
 75 76  1  0  0  0  0
 76 77  2  0  0  0  0
 77 78  1  0  0  0  0
 78 79  2  0  0  0  0
 79 80  1  0  0  0  0
 80 81  3  0  0  0  0
 79 82  1  0  0  0  0
 82 83  3  0  0  0  0
 75 84  1  0  0  0  0
 84 85  1  0  0  0  0
 85 86  1  0  0  0  0
 86 87  2  0  0  0  0
 87 88  1  0  0  0  0
 88 89  1  0  0  0  0
 88 90  1  0  0  0  0
 15  2  1  0  0  0  0
 63 21  1  0  0  0  0
 78 69  1  0  0  0  0
 90 84  1  0  0  0  0
 14  5  1  0  0  0  0
 28 23  1  0  0  0  0
 62 31  2  0  0  0  0
 77 72  1  0  0  0  0
 89 85  1  0  0  0  0
 61 33  2  0  0  0  0
 90 74  1  0  0  0  0
 59 34  2  0  0  0  0
 39 35  2  0  0  0  0
 58 40  2  0  0  0  0
 56 41  2  0  0  0  0
 55 43  2  0  0  0  0
 52 45  1  0  0  0  0
  1 91  1  0  0  0  0
  6 92  1  0  0  0  0
  9 93  1  0  0  0  0
  9 94  1  0  0  0  0
  9 95  1  0  0  0  0
 12 96  1  0  0  0  0
 12 97  1  0  0  0  0
 12 98  1  0  0  0  0
 13 99  1  0  0  0  0
 24100  1  0  0  0  0
 25101  1  0  0  0  0
 26102  1  0  0  0  0
 27103  1  0  0  0  0
 29104  1  0  0  0  0
 29105  1  0  0  0  0
 30106  1  0  0  0  0
 30107  1  0  0  0  0
 30108  1  0  0  0  0
 47109  1  0  0  0  0
 47110  1  0  0  0  0
 48111  1  0  0  0  0
 48112  1  0  0  0  0
 48113  1  0  0  0  0
 49114  1  0  0  0  0
 50115  1  0  0  0  0
 51116  1  0  0  0  0
 52117  1  0  0  0  0
 64118  1  0  0  0  0
 64119  1  0  0  0  0
 65120  1  0  0  0  0
 65121  1  0  0  0  0
 65122  1  0  0  0  0
 66123  1  0  0  0  0
 66124  1  0  0  0  0
 67125  1  0  0  0  0
 67126  1  0  0  0  0
 67127  1  0  0  0  0
 68128  1  0  0  0  0
 73129  1  0  0  0  0
 76130  1  0  0  0  0
 84131  1  0  0  0  0
 85132  1  0  0  0  0
 86133  1  0  0  0  0
 87134  1  0  0  0  0
 88135  1  0  0  0  0
 89136  1  0  0  0  0
 89137  1  0  0  0  0
 90138  1  0  0  0  0
M  END
