
  xtb     02012216463D
 energy: -249.161004918115 gnorm: 0.000637691883 xtb: 6.4.1 (unknown)
155169  0     0  0            999 V2000
    4.6613   -1.0592    5.6579 C   0  0  0  0  0  0  0  0  0  0  0  0
    5.7450   -1.8374    5.3847 C   0  0  0  0  0  0  0  0  0  0  0  0
    6.9036   -1.8685    6.3167 C   0  0  0  0  0  0  0  0  0  0  0  0
    6.9397   -1.4297    7.4465 O   0  0  0  0  0  0  0  0  0  0  0  0
    7.9918   -2.4892    5.5447 C   0  0  0  0  0  0  0  0  0  0  0  0
    9.3157   -2.6683    5.8953 C   0  0  0  0  0  0  0  0  0  0  0  0
   10.1961   -3.2687    5.0002 C   0  0  0  0  0  0  0  0  0  0  0  0
   11.5141   -3.4750    5.2877 O   0  0  0  0  0  0  0  0  0  0  0  0
   12.0109   -3.0589    6.5382 C   0  0  0  0  0  0  0  0  0  0  0  0
    9.7186   -3.6900    3.7325 C   0  0  0  0  0  0  0  0  0  0  0  0
   10.4350   -4.2683    2.7448 O   0  0  0  0  0  0  0  0  0  0  0  0
   11.8033   -4.5890    2.8758 C   0  0  0  0  0  0  0  0  0  0  0  0
    8.3716   -3.5133    3.4022 C   0  0  0  0  0  0  0  0  0  0  0  0
    7.5076   -2.9171    4.2975 C   0  0  0  0  0  0  0  0  0  0  0  0
    6.0753   -2.6579    4.2392 C   0  0  0  0  0  0  0  0  0  0  0  0
    5.1796   -3.3115    3.4321 C   0  0  0  0  0  0  0  0  0  0  0  0
    3.7884   -3.2662    3.6447 C   0  0  0  0  0  0  0  0  0  0  0  0
    2.6558   -3.2967    3.8341 N   0  0  0  0  0  0  0  0  0  0  0  0
    5.5481   -4.1737    2.3816 C   0  0  0  0  0  0  0  0  0  0  0  0
    5.7877   -4.8733    1.5034 N   0  0  0  0  0  0  0  0  0  0  0  0
    3.6862   -0.5614    4.7655 C   0  0  0  0  0  0  0  0  0  0  0  0
    4.0427   -0.3328    3.0560 S   0  0  0  0  0  0  0  0  0  0  0  0
    2.4712    0.2958    2.8108 C   0  0  0  0  0  0  0  0  0  0  0  0
    1.6529    0.6629    1.7166 C   0  0  0  0  0  0  0  0  0  0  0  0
    0.3741    0.9182    2.1791 C   0  0  0  0  0  0  0  0  0  0  0  0
    0.3549    0.9410    3.6945 C   0  0  0  0  0  0  0  0  0  0  0  0
    1.7169    0.3449    3.9833 C   0  0  0  0  0  0  0  0  0  0  0  0
    2.4016   -0.1269    5.1013 C   0  0  0  0  0  0  0  0  0  0  0  0
    1.8210   -0.2752    6.4657 C   0  0  0  0  0  0  0  0  0  0  0  0
    0.3685    2.4241    4.0861 C   0  0  0  0  0  0  0  0  0  0  0  0
   -0.5592    3.2983    3.5288 C   0  0  0  0  0  0  0  0  0  0  0  0
   -0.5742    4.6352    3.8762 C   0  0  0  0  0  0  0  0  0  0  0  0
    0.3368    5.1482    4.7901 C   0  0  0  0  0  0  0  0  0  0  0  0
    0.3425    6.6080    5.1390 C   0  0  0  0  0  0  0  0  0  0  0  0
    1.2522    7.3835    4.1841 C   0  0  0  0  0  0  0  0  0  0  0  0
    1.2678    4.2781    5.3374 C   0  0  0  0  0  0  0  0  0  0  0  0
    1.2863    2.9381    4.9926 C   0  0  0  0  0  0  0  0  0  0  0  0
   -0.8023    0.1902    4.3307 C   0  0  0  0  0  0  0  0  0  0  0  0
   -1.5946    0.8229    5.2823 C   0  0  0  0  0  0  0  0  0  0  0  0
   -2.6632    0.1795    5.8763 C   0  0  0  0  0  0  0  0  0  0  0  0
   -2.9721   -1.1271    5.5318 C   0  0  0  0  0  0  0  0  0  0  0  0
   -4.1077   -1.8556    6.1899 C   0  0  0  0  0  0  0  0  0  0  0  0
   -3.6143   -2.6058    7.4285 C   0  0  0  0  0  0  0  0  0  0  0  0
   -2.1677   -1.7620    4.5981 C   0  0  0  0  0  0  0  0  0  0  0  0
   -1.0853   -1.1383    3.9911 C   0  0  0  0  0  0  0  0  0  0  0  0
   -0.2703   -1.9237    3.0116 C   0  0  0  0  0  0  0  0  0  0  0  0
   -0.5673    1.0618    1.1378 C   0  0  0  0  0  0  0  0  0  0  0  0
   -1.9614    1.1441    1.1994 C   0  0  0  0  0  0  0  0  0  0  0  0
   -2.6628    1.1634    0.0174 C   0  0  0  0  0  0  0  0  0  0  0  0
   -4.4129    1.1755   -0.1124 S   0  0  0  0  0  0  0  0  0  0  0  0
   -4.2726    1.0981   -1.8363 C   0  0  0  0  0  0  0  0  0  0  0  0
   -5.1520    0.9397   -2.9328 C   0  0  0  0  0  0  0  0  0  0  0  0
   -4.3952    0.8269   -4.1080 C   0  0  0  0  0  0  0  0  0  0  0  0
   -2.9200    0.9831   -3.8028 C   0  0  0  0  0  0  0  0  0  0  0  0
   -2.1005   -0.2462   -4.1560 C   0  0  0  0  0  0  0  0  0  0  0  0
   -2.6390   -1.5117   -3.9643 C   0  0  0  0  0  0  0  0  0  0  0  0
   -1.8827   -2.6411   -4.2125 C   0  0  0  0  0  0  0  0  0  0  0  0
   -0.5691   -2.5379   -4.6513 C   0  0  0  0  0  0  0  0  0  0  0  0
    0.2721   -3.7629   -4.8625 C   0  0  0  0  0  0  0  0  0  0  0  0
    1.0267   -4.1153   -3.5788 C   0  0  0  0  0  0  0  0  0  0  0  0
   -0.0342   -1.2703   -4.8363 C   0  0  0  0  0  0  0  0  0  0  0  0
   -0.7870   -0.1368   -4.5912 C   0  0  0  0  0  0  0  0  0  0  0  0
   -2.4266    2.2333   -4.5080 C   0  0  0  0  0  0  0  0  0  0  0  0
   -2.3537    2.2361   -5.8968 C   0  0  0  0  0  0  0  0  0  0  0  0
   -1.9419    3.3664   -6.5742 C   0  0  0  0  0  0  0  0  0  0  0  0
   -1.5958    4.5240   -5.8872 C   0  0  0  0  0  0  0  0  0  0  0  0
   -1.1068    5.7369   -6.6247 C   0  0  0  0  0  0  0  0  0  0  0  0
    0.4105    5.6728   -6.8114 C   0  0  0  0  0  0  0  0  0  0  0  0
   -1.6677    4.5137   -4.5018 C   0  0  0  0  0  0  0  0  0  0  0  0
   -2.0824    3.3848   -3.8167 C   0  0  0  0  0  0  0  0  0  0  0  0
   -2.9681    1.1056   -2.2966 C   0  0  0  0  0  0  0  0  0  0  0  0
   -2.0172    1.1242   -1.2546 C   0  0  0  0  0  0  0  0  0  0  0  0
   -0.6253    1.0345   -1.3170 C   0  0  0  0  0  0  0  0  0  0  0  0
    0.0734    0.9777   -0.1352 C   0  0  0  0  0  0  0  0  0  0  0  0
    1.8016    0.6993   -0.0068 S   0  0  0  0  0  0  0  0  0  0  0  0
   -5.1658    0.5961   -5.2299 C   0  0  0  0  0  0  0  0  0  0  0  0
   -6.5245    0.5163   -4.9346 C   0  0  0  0  0  0  0  0  0  0  0  0
   -6.8264    0.7754   -3.2096 S   0  0  0  0  0  0  0  0  0  0  0  0
   -7.6561    0.2494   -5.7228 C   0  0  0  0  0  0  0  0  0  0  0  0
   -7.7854   -0.1189   -7.0373 C   0  0  0  0  0  0  0  0  0  0  0  0
   -6.7272   -0.4068   -8.0341 C   0  0  0  0  0  0  0  0  0  0  0  0
   -5.5319   -0.1964   -7.9642 O   0  0  0  0  0  0  0  0  0  0  0  0
   -7.4190   -1.0188   -9.1817 C   0  0  0  0  0  0  0  0  0  0  0  0
   -6.8772   -1.5340  -10.3436 C   0  0  0  0  0  0  0  0  0  0  0  0
   -7.7350   -2.0883  -11.2794 C   0  0  0  0  0  0  0  0  0  0  0  0
   -9.1109   -2.1330  -11.0623 C   0  0  0  0  0  0  0  0  0  0  0  0
  -10.0108   -2.7719  -12.0721 C   0  0  0  0  0  0  0  0  0  0  0  0
   -9.6490   -1.6027   -9.8906 C   0  0  0  0  0  0  0  0  0  0  0  0
   -8.8037   -1.0394   -8.9503 C   0  0  0  0  0  0  0  0  0  0  0  0
   -9.0676   -0.4119   -7.6569 C   0  0  0  0  0  0  0  0  0  0  0  0
  -10.3149   -0.1099   -7.1749 C   0  0  0  0  0  0  0  0  0  0  0  0
  -11.5157   -0.4095   -7.8522 C   0  0  0  0  0  0  0  0  0  0  0  0
  -12.5305   -0.6227   -8.3451 N   0  0  0  0  0  0  0  0  0  0  0  0
  -10.6036    0.5747   -5.9751 C   0  0  0  0  0  0  0  0  0  0  0  0
  -10.9371    1.1376   -5.0307 N   0  0  0  0  0  0  0  0  0  0  0  0
    4.5869   -0.7152    6.6856 H   0  0  0  0  0  0  0  0  0  0  0  0
    9.6409   -2.3384    6.8683 H   0  0  0  0  0  0  0  0  0  0  0  0
   13.0669   -3.3247    6.5303 H   0  0  0  0  0  0  0  0  0  0  0  0
   11.5130   -3.5786    7.3621 H   0  0  0  0  0  0  0  0  0  0  0  0
   11.9102   -1.9778    6.6716 H   0  0  0  0  0  0  0  0  0  0  0  0
   12.4157   -3.6982    3.0263 H   0  0  0  0  0  0  0  0  0  0  0  0
   11.9773   -5.2924    3.6919 H   0  0  0  0  0  0  0  0  0  0  0  0
   12.0703   -5.0580    1.9291 H   0  0  0  0  0  0  0  0  0  0  0  0
    8.0542   -3.8487    2.4285 H   0  0  0  0  0  0  0  0  0  0  0  0
    2.4913    0.1281    7.2238 H   0  0  0  0  0  0  0  0  0  0  0  0
    0.8614    0.2310    6.5245 H   0  0  0  0  0  0  0  0  0  0  0  0
    1.6675   -1.3319    6.6833 H   0  0  0  0  0  0  0  0  0  0  0  0
   -1.2883    2.9356    2.8231 H   0  0  0  0  0  0  0  0  0  0  0  0
   -1.3105    5.2893    3.4313 H   0  0  0  0  0  0  0  0  0  0  0  0
   -0.6716    7.0074    5.0734 H   0  0  0  0  0  0  0  0  0  0  0  0
    0.6978    6.7423    6.1626 H   0  0  0  0  0  0  0  0  0  0  0  0
    0.9097    7.2682    3.1581 H   0  0  0  0  0  0  0  0  0  0  0  0
    2.2724    7.0114    4.2474 H   0  0  0  0  0  0  0  0  0  0  0  0
    1.2519    8.4418    4.4341 H   0  0  0  0  0  0  0  0  0  0  0  0
    1.9903    4.6488    6.0506 H   0  0  0  0  0  0  0  0  0  0  0  0
    2.0257    2.2983    5.4464 H   0  0  0  0  0  0  0  0  0  0  0  0
   -1.3778    1.8411    5.5697 H   0  0  0  0  0  0  0  0  0  0  0  0
   -3.2605    0.7025    6.6092 H   0  0  0  0  0  0  0  0  0  0  0  0
   -4.5461   -2.5684    5.4886 H   0  0  0  0  0  0  0  0  0  0  0  0
   -4.8823   -1.1445    6.4841 H   0  0  0  0  0  0  0  0  0  0  0  0
   -4.4356   -3.1356    7.9055 H   0  0  0  0  0  0  0  0  0  0  0  0
   -2.8480   -3.3268    7.1530 H   0  0  0  0  0  0  0  0  0  0  0  0
   -3.1860   -1.9096    8.1463 H   0  0  0  0  0  0  0  0  0  0  0  0
   -2.3905   -2.7855    4.3301 H   0  0  0  0  0  0  0  0  0  0  0  0
   -0.6501   -2.9393    2.9378 H   0  0  0  0  0  0  0  0  0  0  0  0
   -0.3043   -1.4776    2.0195 H   0  0  0  0  0  0  0  0  0  0  0  0
    0.7705   -1.9805    3.3243 H   0  0  0  0  0  0  0  0  0  0  0  0
   -2.4701    1.1372    2.1512 H   0  0  0  0  0  0  0  0  0  0  0  0
   -3.6576   -1.6149   -3.6182 H   0  0  0  0  0  0  0  0  0  0  0  0
   -2.3194   -3.6179   -4.0612 H   0  0  0  0  0  0  0  0  0  0  0  0
   -0.3620   -4.6035   -5.1506 H   0  0  0  0  0  0  0  0  0  0  0  0
    0.9908   -3.5853   -5.6651 H   0  0  0  0  0  0  0  0  0  0  0  0
    1.6367   -5.0031   -3.7268 H   0  0  0  0  0  0  0  0  0  0  0  0
    0.3267   -4.3058   -2.7683 H   0  0  0  0  0  0  0  0  0  0  0  0
    1.6753   -3.2941   -3.2823 H   0  0  0  0  0  0  0  0  0  0  0  0
    0.9866   -1.1666   -5.1758 H   0  0  0  0  0  0  0  0  0  0  0  0
   -0.3489    0.8386   -4.7481 H   0  0  0  0  0  0  0  0  0  0  0  0
   -2.6118    1.3446   -6.4479 H   0  0  0  0  0  0  0  0  0  0  0  0
   -1.8934    3.3516   -7.6534 H   0  0  0  0  0  0  0  0  0  0  0  0
   -1.3629    6.6390   -6.0655 H   0  0  0  0  0  0  0  0  0  0  0  0
   -1.5874    5.7931   -7.6034 H   0  0  0  0  0  0  0  0  0  0  0  0
    0.6841    4.7888   -7.3832 H   0  0  0  0  0  0  0  0  0  0  0  0
    0.7667    6.5532   -7.3411 H   0  0  0  0  0  0  0  0  0  0  0  0
    0.9086    5.6229   -5.8455 H   0  0  0  0  0  0  0  0  0  0  0  0
   -1.4010    5.4020   -3.9468 H   0  0  0  0  0  0  0  0  0  0  0  0
   -2.1328    3.4079   -2.7382 H   0  0  0  0  0  0  0  0  0  0  0  0
   -0.1263    0.9678   -2.2695 H   0  0  0  0  0  0  0  0  0  0  0  0
   -4.7973    0.4633   -6.2296 H   0  0  0  0  0  0  0  0  0  0  0  0
   -8.5807    0.3078   -5.1597 H   0  0  0  0  0  0  0  0  0  0  0  0
   -5.8105   -1.5008  -10.5039 H   0  0  0  0  0  0  0  0  0  0  0  0
   -7.3346   -2.4984  -12.1952 H   0  0  0  0  0  0  0  0  0  0  0  0
  -10.0514   -3.8480  -11.8990 H   0  0  0  0  0  0  0  0  0  0  0  0
   -9.6402   -2.6099  -13.0816 H   0  0  0  0  0  0  0  0  0  0  0  0
  -11.0219   -2.3805  -11.9950 H   0  0  0  0  0  0  0  0  0  0  0  0
  -10.7146   -1.6466   -9.7337 H   0  0  0  0  0  0  0  0  0  0  0  0
  1  2  2  0  0  0  0
  2  3  1  0  0  0  0
  3  4  2  0  0  0  0
  3  5  1  0  0  0  0
  5  6  2  0  0  0  0
  6  7  1  0  0  0  0
  7  8  1  0  0  0  0
  8  9  1  0  0  0  0
  7 10  2  0  0  0  0
 10 11  1  0  0  0  0
 11 12  1  0  0  0  0
 10 13  1  0  0  0  0
 13 14  2  0  0  0  0
 14 15  1  0  0  0  0
 15 16  2  0  0  0  0
 16 17  1  0  0  0  0
 17 18  3  0  0  0  0
 16 19  1  0  0  0  0
 19 20  3  0  0  0  0
  1 21  1  0  0  0  0
 21 22  1  0  0  0  0
 22 23  1  0  0  0  0
 23 24  1  0  0  0  0
 24 25  2  0  0  0  0
 25 26  1  0  0  0  0
 26 27  1  0  0  0  0
 27 28  1  0  0  0  0
 28 29  1  0  0  0  0
 26 30  1  0  0  0  0
 30 31  2  0  0  0  0
 31 32  1  0  0  0  0
 32 33  2  0  0  0  0
 33 34  1  0  0  0  0
 34 35  1  0  0  0  0
 33 36  1  0  0  0  0
 36 37  2  0  0  0  0
 26 38  1  0  0  0  0
 38 39  2  0  0  0  0
 39 40  1  0  0  0  0
 40 41  2  0  0  0  0
 41 42  1  0  0  0  0
 42 43  1  0  0  0  0
 41 44  1  0  0  0  0
 44 45  2  0  0  0  0
 45 46  1  0  0  0  0
 25 47  1  0  0  0  0
 47 48  2  0  0  0  0
 48 49  1  0  0  0  0
 49 50  1  0  0  0  0
 50 51  1  0  0  0  0
 51 52  1  0  0  0  0
 52 53  2  0  0  0  0
 53 54  1  0  0  0  0
 54 55  1  0  0  0  0
 55 56  2  0  0  0  0
 56 57  1  0  0  0  0
 57 58  2  0  0  0  0
 58 59  1  0  0  0  0
 59 60  1  0  0  0  0
 58 61  1  0  0  0  0
 61 62  2  0  0  0  0
 54 63  1  0  0  0  0
 63 64  2  0  0  0  0
 64 65  1  0  0  0  0
 65 66  2  0  0  0  0
 66 67  1  0  0  0  0
 67 68  1  0  0  0  0
 66 69  1  0  0  0  0
 69 70  2  0  0  0  0
 54 71  1  0  0  0  0
 71 72  1  0  0  0  0
 72 73  1  0  0  0  0
 73 74  2  0  0  0  0
 74 75  1  0  0  0  0
 53 76  1  0  0  0  0
 76 77  2  0  0  0  0
 77 78  1  0  0  0  0
 77 79  1  0  0  0  0
 79 80  2  0  0  0  0
 80 81  1  0  0  0  0
 81 82  2  0  0  0  0
 81 83  1  0  0  0  0
 83 84  2  0  0  0  0
 84 85  1  0  0  0  0
 85 86  2  0  0  0  0
 86 87  1  0  0  0  0
 86 88  1  0  0  0  0
 88 89  2  0  0  0  0
 89 90  1  0  0  0  0
 90 91  2  0  0  0  0
 91 92  1  0  0  0  0
 92 93  3  0  0  0  0
 91 94  1  0  0  0  0
 94 95  3  0  0  0  0
 15  2  1  0  0  0  0
 28 21  2  0  0  0  0
 37 30  1  0  0  0  0
 45 38  1  0  0  0  0
 74 47  1  0  0  0  0
 90 80  1  0  0  0  0
 14  5  1  0  0  0  0
 27 23  2  0  0  0  0
 72 49  2  0  0  0  0
 89 83  1  0  0  0  0
 75 24  1  0  0  0  0
 71 51  2  0  0  0  0
 78 52  1  0  0  0  0
 62 55  1  0  0  0  0
 70 63  1  0  0  0  0
  1 96  1  0  0  0  0
  6 97  1  0  0  0  0
  9 98  1  0  0  0  0
  9 99  1  0  0  0  0
  9100  1  0  0  0  0
 12101  1  0  0  0  0
 12102  1  0  0  0  0
 12103  1  0  0  0  0
 13104  1  0  0  0  0
 29105  1  0  0  0  0
 29106  1  0  0  0  0
 29107  1  0  0  0  0
 31108  1  0  0  0  0
 32109  1  0  0  0  0
 34110  1  0  0  0  0
 34111  1  0  0  0  0
 35112  1  0  0  0  0
 35113  1  0  0  0  0
 35114  1  0  0  0  0
 36115  1  0  0  0  0
 37116  1  0  0  0  0
 39117  1  0  0  0  0
 40118  1  0  0  0  0
 42119  1  0  0  0  0
 42120  1  0  0  0  0
 43121  1  0  0  0  0
 43122  1  0  0  0  0
 43123  1  0  0  0  0
 44124  1  0  0  0  0
 46125  1  0  0  0  0
 46126  1  0  0  0  0
 46127  1  0  0  0  0
 48128  1  0  0  0  0
 56129  1  0  0  0  0
 57130  1  0  0  0  0
 59131  1  0  0  0  0
 59132  1  0  0  0  0
 60133  1  0  0  0  0
 60134  1  0  0  0  0
 60135  1  0  0  0  0
 61136  1  0  0  0  0
 62137  1  0  0  0  0
 64138  1  0  0  0  0
 65139  1  0  0  0  0
 67140  1  0  0  0  0
 67141  1  0  0  0  0
 68142  1  0  0  0  0
 68143  1  0  0  0  0
 68144  1  0  0  0  0
 69145  1  0  0  0  0
 70146  1  0  0  0  0
 73147  1  0  0  0  0
 76148  1  0  0  0  0
 79149  1  0  0  0  0
 84150  1  0  0  0  0
 85151  1  0  0  0  0
 87152  1  0  0  0  0
 87153  1  0  0  0  0
 87154  1  0  0  0  0
 88155  1  0  0  0  0
M  END
