155

C          4.66130       -1.05920        5.65790
C          5.74500       -1.83740        5.38470
C          6.90360       -1.86850        6.31670
O          6.93970       -1.42970        7.44650
C          7.99180       -2.48920        5.54470
C          9.31570       -2.66830        5.89530
C         10.19610       -3.26870        5.00020
O         11.51410       -3.47500        5.28770
C         12.01090       -3.05890        6.53820
C          9.71860       -3.69000        3.73250
O         10.43500       -4.26830        2.74480
C         11.80330       -4.58900        2.87580
C          8.37160       -3.51330        3.40220
C          7.50760       -2.91710        4.29750
C          6.07530       -2.65790        4.23920
C          5.17960       -3.31150        3.43210
C          3.78840       -3.26620        3.64470
N          2.65580       -3.29670        3.83410
C          5.54810       -4.17370        2.38160
N          5.78770       -4.87330        1.50340
C          3.68620       -0.56140        4.76550
S          4.04270       -0.33280        3.05600
C          2.47120        0.29580        2.81080
C          1.65290        0.66290        1.71660
C          0.37410        0.91820        2.17910
C          0.35490        0.94100        3.69450
C          1.71690        0.34490        3.98330
C          2.40160       -0.12690        5.10130
C          1.82100       -0.27520        6.46570
C          0.36850        2.42410        4.08610
C         -0.55920        3.29830        3.52880
C         -0.57420        4.63520        3.87620
C          0.33680        5.14820        4.79010
C          0.34250        6.60800        5.13900
C          1.25220        7.38350        4.18410
C          1.26780        4.27810        5.33740
C          1.28630        2.93810        4.99260
C         -0.80230        0.19020        4.33070
C         -1.59460        0.82290        5.28230
C         -2.66320        0.17950        5.87630
C         -2.97210       -1.12710        5.53180
C         -4.10770       -1.85560        6.18990
C         -3.61430       -2.60580        7.42850
C         -2.16770       -1.76200        4.59810
C         -1.08530       -1.13830        3.99110
C         -0.27030       -1.92370        3.01160
C         -0.56730        1.06180        1.13780
C         -1.96140        1.14410        1.19940
C         -2.66280        1.16340        0.01740
S         -4.41290        1.17550       -0.11240
C         -4.27260        1.09810       -1.83630
C         -5.15200        0.93970       -2.93280
C         -4.39520        0.82690       -4.10800
C         -2.92000        0.98310       -3.80280
C         -2.10050       -0.24620       -4.15600
C         -2.63900       -1.51170       -3.96430
C         -1.88270       -2.64110       -4.21250
C         -0.56910       -2.53790       -4.65130
C          0.27210       -3.76290       -4.86250
C          1.02670       -4.11530       -3.57880
C         -0.03420       -1.27030       -4.83630
C         -0.78700       -0.13680       -4.59120
C         -2.42660        2.23330       -4.50800
C         -2.35370        2.23610       -5.89680
C         -1.94190        3.36640       -6.57420
C         -1.59580        4.52400       -5.88720
C         -1.10680        5.73690       -6.62470
C          0.41050        5.67280       -6.81140
C         -1.66770        4.51370       -4.50180
C         -2.08240        3.38480       -3.81670
C         -2.96810        1.10560       -2.29660
C         -2.01720        1.12420       -1.25460
C         -0.62530        1.03450       -1.31700
C          0.07340        0.97770       -0.13520
S          1.80160        0.69930       -0.00680
C         -5.16580        0.59610       -5.22990
C         -6.52450        0.51630       -4.93460
S         -6.82640        0.77540       -3.20960
C         -7.65610        0.24940       -5.72280
C         -7.78540       -0.11890       -7.03730
C         -6.72720       -0.40680       -8.03410
O         -5.53190       -0.19640       -7.96420
C         -7.41900       -1.01880       -9.18170
C         -6.87720       -1.53400      -10.34360
C         -7.73500       -2.08830      -11.27940
C         -9.11090       -2.13300      -11.06230
C        -10.01080       -2.77190      -12.07210
C         -9.64900       -1.60270       -9.89060
C         -8.80370       -1.03940       -8.95030
C         -9.06760       -0.41190       -7.65690
C        -10.31490       -0.10990       -7.17490
C        -11.51570       -0.40950       -7.85220
N        -12.53050       -0.62270       -8.34510
C        -10.60360        0.57470       -5.97510
N        -10.93710        1.13760       -5.03070
H          4.58690       -0.71520        6.68560
H          9.64090       -2.33840        6.86830
H         13.06690       -3.32470        6.53030
H         11.51300       -3.57860        7.36210
H         11.91020       -1.97780        6.67160
H         12.41570       -3.69820        3.02630
H         11.97730       -5.29240        3.69190
H         12.07030       -5.05800        1.92910
H          8.05420       -3.84870        2.42850
H          2.49130        0.12810        7.22380
H          0.86140        0.23100        6.52450
H          1.66750       -1.33190        6.68330
H         -1.28830        2.93560        2.82310
H         -1.31050        5.28930        3.43130
H         -0.67160        7.00740        5.07340
H          0.69780        6.74230        6.16260
H          0.90970        7.26820        3.15810
H          2.27240        7.01140        4.24740
H          1.25190        8.44180        4.43410
H          1.99030        4.64880        6.05060
H          2.02570        2.29830        5.44640
H         -1.37780        1.84110        5.56970
H         -3.26050        0.70250        6.60920
H         -4.54610       -2.56840        5.48860
H         -4.88230       -1.14450        6.48410
H         -4.43560       -3.13560        7.90550
H         -2.84800       -3.32680        7.15300
H         -3.18600       -1.90960        8.14630
H         -2.39050       -2.78550        4.33010
H         -0.65010       -2.93930        2.93780
H         -0.30430       -1.47760        2.01950
H          0.77050       -1.98050        3.32430
H         -2.47010        1.13720        2.15120
H         -3.65760       -1.61490       -3.61820
H         -2.31940       -3.61790       -4.06120
H         -0.36200       -4.60350       -5.15060
H          0.99080       -3.58530       -5.66510
H          1.63670       -5.00310       -3.72680
H          0.32670       -4.30580       -2.76830
H          1.67530       -3.29410       -3.28230
H          0.98660       -1.16660       -5.17580
H         -0.34890        0.83860       -4.74810
H         -2.61180        1.34460       -6.44790
H         -1.89340        3.35160       -7.65340
H         -1.36290        6.63900       -6.06550
H         -1.58740        5.79310       -7.60340
H          0.68410        4.78880       -7.38320
H          0.76670        6.55320       -7.34110
H          0.90860        5.62290       -5.84550
H         -1.40100        5.40200       -3.94680
H         -2.13280        3.40790       -2.73820
H         -0.12630        0.96780       -2.26950
H         -4.79730        0.46330       -6.22960
H         -8.58070        0.30780       -5.15970
H         -5.81050       -1.50080      -10.50390
H         -7.33460       -2.49840      -12.19520
H        -10.05140       -3.84800      -11.89900
H         -9.64020       -2.60990      -13.08160
H        -11.02190       -2.38050      -11.99500
H        -10.71460       -1.64660       -9.73370
