
  xtb     02012215553D
 energy: -191.669608647646 gnorm: 0.000232547972 xtb: 6.4.1 (unknown)
104114  0     0  0            999 V2000
   -2.5904    4.9140   -2.0817 C   0  0  0  0  0  0  0  0  0  0  0  0
   -3.2257    4.9403   -3.2887 C   0  0  0  0  0  0  0  0  0  0  0  0
   -3.6457    3.8006   -4.1448 C   0  0  0  0  0  0  0  0  0  0  0  0
   -3.7225    2.6222   -3.8621 O   0  0  0  0  0  0  0  0  0  0  0  0
   -3.9626    4.3912   -5.4523 C   0  0  0  0  0  0  0  0  0  0  0  0
   -4.3190    3.7354   -6.6189 C   0  0  0  0  0  0  0  0  0  0  0  0
   -4.5581    4.4855   -7.7600 C   0  0  0  0  0  0  0  0  0  0  0  0
   -4.9054    3.9829   -8.9629 O   0  0  0  0  0  0  0  0  0  0  0  0
   -5.0316    2.5858   -9.0970 C   0  0  0  0  0  0  0  0  0  0  0  0
   -4.4364    5.9054   -7.7108 C   0  0  0  0  0  0  0  0  0  0  0  0
   -4.6835    6.5338   -8.8777 O   0  0  0  0  0  0  0  0  0  0  0  0
   -4.5814    7.9395   -8.9299 C   0  0  0  0  0  0  0  0  0  0  0  0
   -4.0860    6.5454   -6.5305 C   0  0  0  0  0  0  0  0  0  0  0  0
   -3.8478    5.7849   -5.3914 C   0  0  0  0  0  0  0  0  0  0  0  0
   -3.4676    6.1663   -4.0408 C   0  0  0  0  0  0  0  0  0  0  0  0
   -3.4060    7.4521   -3.5675 C   0  0  0  0  0  0  0  0  0  0  0  0
   -3.1168    7.8389   -2.2421 C   0  0  0  0  0  0  0  0  0  0  0  0
   -2.9065    8.2478   -1.1891 N   0  0  0  0  0  0  0  0  0  0  0  0
   -3.6701    8.5879   -4.3608 C   0  0  0  0  0  0  0  0  0  0  0  0
   -3.8695    9.5479   -4.9590 N   0  0  0  0  0  0  0  0  0  0  0  0
   -2.2084    3.8354   -1.2527 C   0  0  0  0  0  0  0  0  0  0  0  0
   -2.4834    2.4810   -1.2845 C   0  0  0  0  0  0  0  0  0  0  0  0
   -1.8149    1.7969   -0.2741 C   0  0  0  0  0  0  0  0  0  0  0  0
   -1.6743    0.1103    0.1106 S   0  0  0  0  0  0  0  0  0  0  0  0
   -0.4819    0.4848    1.3397 C   0  0  0  0  0  0  0  0  0  0  0  0
    0.2190   -0.4696    2.0657 C   0  0  0  0  0  0  0  0  0  0  0  0
   -0.0505   -1.8895    1.9711 C   0  0  0  0  0  0  0  0  0  0  0  0
   -0.2195   -2.7657    3.0071 C   0  0  0  0  0  0  0  0  0  0  0  0
   -0.4785   -4.0813    2.5826 C   0  0  0  0  0  0  0  0  0  0  0  0
   -0.4945   -4.2185    1.2280 C   0  0  0  0  0  0  0  0  0  0  0  0
   -0.7671   -5.4422    0.4251 C   0  0  0  0  0  0  0  0  0  0  0  0
   -2.1977   -5.4324   -0.1192 C   0  0  0  0  0  0  0  0  0  0  0  0
   -0.2124   -2.7020    0.4429 S   0  0  0  0  0  0  0  0  0  0  0  0
    1.2289    0.0097    2.9199 C   0  0  0  0  0  0  0  0  0  0  0  0
    1.4088    1.4015    3.1190 C   0  0  0  0  0  0  0  0  0  0  0  0
    0.6482    2.3564    2.4590 C   0  0  0  0  0  0  0  0  0  0  0  0
    0.8035    3.7723    2.7385 C   0  0  0  0  0  0  0  0  0  0  0  0
    1.9488    4.5110    2.7895 C   0  0  0  0  0  0  0  0  0  0  0  0
    1.7252    5.8610    3.1312 C   0  0  0  0  0  0  0  0  0  0  0  0
    0.4173    6.1535    3.3632 C   0  0  0  0  0  0  0  0  0  0  0  0
   -0.2255    7.4463    3.7373 C   0  0  0  0  0  0  0  0  0  0  0  0
    0.7791    8.5561    4.0217 C   0  0  0  0  0  0  0  0  0  0  0  0
   -0.5780    4.7476    3.1564 S   0  0  0  0  0  0  0  0  0  0  0  0
   -0.2718    1.8781    1.5069 C   0  0  0  0  0  0  0  0  0  0  0  0
   -1.0371    2.6030    0.5608 C   0  0  0  0  0  0  0  0  0  0  0  0
   -1.1409    4.2503    0.0902 S   0  0  0  0  0  0  0  0  0  0  0  0
    2.7146    1.7677    4.2360 S   0  0  0  0  0  0  0  0  0  0  0  0
    3.1047    0.0742    4.3421 C   0  0  0  0  0  0  0  0  0  0  0  0
    4.1393   -0.6361    4.9237 C   0  0  0  0  0  0  0  0  0  0  0  0
    4.0837   -1.9971    4.6132 C   0  0  0  0  0  0  0  0  0  0  0  0
    2.6809   -2.3812    3.6237 S   0  0  0  0  0  0  0  0  0  0  0  0
    2.2193   -0.7283    3.6125 C   0  0  0  0  0  0  0  0  0  0  0  0
    5.0800   -2.8966    5.0233 C   0  0  0  0  0  0  0  0  0  0  0  0
    5.2760   -4.2118    4.6861 C   0  0  0  0  0  0  0  0  0  0  0  0
    4.4391   -4.9993    3.7709 C   0  0  0  0  0  0  0  0  0  0  0  0
    3.3624   -4.6928    3.2943 O   0  0  0  0  0  0  0  0  0  0  0  0
    5.1674   -6.2618    3.5382 C   0  0  0  0  0  0  0  0  0  0  0  0
    4.8419   -7.3021    2.6962 C   0  0  0  0  0  0  0  0  0  0  0  0
    5.7157   -8.3881    2.6212 C   0  0  0  0  0  0  0  0  0  0  0  0
    5.3699   -9.4974    1.6930 C   0  0  0  0  0  0  0  0  0  0  0  0
    4.3551   -9.5407    1.0435 O   0  0  0  0  0  0  0  0  0  0  0  0
    6.3150  -10.4446    1.6489 O   0  0  0  0  0  0  0  0  0  0  0  0
    6.0593  -11.5323    0.7721 C   0  0  0  0  0  0  0  0  0  0  0  0
    6.8768   -8.4087    3.3924 C   0  0  0  0  0  0  0  0  0  0  0  0
    7.1965   -7.3622    4.2452 C   0  0  0  0  0  0  0  0  0  0  0  0
    6.3377   -6.2752    4.3188 C   0  0  0  0  0  0  0  0  0  0  0  0
    6.4055   -5.0301    5.0856 C   0  0  0  0  0  0  0  0  0  0  0  0
    7.3600   -4.7325    6.0227 C   0  0  0  0  0  0  0  0  0  0  0  0
    7.4142   -3.5530    6.7955 C   0  0  0  0  0  0  0  0  0  0  0  0
    7.5293   -2.6284    7.4671 N   0  0  0  0  0  0  0  0  0  0  0  0
    8.4267   -5.5901    6.3672 C   0  0  0  0  0  0  0  0  0  0  0  0
    9.3182   -6.2350    6.6940 N   0  0  0  0  0  0  0  0  0  0  0  0
   -2.2604    5.8715   -1.6950 H   0  0  0  0  0  0  0  0  0  0  0  0
   -4.3986    2.6606   -6.6096 H   0  0  0  0  0  0  0  0  0  0  0  0
   -5.8149    2.1897   -8.4437 H   0  0  0  0  0  0  0  0  0  0  0  0
   -4.0871    2.0762   -8.8835 H   0  0  0  0  0  0  0  0  0  0  0  0
   -5.3072    2.4160  -10.1361 H   0  0  0  0  0  0  0  0  0  0  0  0
   -3.5666    8.2770   -8.6990 H   0  0  0  0  0  0  0  0  0  0  0  0
   -5.2873    8.4204   -8.2466 H   0  0  0  0  0  0  0  0  0  0  0  0
   -4.8278    8.2098   -9.9550 H   0  0  0  0  0  0  0  0  0  0  0  0
   -3.9925    7.6167   -6.5038 H   0  0  0  0  0  0  0  0  0  0  0  0
   -3.1191    2.0239   -2.0190 H   0  0  0  0  0  0  0  0  0  0  0  0
   -0.1946   -2.4649    4.0394 H   0  0  0  0  0  0  0  0  0  0  0  0
   -0.6367   -4.9011    3.2597 H   0  0  0  0  0  0  0  0  0  0  0  0
   -0.0656   -5.4994   -0.4099 H   0  0  0  0  0  0  0  0  0  0  0  0
   -0.6193   -6.3190    1.0585 H   0  0  0  0  0  0  0  0  0  0  0  0
   -2.3862   -6.3318   -0.6996 H   0  0  0  0  0  0  0  0  0  0  0  0
   -2.3516   -4.5656   -0.7580 H   0  0  0  0  0  0  0  0  0  0  0  0
   -2.9133   -5.3892    0.6989 H   0  0  0  0  0  0  0  0  0  0  0  0
    2.9189    4.1099    2.5565 H   0  0  0  0  0  0  0  0  0  0  0  0
    2.5191    6.5815    3.1994 H   0  0  0  0  0  0  0  0  0  0  0  0
   -0.8542    7.2858    4.6183 H   0  0  0  0  0  0  0  0  0  0  0  0
   -0.8901    7.7561    2.9242 H   0  0  0  0  0  0  0  0  0  0  0  0
    0.2538    9.4617    4.3143 H   0  0  0  0  0  0  0  0  0  0  0  0
    1.4492    8.2700    4.8289 H   0  0  0  0  0  0  0  0  0  0  0  0
    1.3703    8.7750    3.1360 H   0  0  0  0  0  0  0  0  0  0  0  0
    4.9212   -0.2047    5.5219 H   0  0  0  0  0  0  0  0  0  0  0  0
    5.8262   -2.4393    5.6623 H   0  0  0  0  0  0  0  0  0  0  0  0
    3.9426   -7.2839    2.0997 H   0  0  0  0  0  0  0  0  0  0  0  0
    5.9384  -11.1726   -0.2518 H   0  0  0  0  0  0  0  0  0  0  0  0
    5.1470  -12.0530    1.0701 H   0  0  0  0  0  0  0  0  0  0  0  0
    6.9194  -12.1921    0.8475 H   0  0  0  0  0  0  0  0  0  0  0  0
    7.5384   -9.2573    3.3185 H   0  0  0  0  0  0  0  0  0  0  0  0
    8.1036   -7.4057    4.8253 H   0  0  0  0  0  0  0  0  0  0  0  0
  1  2  2  0  0  0  0
  2  3  1  0  0  0  0
  3  4  2  0  0  0  0
  3  5  1  0  0  0  0
  5  6  2  0  0  0  0
  6  7  1  0  0  0  0
  7  8  1  0  0  0  0
  8  9  1  0  0  0  0
  7 10  2  0  0  0  0
 10 11  1  0  0  0  0
 11 12  1  0  0  0  0
 10 13  1  0  0  0  0
 13 14  2  0  0  0  0
 14 15  1  0  0  0  0
 15 16  2  0  0  0  0
 16 17  1  0  0  0  0
 17 18  3  0  0  0  0
 16 19  1  0  0  0  0
 19 20  3  0  0  0  0
  1 21  1  0  0  0  0
 21 22  2  0  0  0  0
 22 23  1  0  0  0  0
 23 24  1  0  0  0  0
 24 25  1  0  0  0  0
 25 26  2  0  0  0  0
 26 27  1  0  0  0  0
 27 28  2  0  0  0  0
 28 29  1  0  0  0  0
 29 30  2  0  0  0  0
 30 31  1  0  0  0  0
 31 32  1  0  0  0  0
 30 33  1  0  0  0  0
 26 34  1  0  0  0  0
 34 35  2  0  0  0  0
 35 36  1  0  0  0  0
 36 37  1  0  0  0  0
 37 38  2  0  0  0  0
 38 39  1  0  0  0  0
 39 40  2  0  0  0  0
 40 41  1  0  0  0  0
 41 42  1  0  0  0  0
 40 43  1  0  0  0  0
 36 44  2  0  0  0  0
 44 45  1  0  0  0  0
 45 46  1  0  0  0  0
 35 47  1  0  0  0  0
 47 48  1  0  0  0  0
 48 49  1  0  0  0  0
 49 50  2  0  0  0  0
 50 51  1  0  0  0  0
 51 52  1  0  0  0  0
 50 53  1  0  0  0  0
 53 54  2  0  0  0  0
 54 55  1  0  0  0  0
 55 56  2  0  0  0  0
 55 57  1  0  0  0  0
 57 58  2  0  0  0  0
 58 59  1  0  0  0  0
 59 60  1  0  0  0  0
 60 61  2  0  0  0  0
 60 62  1  0  0  0  0
 62 63  1  0  0  0  0
 59 64  2  0  0  0  0
 64 65  1  0  0  0  0
 65 66  2  0  0  0  0
 66 67  1  0  0  0  0
 67 68  2  0  0  0  0
 68 69  1  0  0  0  0
 69 70  3  0  0  0  0
 68 71  1  0  0  0  0
 71 72  3  0  0  0  0
 15  2  1  0  0  0  0
 46 21  1  0  0  0  0
 52 48  2  0  0  0  0
 67 54  1  0  0  0  0
 14  5  1  0  0  0  0
 45 23  2  0  0  0  0
 66 57  1  0  0  0  0
 44 25  1  0  0  0  0
 33 27  1  0  0  0  0
 52 34  1  0  0  0  0
 43 37  1  0  0  0  0
  1 73  1  0  0  0  0
  6 74  1  0  0  0  0
  9 75  1  0  0  0  0
  9 76  1  0  0  0  0
  9 77  1  0  0  0  0
 12 78  1  0  0  0  0
 12 79  1  0  0  0  0
 12 80  1  0  0  0  0
 13 81  1  0  0  0  0
 22 82  1  0  0  0  0
 28 83  1  0  0  0  0
 29 84  1  0  0  0  0
 31 85  1  0  0  0  0
 31 86  1  0  0  0  0
 32 87  1  0  0  0  0
 32 88  1  0  0  0  0
 32 89  1  0  0  0  0
 38 90  1  0  0  0  0
 39 91  1  0  0  0  0
 41 92  1  0  0  0  0
 41 93  1  0  0  0  0
 42 94  1  0  0  0  0
 42 95  1  0  0  0  0
 42 96  1  0  0  0  0
 49 97  1  0  0  0  0
 53 98  1  0  0  0  0
 58 99  1  0  0  0  0
 63100  1  0  0  0  0
 63101  1  0  0  0  0
 63102  1  0  0  0  0
 64103  1  0  0  0  0
 65104  1  0  0  0  0
M  END
