111

C         -4.21940        6.36880       -0.44980
C         -4.87800        6.31890        0.75140
C         -5.05530        5.13540        1.60190
O         -4.74210        3.98270        1.34870
C         -5.69680        5.61330        2.83220
C         -6.03620        4.89230        3.96470
C         -6.62140        5.55960        5.03020
O         -6.99690        4.98820        6.19500
C         -6.78200        3.60680        6.36610
C         -6.86260        6.96060        4.94020
O         -7.42810        7.50890        6.03510
C         -7.68930        8.89490        6.04540
C         -6.52150        7.66550        3.79380
C         -5.93420        6.98990        2.73140
C         -5.46490        7.45810        1.43350
C         -5.57700        8.74430        0.96580
C         -5.14140        9.20840       -0.29160
N         -4.81620        9.66770       -1.29400
C         -6.16800        9.79460        1.69690
N         -6.63360       10.69010        2.24550
C         -3.54290        5.37300       -1.16710
C         -2.80100        5.64180       -2.32900
C         -2.62980        6.98170       -2.96750
C         -1.50100        7.76640       -2.29340
C         -2.15920        4.50000       -2.79410
S         -1.04350        4.22210       -4.12000
C         -0.91860        2.56710       -3.63040
C         -0.23020        1.39770       -3.98920
C          0.65600        1.11040       -5.05130
C          1.21370       -0.20860       -5.15620
N          1.99570       -0.34370       -6.21520
S          2.03110        1.06550       -7.01120
N          1.05190        1.90440       -6.03340
C          0.95340       -1.14520       -4.13020
C          1.53200       -2.38980       -3.84400
S          2.71820       -3.46080       -4.50040
C          2.58820       -4.45640       -3.06670
C          3.26430       -5.61050       -2.64880
C          4.22310       -6.35920       -3.51690
C          5.42010       -5.50710       -3.93780
C          2.80240       -6.03540       -1.40930
S          1.49370       -5.02400       -0.79600
C          1.62940       -3.98120       -2.15920
C          1.03500       -2.79620       -2.59900
N          0.15730       -1.86070       -2.11910
C          0.08280       -0.83860       -3.04520
C         -0.60880        0.39770       -3.04730
N         -1.55070        0.93030       -2.18470
C         -1.71320        2.25000       -2.52280
C         -2.42330        3.34930       -2.03450
S         -3.46170        3.67420       -0.69910
C         -2.63620        0.25480       -1.50400
C         -3.92040        0.30470       -2.33200
C         -0.24910       -1.89770       -0.73180
C         -1.34350       -2.93550       -0.48250
C          3.14770       -7.16090       -0.62650
C          4.41720       -7.60570       -0.37840
C          5.61120       -6.73360       -0.46000
O          5.68730       -5.61800       -0.92740
C          6.66450       -7.44800        0.29160
C          7.93260       -7.03310        0.57750
C          8.76700       -7.86430        1.35830
C         10.07990       -7.47880        1.69130
C         10.86140       -8.29310        2.46210
F         12.10890       -7.92170        2.78280
C         10.36710       -9.52700        2.92920
F         11.15540      -10.30430        3.68410
C          9.09820       -9.92990        2.62000
C          8.26600       -9.11240        1.82940
C          6.94830       -9.51660        1.51360
C          6.15830       -8.69480        0.75480
C          4.77820       -8.82790        0.30210
C          3.98800       -9.94280        0.41760
C          4.39160      -11.13010        1.05980
N          4.67290      -12.11430        1.57960
C          2.69410      -10.04440       -0.13410
N          1.64640      -10.18930       -0.58120
H         -4.16660        7.34130       -0.91970
H         -5.83360        3.83400        3.99130
H         -7.15580        3.37420        7.36150
H         -7.33330        3.02010        5.62480
H         -5.71790        3.35690        6.31010
H         -8.13190        9.09880        7.01860
H         -8.39460        9.17790        5.25850
H         -6.77020        9.47780        5.93460
H         -6.70720        8.72330        3.73550
H         -2.37640        6.82780       -4.01830
H         -3.55340        7.56030       -2.91980
H         -1.38040        8.72980       -2.78040
H         -1.72430        7.93660       -1.24270
H         -0.56450        7.21810       -2.36520
H          4.56810       -7.25280       -2.99570
H          3.68070       -6.67680       -4.41350
H          5.09770       -4.66120       -4.53880
H          5.93820       -5.13510       -3.05890
H          6.10890       -6.10830       -4.52570
H         -2.37350       -0.78370       -1.34210
H         -2.79900        0.75010       -0.54190
H         -4.70280       -0.24820       -1.81990
H         -4.25660        1.32850       -2.46800
H         -3.75670       -0.14310       -3.31030
H         -0.55590       -0.89810       -0.42340
H          0.62980       -2.17170       -0.13730
H         -2.18570       -2.80420       -1.15840
H         -1.69850       -2.85590        0.54100
H         -0.95000       -3.93720       -0.63240
H          2.32240       -7.64820       -0.11850
H          8.29330       -6.08130        0.21810
H         10.47260       -6.53650        1.34250
H          8.73540      -10.87800        2.98530
H          6.59120      -10.46100        1.89200
