
  xtb     02022201503D
 energy: -206.833645346799 gnorm: 0.000417819445 xtb: 6.4.1 (unknown)
111123  0     0  0            999 V2000
   -4.2194    6.3688   -0.4498 C   0  0  0  0  0  0  0  0  0  0  0  0
   -4.8780    6.3189    0.7514 C   0  0  0  0  0  0  0  0  0  0  0  0
   -5.0553    5.1354    1.6019 C   0  0  0  0  0  0  0  0  0  0  0  0
   -4.7421    3.9827    1.3487 O   0  0  0  0  0  0  0  0  0  0  0  0
   -5.6968    5.6133    2.8322 C   0  0  0  0  0  0  0  0  0  0  0  0
   -6.0362    4.8923    3.9647 C   0  0  0  0  0  0  0  0  0  0  0  0
   -6.6214    5.5596    5.0302 C   0  0  0  0  0  0  0  0  0  0  0  0
   -6.9969    4.9882    6.1950 O   0  0  0  0  0  0  0  0  0  0  0  0
   -6.7820    3.6068    6.3661 C   0  0  0  0  0  0  0  0  0  0  0  0
   -6.8626    6.9606    4.9402 C   0  0  0  0  0  0  0  0  0  0  0  0
   -7.4281    7.5089    6.0351 O   0  0  0  0  0  0  0  0  0  0  0  0
   -7.6893    8.8949    6.0454 C   0  0  0  0  0  0  0  0  0  0  0  0
   -6.5215    7.6655    3.7938 C   0  0  0  0  0  0  0  0  0  0  0  0
   -5.9342    6.9899    2.7314 C   0  0  0  0  0  0  0  0  0  0  0  0
   -5.4649    7.4581    1.4335 C   0  0  0  0  0  0  0  0  0  0  0  0
   -5.5770    8.7443    0.9658 C   0  0  0  0  0  0  0  0  0  0  0  0
   -5.1414    9.2084   -0.2916 C   0  0  0  0  0  0  0  0  0  0  0  0
   -4.8162    9.6677   -1.2940 N   0  0  0  0  0  0  0  0  0  0  0  0
   -6.1680    9.7946    1.6969 C   0  0  0  0  0  0  0  0  0  0  0  0
   -6.6336   10.6901    2.2455 N   0  0  0  0  0  0  0  0  0  0  0  0
   -3.5429    5.3730   -1.1671 C   0  0  0  0  0  0  0  0  0  0  0  0
   -2.8010    5.6418   -2.3290 C   0  0  0  0  0  0  0  0  0  0  0  0
   -2.6298    6.9817   -2.9675 C   0  0  0  0  0  0  0  0  0  0  0  0
   -1.5010    7.7664   -2.2934 C   0  0  0  0  0  0  0  0  0  0  0  0
   -2.1592    4.5000   -2.7941 C   0  0  0  0  0  0  0  0  0  0  0  0
   -1.0435    4.2221   -4.1200 S   0  0  0  0  0  0  0  0  0  0  0  0
   -0.9186    2.5671   -3.6304 C   0  0  0  0  0  0  0  0  0  0  0  0
   -0.2302    1.3977   -3.9892 C   0  0  0  0  0  0  0  0  0  0  0  0
    0.6560    1.1104   -5.0513 C   0  0  0  0  0  0  0  0  0  0  0  0
    1.2137   -0.2086   -5.1562 C   0  0  0  0  0  0  0  0  0  0  0  0
    1.9957   -0.3437   -6.2152 N   0  0  0  0  0  0  0  0  0  0  0  0
    2.0311    1.0655   -7.0112 S   0  0  0  0  0  0  0  0  0  0  0  0
    1.0519    1.9044   -6.0334 N   0  0  0  0  0  0  0  0  0  0  0  0
    0.9534   -1.1452   -4.1302 C   0  0  0  0  0  0  0  0  0  0  0  0
    1.5320   -2.3898   -3.8440 C   0  0  0  0  0  0  0  0  0  0  0  0
    2.7182   -3.4608   -4.5004 S   0  0  0  0  0  0  0  0  0  0  0  0
    2.5882   -4.4564   -3.0667 C   0  0  0  0  0  0  0  0  0  0  0  0
    3.2643   -5.6105   -2.6488 C   0  0  0  0  0  0  0  0  0  0  0  0
    4.2231   -6.3592   -3.5169 C   0  0  0  0  0  0  0  0  0  0  0  0
    5.4201   -5.5071   -3.9378 C   0  0  0  0  0  0  0  0  0  0  0  0
    2.8024   -6.0354   -1.4093 C   0  0  0  0  0  0  0  0  0  0  0  0
    1.4937   -5.0240   -0.7960 S   0  0  0  0  0  0  0  0  0  0  0  0
    1.6294   -3.9812   -2.1592 C   0  0  0  0  0  0  0  0  0  0  0  0
    1.0350   -2.7962   -2.5990 C   0  0  0  0  0  0  0  0  0  0  0  0
    0.1573   -1.8607   -2.1191 N   0  0  0  0  0  0  0  0  0  0  0  0
    0.0828   -0.8386   -3.0452 C   0  0  0  0  0  0  0  0  0  0  0  0
   -0.6088    0.3977   -3.0473 C   0  0  0  0  0  0  0  0  0  0  0  0
   -1.5507    0.9303   -2.1847 N   0  0  0  0  0  0  0  0  0  0  0  0
   -1.7132    2.2500   -2.5228 C   0  0  0  0  0  0  0  0  0  0  0  0
   -2.4233    3.3493   -2.0345 C   0  0  0  0  0  0  0  0  0  0  0  0
   -3.4617    3.6742   -0.6991 S   0  0  0  0  0  0  0  0  0  0  0  0
   -2.6362    0.2548   -1.5040 C   0  0  0  0  0  0  0  0  0  0  0  0
   -3.9204    0.3047   -2.3320 C   0  0  0  0  0  0  0  0  0  0  0  0
   -0.2491   -1.8977   -0.7318 C   0  0  0  0  0  0  0  0  0  0  0  0
   -1.3435   -2.9355   -0.4825 C   0  0  0  0  0  0  0  0  0  0  0  0
    3.1477   -7.1609   -0.6265 C   0  0  0  0  0  0  0  0  0  0  0  0
    4.4172   -7.6057   -0.3784 C   0  0  0  0  0  0  0  0  0  0  0  0
    5.6112   -6.7336   -0.4600 C   0  0  0  0  0  0  0  0  0  0  0  0
    5.6873   -5.6180   -0.9274 O   0  0  0  0  0  0  0  0  0  0  0  0
    6.6645   -7.4480    0.2916 C   0  0  0  0  0  0  0  0  0  0  0  0
    7.9326   -7.0331    0.5775 C   0  0  0  0  0  0  0  0  0  0  0  0
    8.7670   -7.8643    1.3583 C   0  0  0  0  0  0  0  0  0  0  0  0
   10.0799   -7.4788    1.6913 C   0  0  0  0  0  0  0  0  0  0  0  0
   10.8614   -8.2931    2.4621 C   0  0  0  0  0  0  0  0  0  0  0  0
   12.1089   -7.9217    2.7828 F   0  0  0  0  0  0  0  0  0  0  0  0
   10.3671   -9.5270    2.9292 C   0  0  0  0  0  0  0  0  0  0  0  0
   11.1554  -10.3043    3.6841 F   0  0  0  0  0  0  0  0  0  0  0  0
    9.0982   -9.9299    2.6200 C   0  0  0  0  0  0  0  0  0  0  0  0
    8.2660   -9.1124    1.8294 C   0  0  0  0  0  0  0  0  0  0  0  0
    6.9483   -9.5166    1.5136 C   0  0  0  0  0  0  0  0  0  0  0  0
    6.1583   -8.6948    0.7548 C   0  0  0  0  0  0  0  0  0  0  0  0
    4.7782   -8.8279    0.3021 C   0  0  0  0  0  0  0  0  0  0  0  0
    3.9880   -9.9428    0.4176 C   0  0  0  0  0  0  0  0  0  0  0  0
    4.3916  -11.1301    1.0598 C   0  0  0  0  0  0  0  0  0  0  0  0
    4.6729  -12.1143    1.5796 N   0  0  0  0  0  0  0  0  0  0  0  0
    2.6941  -10.0444   -0.1341 C   0  0  0  0  0  0  0  0  0  0  0  0
    1.6464  -10.1893   -0.5812 N   0  0  0  0  0  0  0  0  0  0  0  0
   -4.1666    7.3413   -0.9197 H   0  0  0  0  0  0  0  0  0  0  0  0
   -5.8336    3.8340    3.9913 H   0  0  0  0  0  0  0  0  0  0  0  0
   -7.1558    3.3742    7.3615 H   0  0  0  0  0  0  0  0  0  0  0  0
   -7.3333    3.0201    5.6248 H   0  0  0  0  0  0  0  0  0  0  0  0
   -5.7179    3.3569    6.3101 H   0  0  0  0  0  0  0  0  0  0  0  0
   -8.1319    9.0988    7.0186 H   0  0  0  0  0  0  0  0  0  0  0  0
   -8.3946    9.1779    5.2585 H   0  0  0  0  0  0  0  0  0  0  0  0
   -6.7702    9.4778    5.9346 H   0  0  0  0  0  0  0  0  0  0  0  0
   -6.7072    8.7233    3.7355 H   0  0  0  0  0  0  0  0  0  0  0  0
   -2.3764    6.8278   -4.0183 H   0  0  0  0  0  0  0  0  0  0  0  0
   -3.5534    7.5603   -2.9198 H   0  0  0  0  0  0  0  0  0  0  0  0
   -1.3804    8.7298   -2.7804 H   0  0  0  0  0  0  0  0  0  0  0  0
   -1.7243    7.9366   -1.2427 H   0  0  0  0  0  0  0  0  0  0  0  0
   -0.5645    7.2181   -2.3652 H   0  0  0  0  0  0  0  0  0  0  0  0
    4.5681   -7.2528   -2.9957 H   0  0  0  0  0  0  0  0  0  0  0  0
    3.6807   -6.6768   -4.4135 H   0  0  0  0  0  0  0  0  0  0  0  0
    5.0977   -4.6612   -4.5388 H   0  0  0  0  0  0  0  0  0  0  0  0
    5.9382   -5.1351   -3.0589 H   0  0  0  0  0  0  0  0  0  0  0  0
    6.1089   -6.1083   -4.5257 H   0  0  0  0  0  0  0  0  0  0  0  0
   -2.3735   -0.7837   -1.3421 H   0  0  0  0  0  0  0  0  0  0  0  0
   -2.7990    0.7501   -0.5419 H   0  0  0  0  0  0  0  0  0  0  0  0
   -4.7028   -0.2482   -1.8199 H   0  0  0  0  0  0  0  0  0  0  0  0
   -4.2566    1.3285   -2.4680 H   0  0  0  0  0  0  0  0  0  0  0  0
   -3.7567   -0.1431   -3.3103 H   0  0  0  0  0  0  0  0  0  0  0  0
   -0.5559   -0.8981   -0.4234 H   0  0  0  0  0  0  0  0  0  0  0  0
    0.6298   -2.1717   -0.1373 H   0  0  0  0  0  0  0  0  0  0  0  0
   -2.1857   -2.8042   -1.1584 H   0  0  0  0  0  0  0  0  0  0  0  0
   -1.6985   -2.8559    0.5410 H   0  0  0  0  0  0  0  0  0  0  0  0
   -0.9500   -3.9372   -0.6324 H   0  0  0  0  0  0  0  0  0  0  0  0
    2.3224   -7.6482   -0.1185 H   0  0  0  0  0  0  0  0  0  0  0  0
    8.2933   -6.0813    0.2181 H   0  0  0  0  0  0  0  0  0  0  0  0
   10.4726   -6.5365    1.3425 H   0  0  0  0  0  0  0  0  0  0  0  0
    8.7354  -10.8780    2.9853 H   0  0  0  0  0  0  0  0  0  0  0  0
    6.5912  -10.4610    1.8920 H   0  0  0  0  0  0  0  0  0  0  0  0
  1  2  2  0  0  0  0
  2  3  1  0  0  0  0
  3  4  2  0  0  0  0
  3  5  1  0  0  0  0
  5  6  2  0  0  0  0
  6  7  1  0  0  0  0
  7  8  1  0  0  0  0
  8  9  1  0  0  0  0
  7 10  2  0  0  0  0
 10 11  1  0  0  0  0
 11 12  1  0  0  0  0
 10 13  1  0  0  0  0
 13 14  2  0  0  0  0
 14 15  1  0  0  0  0
 15 16  2  0  0  0  0
 16 17  1  0  0  0  0
 17 18  3  0  0  0  0
 16 19  1  0  0  0  0
 19 20  3  0  0  0  0
  1 21  1  0  0  0  0
 21 22  2  0  0  0  0
 22 23  1  0  0  0  0
 23 24  1  0  0  0  0
 22 25  1  0  0  0  0
 25 26  1  0  0  0  0
 26 27  1  0  0  0  0
 27 28  1  0  0  0  0
 28 29  1  0  0  0  0
 29 30  1  0  0  0  0
 30 31  2  0  0  0  0
 31 32  1  0  0  0  0
 32 33  1  0  0  0  0
 30 34  1  0  0  0  0
 34 35  1  0  0  0  0
 35 36  1  0  0  0  0
 36 37  1  0  0  0  0
 37 38  1  0  0  0  0
 38 39  1  0  0  0  0
 39 40  1  0  0  0  0
 38 41  2  0  0  0  0
 41 42  1  0  0  0  0
 42 43  1  0  0  0  0
 43 44  1  0  0  0  0
 44 45  1  0  0  0  0
 45 46  1  0  0  0  0
 46 47  1  0  0  0  0
 47 48  1  0  0  0  0
 48 49  1  0  0  0  0
 49 50  1  0  0  0  0
 50 51  1  0  0  0  0
 48 52  1  0  0  0  0
 52 53  1  0  0  0  0
 45 54  1  0  0  0  0
 54 55  1  0  0  0  0
 41 56  1  0  0  0  0
 56 57  2  0  0  0  0
 57 58  1  0  0  0  0
 58 59  2  0  0  0  0
 58 60  1  0  0  0  0
 60 61  2  0  0  0  0
 61 62  1  0  0  0  0
 62 63  2  0  0  0  0
 63 64  1  0  0  0  0
 64 65  1  0  0  0  0
 64 66  2  0  0  0  0
 66 67  1  0  0  0  0
 66 68  1  0  0  0  0
 68 69  2  0  0  0  0
 69 70  1  0  0  0  0
 70 71  2  0  0  0  0
 71 72  1  0  0  0  0
 72 73  2  0  0  0  0
 73 74  1  0  0  0  0
 74 75  3  0  0  0  0
 73 76  1  0  0  0  0
 76 77  3  0  0  0  0
 15  2  1  0  0  0  0
 51 21  1  0  0  0  0
 72 57  1  0  0  0  0
 14  5  1  0  0  0  0
 50 25  2  0  0  0  0
 71 60  1  0  0  0  0
 49 27  2  0  0  0  0
 69 62  1  0  0  0  0
 47 28  2  0  0  0  0
 33 29  2  0  0  0  0
 46 34  2  0  0  0  0
 44 35  2  0  0  0  0
 43 37  2  0  0  0  0
  1 78  1  0  0  0  0
  6 79  1  0  0  0  0
  9 80  1  0  0  0  0
  9 81  1  0  0  0  0
  9 82  1  0  0  0  0
 12 83  1  0  0  0  0
 12 84  1  0  0  0  0
 12 85  1  0  0  0  0
 13 86  1  0  0  0  0
 23 87  1  0  0  0  0
 23 88  1  0  0  0  0
 24 89  1  0  0  0  0
 24 90  1  0  0  0  0
 24 91  1  0  0  0  0
 39 92  1  0  0  0  0
 39 93  1  0  0  0  0
 40 94  1  0  0  0  0
 40 95  1  0  0  0  0
 40 96  1  0  0  0  0
 52 97  1  0  0  0  0
 52 98  1  0  0  0  0
 53 99  1  0  0  0  0
 53100  1  0  0  0  0
 53101  1  0  0  0  0
 54102  1  0  0  0  0
 54103  1  0  0  0  0
 55104  1  0  0  0  0
 55105  1  0  0  0  0
 55106  1  0  0  0  0
 56107  1  0  0  0  0
 61108  1  0  0  0  0
 63109  1  0  0  0  0
 68110  1  0  0  0  0
 70111  1  0  0  0  0
M  END
