160

C          4.52410       -5.41680        4.45320
C          5.88030       -5.60110        4.49140
C          6.95380       -4.79580        3.86090
O          6.88800       -3.69500        3.34700
C          8.17320       -5.61020        3.97310
C          9.43560       -5.33250        3.47510
C         10.45130       -6.25420        3.67750
O         11.72510       -6.11650        3.24810
C         12.07070       -4.95290        2.53410
C         10.18060       -7.46020        4.38560
O         11.23610       -8.29080        4.51590
C         11.05860       -9.51380        5.19540
C          8.91150       -7.71740        4.88480
C          7.90120       -6.78560        4.68100
C          6.50330       -6.77560        5.08520
C          5.92150       -7.68780        5.92920
C          6.60370       -8.79690        6.46970
N          7.10380       -9.71970        6.93680
C          4.60080       -7.64540        6.42270
N          3.55350       -7.68720        6.89330
C          3.73800       -4.39250        3.89490
S          1.98530       -4.68250        3.88890
C          1.72580       -3.19050        3.08300
C          0.72040       -2.40380        2.52460
S         -0.98510       -2.46150        2.22280
C         -0.83980       -0.98040        1.33360
C         -1.72730       -0.23860        0.49680
C         -3.07090       -0.44090        0.19410
C         -3.63440        0.38900       -0.74650
C         -5.05370        0.36470       -1.28830
C         -6.09750        0.81570       -0.28160
C         -7.44380        0.63720       -0.57800
C         -8.41870        1.07710        0.29540
C         -8.07740        1.71050        1.48430
C         -9.14080        2.22570        2.41050
C         -9.56000        3.64080        2.00720
C         -6.73220        1.89830        1.76800
C         -5.75090        1.46070        0.89600
C         -5.34180       -1.02700       -1.81780
C         -5.83650       -2.00650       -0.96570
C         -6.05420       -3.29120       -1.42520
C         -5.77840       -3.63460       -2.74250
C         -6.06460       -5.01750       -3.25200
C         -7.49810       -5.10520       -3.77990
C         -5.27590       -2.65430       -3.58730
C         -5.05300       -1.36800       -3.13160
C         -4.96720        1.42570       -2.35640
C         -3.69530        2.00940       -2.36370
C         -2.86160        1.38450       -1.38970
C         -1.52230        1.60170       -1.06640
C         -0.96530        0.78920       -0.11020
C          0.45960        0.79890        0.43570
C          0.61750        2.07640        1.23990
C          0.73760        3.30130        0.59250
C          0.84760        4.47370        1.31470
C          0.82940        4.46320        2.70370
C          1.00320        5.73320        3.48470
C          2.48840        6.00760        3.73090
C          0.69200        3.24190        3.34760
C          0.58210        2.06510        2.62780
C          1.50270        0.60000       -0.64900
C          2.66730        1.34750       -0.72540
C          3.62710        1.05600       -1.67840
C          3.45430        0.01170       -2.57380
C          4.52810       -0.35080       -3.55800
C          5.35940       -1.52250       -3.03180
C          2.27980       -0.72820       -2.50190
C          1.31830       -0.44010       -1.55450
C          0.43640       -0.44030        1.29790
C          1.34550       -1.25270        1.97760
N          2.69870       -1.31510        2.21110
C          2.94530       -2.50490        2.86270
C          4.06960       -3.17510        3.32050
C          3.68820       -0.41550        1.83510
C          3.81480        0.89500        2.17550
C          4.99050        1.47310        1.64880
C          5.74640        0.60880        0.92130
C          7.06870        0.84420        0.27620
C          8.17160        0.05060        0.97920
S          5.01420       -0.96080        0.84950
S         -3.51840        3.24210       -3.53080
C         -5.18310        2.98980       -4.04700
C         -5.80630        1.97960       -3.29340
C         -5.84870        3.65320       -5.07990
C         -5.42070        4.63850       -5.94090
C         -4.09680        5.26240       -5.93900
O         -3.15890        5.03360       -5.19700
C         -4.11280        6.25370       -7.03700
C         -3.10080        7.09860       -7.44250
C         -3.34610        7.95300       -8.51090
Cl        -2.12830        9.03220       -9.06980
C         -4.59580        7.92930       -9.13220
F         -4.82620        8.75510      -10.16080
C         -5.61660        7.08170       -8.72860
C         -5.36990        6.23000       -7.66380
C         -6.20820        5.22930       -7.00240
C         -7.49800        4.92780       -7.36060
C         -8.32490        3.96370       -6.74770
N         -9.06420        3.20080       -6.31000
C         -8.18950        5.55280       -8.41960
N         -8.81040        6.01590       -9.26690
H          3.92800       -6.21180        4.88670
H          9.59550       -4.40880        2.94300
H         11.92280       -4.05260        3.13850
H         11.49660       -4.86640        1.60620
H         13.12770       -5.05910        2.29660
H         10.74890       -9.35750        6.23280
H         12.03250       -9.99950        5.17730
H         10.32560      -10.15050        4.69100
H          8.71480       -8.63170        5.41580
H         -3.63170       -1.22880        0.67240
H         -7.72700        0.13930       -1.49400
H         -9.46050        0.92510        0.05210
H         -8.76460        2.23990        3.43540
H        -10.01240        1.56910        2.37490
H         -9.95030        3.64520        0.99200
H        -10.33030        4.01510        2.67740
H         -8.70650        4.31400        2.04760
H         -6.44430        2.39290        2.68480
H         -4.71080        1.62210        1.13950
H         -6.06440       -1.75890        0.06110
H         -6.44210       -4.03990       -0.74920
H         -5.93260       -5.74330       -2.44710
H         -5.36920       -5.26760       -4.05580
H         -7.70680       -6.10610       -4.15000
H         -7.64630       -4.39640       -4.59160
H         -8.20730       -4.87200       -2.98890
H         -5.05130       -2.90030       -4.61550
H         -4.65310       -0.62490       -3.80630
H         -0.95960        2.36510       -1.57930
H          0.75520        3.34110       -0.48580
H          0.94440        5.41360        0.79020
H          0.48810        5.65270        4.44390
H          0.56970        6.56930        2.93240
H          2.61690        6.92800        4.29540
H          3.01700        6.10370        2.78490
H          2.93630        5.19060        4.29240
H          0.66650        3.20740        4.42770
H          0.46570        1.13160        3.15940
H          2.84280        2.15640       -0.03380
H          4.52860        1.65110       -1.71600
H          5.17970        0.50870       -3.72810
H          4.07710       -0.63100       -4.51240
H          4.73080       -2.39750       -2.88510
H          6.14920       -1.77570       -3.73530
H          5.81070       -1.26950       -2.07480
H          2.11910       -1.54240       -3.19390
H          0.41390       -1.03090       -1.51010
H          5.08360       -2.83040        3.23980
H          3.10090        1.42440        2.78030
H          5.26590        2.49910        1.81730
H          7.29510        1.91170        0.31770
H          7.02670        0.54460       -0.77450
H          9.12800        0.21740        0.48990
H          8.25290        0.35800        2.01910
H          7.94440       -1.01270        0.95360
H         -6.82680        1.68930       -3.46880
H         -6.86790        3.31020       -5.21060
H         -2.14600        7.09320       -6.94160
H         -6.55720        7.11560       -9.25340
