
  xtb     02012216253D
 energy: -267.302762594299 gnorm: 0.000532755434 xtb: 6.4.1 (unknown)
160175  0     0  0            999 V2000
    4.5241   -5.4168    4.4532 C   0  0  0  0  0  0  0  0  0  0  0  0
    5.8803   -5.6011    4.4914 C   0  0  0  0  0  0  0  0  0  0  0  0
    6.9538   -4.7958    3.8609 C   0  0  0  0  0  0  0  0  0  0  0  0
    6.8880   -3.6950    3.3470 O   0  0  0  0  0  0  0  0  0  0  0  0
    8.1732   -5.6102    3.9731 C   0  0  0  0  0  0  0  0  0  0  0  0
    9.4356   -5.3325    3.4751 C   0  0  0  0  0  0  0  0  0  0  0  0
   10.4513   -6.2542    3.6775 C   0  0  0  0  0  0  0  0  0  0  0  0
   11.7251   -6.1165    3.2481 O   0  0  0  0  0  0  0  0  0  0  0  0
   12.0707   -4.9529    2.5341 C   0  0  0  0  0  0  0  0  0  0  0  0
   10.1806   -7.4602    4.3856 C   0  0  0  0  0  0  0  0  0  0  0  0
   11.2361   -8.2908    4.5159 O   0  0  0  0  0  0  0  0  0  0  0  0
   11.0586   -9.5138    5.1954 C   0  0  0  0  0  0  0  0  0  0  0  0
    8.9115   -7.7174    4.8848 C   0  0  0  0  0  0  0  0  0  0  0  0
    7.9012   -6.7856    4.6810 C   0  0  0  0  0  0  0  0  0  0  0  0
    6.5033   -6.7756    5.0852 C   0  0  0  0  0  0  0  0  0  0  0  0
    5.9215   -7.6878    5.9292 C   0  0  0  0  0  0  0  0  0  0  0  0
    6.6037   -8.7969    6.4697 C   0  0  0  0  0  0  0  0  0  0  0  0
    7.1038   -9.7197    6.9368 N   0  0  0  0  0  0  0  0  0  0  0  0
    4.6008   -7.6454    6.4227 C   0  0  0  0  0  0  0  0  0  0  0  0
    3.5535   -7.6872    6.8933 N   0  0  0  0  0  0  0  0  0  0  0  0
    3.7380   -4.3925    3.8949 C   0  0  0  0  0  0  0  0  0  0  0  0
    1.9853   -4.6825    3.8889 S   0  0  0  0  0  0  0  0  0  0  0  0
    1.7258   -3.1905    3.0830 C   0  0  0  0  0  0  0  0  0  0  0  0
    0.7204   -2.4038    2.5246 C   0  0  0  0  0  0  0  0  0  0  0  0
   -0.9851   -2.4615    2.2228 S   0  0  0  0  0  0  0  0  0  0  0  0
   -0.8398   -0.9804    1.3336 C   0  0  0  0  0  0  0  0  0  0  0  0
   -1.7273   -0.2386    0.4968 C   0  0  0  0  0  0  0  0  0  0  0  0
   -3.0709   -0.4409    0.1941 C   0  0  0  0  0  0  0  0  0  0  0  0
   -3.6344    0.3890   -0.7465 C   0  0  0  0  0  0  0  0  0  0  0  0
   -5.0537    0.3647   -1.2883 C   0  0  0  0  0  0  0  0  0  0  0  0
   -6.0975    0.8157   -0.2816 C   0  0  0  0  0  0  0  0  0  0  0  0
   -7.4438    0.6372   -0.5780 C   0  0  0  0  0  0  0  0  0  0  0  0
   -8.4187    1.0771    0.2954 C   0  0  0  0  0  0  0  0  0  0  0  0
   -8.0774    1.7105    1.4843 C   0  0  0  0  0  0  0  0  0  0  0  0
   -9.1408    2.2257    2.4105 C   0  0  0  0  0  0  0  0  0  0  0  0
   -9.5600    3.6408    2.0072 C   0  0  0  0  0  0  0  0  0  0  0  0
   -6.7322    1.8983    1.7680 C   0  0  0  0  0  0  0  0  0  0  0  0
   -5.7509    1.4607    0.8960 C   0  0  0  0  0  0  0  0  0  0  0  0
   -5.3418   -1.0270   -1.8178 C   0  0  0  0  0  0  0  0  0  0  0  0
   -5.8365   -2.0065   -0.9657 C   0  0  0  0  0  0  0  0  0  0  0  0
   -6.0542   -3.2912   -1.4252 C   0  0  0  0  0  0  0  0  0  0  0  0
   -5.7784   -3.6346   -2.7425 C   0  0  0  0  0  0  0  0  0  0  0  0
   -6.0646   -5.0175   -3.2520 C   0  0  0  0  0  0  0  0  0  0  0  0
   -7.4981   -5.1052   -3.7799 C   0  0  0  0  0  0  0  0  0  0  0  0
   -5.2759   -2.6543   -3.5873 C   0  0  0  0  0  0  0  0  0  0  0  0
   -5.0530   -1.3680   -3.1316 C   0  0  0  0  0  0  0  0  0  0  0  0
   -4.9672    1.4257   -2.3564 C   0  0  0  0  0  0  0  0  0  0  0  0
   -3.6953    2.0094   -2.3637 C   0  0  0  0  0  0  0  0  0  0  0  0
   -2.8616    1.3845   -1.3897 C   0  0  0  0  0  0  0  0  0  0  0  0
   -1.5223    1.6017   -1.0664 C   0  0  0  0  0  0  0  0  0  0  0  0
   -0.9653    0.7892   -0.1102 C   0  0  0  0  0  0  0  0  0  0  0  0
    0.4596    0.7989    0.4357 C   0  0  0  0  0  0  0  0  0  0  0  0
    0.6175    2.0764    1.2399 C   0  0  0  0  0  0  0  0  0  0  0  0
    0.7376    3.3013    0.5925 C   0  0  0  0  0  0  0  0  0  0  0  0
    0.8476    4.4737    1.3147 C   0  0  0  0  0  0  0  0  0  0  0  0
    0.8294    4.4632    2.7037 C   0  0  0  0  0  0  0  0  0  0  0  0
    1.0032    5.7332    3.4847 C   0  0  0  0  0  0  0  0  0  0  0  0
    2.4884    6.0076    3.7309 C   0  0  0  0  0  0  0  0  0  0  0  0
    0.6920    3.2419    3.3476 C   0  0  0  0  0  0  0  0  0  0  0  0
    0.5821    2.0651    2.6278 C   0  0  0  0  0  0  0  0  0  0  0  0
    1.5027    0.6000   -0.6490 C   0  0  0  0  0  0  0  0  0  0  0  0
    2.6673    1.3475   -0.7254 C   0  0  0  0  0  0  0  0  0  0  0  0
    3.6271    1.0560   -1.6784 C   0  0  0  0  0  0  0  0  0  0  0  0
    3.4543    0.0117   -2.5738 C   0  0  0  0  0  0  0  0  0  0  0  0
    4.5281   -0.3508   -3.5580 C   0  0  0  0  0  0  0  0  0  0  0  0
    5.3594   -1.5225   -3.0318 C   0  0  0  0  0  0  0  0  0  0  0  0
    2.2798   -0.7282   -2.5019 C   0  0  0  0  0  0  0  0  0  0  0  0
    1.3183   -0.4401   -1.5545 C   0  0  0  0  0  0  0  0  0  0  0  0
    0.4364   -0.4403    1.2979 C   0  0  0  0  0  0  0  0  0  0  0  0
    1.3455   -1.2527    1.9776 C   0  0  0  0  0  0  0  0  0  0  0  0
    2.6987   -1.3151    2.2111 N   0  0  0  0  0  0  0  0  0  0  0  0
    2.9453   -2.5049    2.8627 C   0  0  0  0  0  0  0  0  0  0  0  0
    4.0696   -3.1751    3.3205 C   0  0  0  0  0  0  0  0  0  0  0  0
    3.6882   -0.4155    1.8351 C   0  0  0  0  0  0  0  0  0  0  0  0
    3.8148    0.8950    2.1755 C   0  0  0  0  0  0  0  0  0  0  0  0
    4.9905    1.4731    1.6488 C   0  0  0  0  0  0  0  0  0  0  0  0
    5.7464    0.6088    0.9213 C   0  0  0  0  0  0  0  0  0  0  0  0
    7.0687    0.8442    0.2762 C   0  0  0  0  0  0  0  0  0  0  0  0
    8.1716    0.0506    0.9792 C   0  0  0  0  0  0  0  0  0  0  0  0
    5.0142   -0.9608    0.8495 S   0  0  0  0  0  0  0  0  0  0  0  0
   -3.5184    3.2421   -3.5308 S   0  0  0  0  0  0  0  0  0  0  0  0
   -5.1831    2.9898   -4.0470 C   0  0  0  0  0  0  0  0  0  0  0  0
   -5.8063    1.9796   -3.2934 C   0  0  0  0  0  0  0  0  0  0  0  0
   -5.8487    3.6532   -5.0799 C   0  0  0  0  0  0  0  0  0  0  0  0
   -5.4207    4.6385   -5.9409 C   0  0  0  0  0  0  0  0  0  0  0  0
   -4.0968    5.2624   -5.9390 C   0  0  0  0  0  0  0  0  0  0  0  0
   -3.1589    5.0336   -5.1970 O   0  0  0  0  0  0  0  0  0  0  0  0
   -4.1128    6.2537   -7.0370 C   0  0  0  0  0  0  0  0  0  0  0  0
   -3.1008    7.0986   -7.4425 C   0  0  0  0  0  0  0  0  0  0  0  0
   -3.3461    7.9530   -8.5109 C   0  0  0  0  0  0  0  0  0  0  0  0
   -2.1283    9.0322   -9.0698 Cl  0  0  0  0  0  0  0  0  0  0  0  0
   -4.5958    7.9293   -9.1322 C   0  0  0  0  0  0  0  0  0  0  0  0
   -4.8262    8.7551  -10.1608 F   0  0  0  0  0  0  0  0  0  0  0  0
   -5.6166    7.0817   -8.7286 C   0  0  0  0  0  0  0  0  0  0  0  0
   -5.3699    6.2300   -7.6638 C   0  0  0  0  0  0  0  0  0  0  0  0
   -6.2082    5.2293   -7.0024 C   0  0  0  0  0  0  0  0  0  0  0  0
   -7.4980    4.9278   -7.3606 C   0  0  0  0  0  0  0  0  0  0  0  0
   -8.3249    3.9637   -6.7477 C   0  0  0  0  0  0  0  0  0  0  0  0
   -9.0642    3.2008   -6.3100 N   0  0  0  0  0  0  0  0  0  0  0  0
   -8.1895    5.5528   -8.4196 C   0  0  0  0  0  0  0  0  0  0  0  0
   -8.8104    6.0159   -9.2669 N   0  0  0  0  0  0  0  0  0  0  0  0
    3.9280   -6.2118    4.8867 H   0  0  0  0  0  0  0  0  0  0  0  0
    9.5955   -4.4088    2.9430 H   0  0  0  0  0  0  0  0  0  0  0  0
   11.9228   -4.0526    3.1385 H   0  0  0  0  0  0  0  0  0  0  0  0
   11.4966   -4.8664    1.6062 H   0  0  0  0  0  0  0  0  0  0  0  0
   13.1277   -5.0591    2.2966 H   0  0  0  0  0  0  0  0  0  0  0  0
   10.7489   -9.3575    6.2328 H   0  0  0  0  0  0  0  0  0  0  0  0
   12.0325   -9.9995    5.1773 H   0  0  0  0  0  0  0  0  0  0  0  0
   10.3256  -10.1505    4.6910 H   0  0  0  0  0  0  0  0  0  0  0  0
    8.7148   -8.6317    5.4158 H   0  0  0  0  0  0  0  0  0  0  0  0
   -3.6317   -1.2288    0.6724 H   0  0  0  0  0  0  0  0  0  0  0  0
   -7.7270    0.1393   -1.4940 H   0  0  0  0  0  0  0  0  0  0  0  0
   -9.4605    0.9251    0.0521 H   0  0  0  0  0  0  0  0  0  0  0  0
   -8.7646    2.2399    3.4354 H   0  0  0  0  0  0  0  0  0  0  0  0
  -10.0124    1.5691    2.3749 H   0  0  0  0  0  0  0  0  0  0  0  0
   -9.9503    3.6452    0.9920 H   0  0  0  0  0  0  0  0  0  0  0  0
  -10.3303    4.0151    2.6774 H   0  0  0  0  0  0  0  0  0  0  0  0
   -8.7065    4.3140    2.0476 H   0  0  0  0  0  0  0  0  0  0  0  0
   -6.4443    2.3929    2.6848 H   0  0  0  0  0  0  0  0  0  0  0  0
   -4.7108    1.6221    1.1395 H   0  0  0  0  0  0  0  0  0  0  0  0
   -6.0644   -1.7589    0.0611 H   0  0  0  0  0  0  0  0  0  0  0  0
   -6.4421   -4.0399   -0.7492 H   0  0  0  0  0  0  0  0  0  0  0  0
   -5.9326   -5.7433   -2.4471 H   0  0  0  0  0  0  0  0  0  0  0  0
   -5.3692   -5.2676   -4.0558 H   0  0  0  0  0  0  0  0  0  0  0  0
   -7.7068   -6.1061   -4.1500 H   0  0  0  0  0  0  0  0  0  0  0  0
   -7.6463   -4.3964   -4.5916 H   0  0  0  0  0  0  0  0  0  0  0  0
   -8.2073   -4.8720   -2.9889 H   0  0  0  0  0  0  0  0  0  0  0  0
   -5.0513   -2.9003   -4.6155 H   0  0  0  0  0  0  0  0  0  0  0  0
   -4.6531   -0.6249   -3.8063 H   0  0  0  0  0  0  0  0  0  0  0  0
   -0.9596    2.3651   -1.5793 H   0  0  0  0  0  0  0  0  0  0  0  0
    0.7552    3.3411   -0.4858 H   0  0  0  0  0  0  0  0  0  0  0  0
    0.9444    5.4136    0.7902 H   0  0  0  0  0  0  0  0  0  0  0  0
    0.4881    5.6527    4.4439 H   0  0  0  0  0  0  0  0  0  0  0  0
    0.5697    6.5693    2.9324 H   0  0  0  0  0  0  0  0  0  0  0  0
    2.6169    6.9280    4.2954 H   0  0  0  0  0  0  0  0  0  0  0  0
    3.0170    6.1037    2.7849 H   0  0  0  0  0  0  0  0  0  0  0  0
    2.9363    5.1906    4.2924 H   0  0  0  0  0  0  0  0  0  0  0  0
    0.6665    3.2074    4.4277 H   0  0  0  0  0  0  0  0  0  0  0  0
    0.4657    1.1316    3.1594 H   0  0  0  0  0  0  0  0  0  0  0  0
    2.8428    2.1564   -0.0338 H   0  0  0  0  0  0  0  0  0  0  0  0
    4.5286    1.6511   -1.7160 H   0  0  0  0  0  0  0  0  0  0  0  0
    5.1797    0.5087   -3.7281 H   0  0  0  0  0  0  0  0  0  0  0  0
    4.0771   -0.6310   -4.5124 H   0  0  0  0  0  0  0  0  0  0  0  0
    4.7308   -2.3975   -2.8851 H   0  0  0  0  0  0  0  0  0  0  0  0
    6.1492   -1.7757   -3.7353 H   0  0  0  0  0  0  0  0  0  0  0  0
    5.8107   -1.2695   -2.0748 H   0  0  0  0  0  0  0  0  0  0  0  0
    2.1191   -1.5424   -3.1939 H   0  0  0  0  0  0  0  0  0  0  0  0
    0.4139   -1.0309   -1.5101 H   0  0  0  0  0  0  0  0  0  0  0  0
    5.0836   -2.8304    3.2398 H   0  0  0  0  0  0  0  0  0  0  0  0
    3.1009    1.4244    2.7803 H   0  0  0  0  0  0  0  0  0  0  0  0
    5.2659    2.4991    1.8173 H   0  0  0  0  0  0  0  0  0  0  0  0
    7.2951    1.9117    0.3177 H   0  0  0  0  0  0  0  0  0  0  0  0
    7.0267    0.5446   -0.7745 H   0  0  0  0  0  0  0  0  0  0  0  0
    9.1280    0.2174    0.4899 H   0  0  0  0  0  0  0  0  0  0  0  0
    8.2529    0.3580    2.0191 H   0  0  0  0  0  0  0  0  0  0  0  0
    7.9444   -1.0127    0.9536 H   0  0  0  0  0  0  0  0  0  0  0  0
   -6.8268    1.6893   -3.4688 H   0  0  0  0  0  0  0  0  0  0  0  0
   -6.8679    3.3102   -5.2106 H   0  0  0  0  0  0  0  0  0  0  0  0
   -2.1460    7.0932   -6.9416 H   0  0  0  0  0  0  0  0  0  0  0  0
   -6.5572    7.1156   -9.2534 H   0  0  0  0  0  0  0  0  0  0  0  0
  1  2  2  0  0  0  0
  2  3  1  0  0  0  0
  3  4  2  0  0  0  0
  3  5  1  0  0  0  0
  5  6  2  0  0  0  0
  6  7  1  0  0  0  0
  7  8  1  0  0  0  0
  8  9  1  0  0  0  0
  7 10  2  0  0  0  0
 10 11  1  0  0  0  0
 11 12  1  0  0  0  0
 10 13  1  0  0  0  0
 13 14  2  0  0  0  0
 14 15  1  0  0  0  0
 15 16  2  0  0  0  0
 16 17  1  0  0  0  0
 17 18  3  0  0  0  0
 16 19  1  0  0  0  0
 19 20  3  0  0  0  0
  1 21  1  0  0  0  0
 21 22  1  0  0  0  0
 22 23  1  0  0  0  0
 23 24  1  0  0  0  0
 24 25  1  0  0  0  0
 25 26  1  0  0  0  0
 26 27  1  0  0  0  0
 27 28  2  0  0  0  0
 28 29  1  0  0  0  0
 29 30  1  0  0  0  0
 30 31  1  0  0  0  0
 31 32  2  0  0  0  0
 32 33  1  0  0  0  0
 33 34  2  0  0  0  0
 34 35  1  0  0  0  0
 35 36  1  0  0  0  0
 34 37  1  0  0  0  0
 37 38  2  0  0  0  0
 30 39  1  0  0  0  0
 39 40  2  0  0  0  0
 40 41  1  0  0  0  0
 41 42  2  0  0  0  0
 42 43  1  0  0  0  0
 43 44  1  0  0  0  0
 42 45  1  0  0  0  0
 45 46  2  0  0  0  0
 30 47  1  0  0  0  0
 47 48  2  0  0  0  0
 48 49  1  0  0  0  0
 49 50  1  0  0  0  0
 50 51  2  0  0  0  0
 51 52  1  0  0  0  0
 52 53  1  0  0  0  0
 53 54  2  0  0  0  0
 54 55  1  0  0  0  0
 55 56  2  0  0  0  0
 56 57  1  0  0  0  0
 57 58  1  0  0  0  0
 56 59  1  0  0  0  0
 59 60  2  0  0  0  0
 52 61  1  0  0  0  0
 61 62  2  0  0  0  0
 62 63  1  0  0  0  0
 63 64  2  0  0  0  0
 64 65  1  0  0  0  0
 65 66  1  0  0  0  0
 64 67  1  0  0  0  0
 67 68  2  0  0  0  0
 52 69  1  0  0  0  0
 69 70  1  0  0  0  0
 70 71  1  0  0  0  0
 71 72  1  0  0  0  0
 72 73  1  0  0  0  0
 71 74  1  0  0  0  0
 74 75  2  0  0  0  0
 75 76  1  0  0  0  0
 76 77  2  0  0  0  0
 77 78  1  0  0  0  0
 78 79  1  0  0  0  0
 77 80  1  0  0  0  0
 48 81  1  0  0  0  0
 81 82  1  0  0  0  0
 82 83  2  0  0  0  0
 82 84  1  0  0  0  0
 84 85  2  0  0  0  0
 85 86  1  0  0  0  0
 86 87  2  0  0  0  0
 86 88  1  0  0  0  0
 88 89  2  0  0  0  0
 89 90  1  0  0  0  0
 90 91  1  0  0  0  0
 90 92  2  0  0  0  0
 92 93  1  0  0  0  0
 92 94  1  0  0  0  0
 94 95  2  0  0  0  0
 95 96  1  0  0  0  0
 96 97  2  0  0  0  0
 97 98  1  0  0  0  0
 98 99  3  0  0  0  0
 97100  1  0  0  0  0
100101  3  0  0  0  0
 15  2  1  0  0  0  0
 73 21  2  0  0  0  0
 80 74  1  0  0  0  0
 96 85  1  0  0  0  0
 14  5  1  0  0  0  0
 72 23  2  0  0  0  0
 95 88  1  0  0  0  0
 70 24  2  0  0  0  0
 69 26  2  0  0  0  0
 51 27  1  0  0  0  0
 60 53  1  0  0  0  0
 68 61  1  0  0  0  0
 49 29  2  0  0  0  0
 38 31  1  0  0  0  0
 46 39  1  0  0  0  0
 83 47  1  0  0  0  0
  1102  1  0  0  0  0
  6103  1  0  0  0  0
  9104  1  0  0  0  0
  9105  1  0  0  0  0
  9106  1  0  0  0  0
 12107  1  0  0  0  0
 12108  1  0  0  0  0
 12109  1  0  0  0  0
 13110  1  0  0  0  0
 28111  1  0  0  0  0
 32112  1  0  0  0  0
 33113  1  0  0  0  0
 35114  1  0  0  0  0
 35115  1  0  0  0  0
 36116  1  0  0  0  0
 36117  1  0  0  0  0
 36118  1  0  0  0  0
 37119  1  0  0  0  0
 38120  1  0  0  0  0
 40121  1  0  0  0  0
 41122  1  0  0  0  0
 43123  1  0  0  0  0
 43124  1  0  0  0  0
 44125  1  0  0  0  0
 44126  1  0  0  0  0
 44127  1  0  0  0  0
 45128  1  0  0  0  0
 46129  1  0  0  0  0
 50130  1  0  0  0  0
 54131  1  0  0  0  0
 55132  1  0  0  0  0
 57133  1  0  0  0  0
 57134  1  0  0  0  0
 58135  1  0  0  0  0
 58136  1  0  0  0  0
 58137  1  0  0  0  0
 59138  1  0  0  0  0
 60139  1  0  0  0  0
 62140  1  0  0  0  0
 63141  1  0  0  0  0
 65142  1  0  0  0  0
 65143  1  0  0  0  0
 66144  1  0  0  0  0
 66145  1  0  0  0  0
 66146  1  0  0  0  0
 67147  1  0  0  0  0
 68148  1  0  0  0  0
 73149  1  0  0  0  0
 75150  1  0  0  0  0
 76151  1  0  0  0  0
 78152  1  0  0  0  0
 78153  1  0  0  0  0
 79154  1  0  0  0  0
 79155  1  0  0  0  0
 79156  1  0  0  0  0
 83157  1  0  0  0  0
 84158  1  0  0  0  0
 89159  1  0  0  0  0
 94160  1  0  0  0  0
M  END
