106

C          6.07960       -2.08230        2.70430
C          7.00790       -1.08770        2.83190
C          6.93290        0.25860        2.23820
O          6.02530        0.73300        1.57540
C          8.18820        0.92720        2.59090
C          8.60580        2.20420        2.25380
C          9.84600        2.63940        2.69540
O         10.38010        3.85160        2.44220
C          9.63960        4.76520        1.66570
C         10.65940        1.77260        3.48290
O         11.84320        2.29490        3.85790
C         12.71490        1.51450        4.64630
C         10.22250        0.49660        3.81200
C          8.97920        0.06730        3.36370
C          8.27250       -1.19280        3.54580
C          8.72990       -2.26020        4.27490
C          9.97060       -2.27640        4.94580
N         10.96860       -2.34860        5.50930
C          8.05240       -3.48040        4.47830
N          7.57600       -4.50320        4.69510
C          4.83200       -2.08370        2.04920
C          4.02670       -3.21900        1.98040
C          2.84410       -2.97860        1.29850
S          1.45190       -3.95050        0.91530
C          0.67870       -2.56380        0.16870
C         -0.59410       -2.57210       -0.38580
C         -1.39500       -3.78170       -0.46270
C         -1.99520       -4.30780       -1.56940
C         -2.67320       -5.50740       -1.27680
F         -3.32710       -6.20490       -2.22150
C         -2.61790       -5.90540        0.02580
C         -3.20620       -7.12370        0.64750
C         -2.11800       -8.09680        1.10360
S         -1.68070       -4.77350        0.93720
C         -1.07830       -1.35020       -0.88640
C         -0.25630       -0.19370       -0.87560
C          1.03590       -0.20110       -0.37390
C          1.87160        0.99140       -0.38870
S          3.39080        1.00420       -1.23390
C          3.74010        2.61390       -0.71320
C          5.02730        3.28340       -1.04660
C          5.25750        3.36850       -2.55420
C          2.70270        3.08700        0.03160
C          1.63250        2.18760        0.21750
F          2.70030        4.32130        0.56890
C          1.49720       -1.40520        0.17990
C          2.72430       -1.66510        0.83950
S          4.09400       -0.71210        1.24620
S         -1.04360        1.22350       -1.53950
C         -2.49920        0.30520       -1.78510
C         -3.76760        0.64630       -2.24650
C         -4.63050       -0.43300       -2.21430
S         -3.83480       -1.88470       -1.60100
C         -2.35920       -1.03060       -1.40150
C         -5.99870       -0.58290       -2.53740
C         -6.89360        0.27310       -3.10820
C         -6.65510        1.61600       -3.69930
O         -5.65410        2.30180       -3.64930
C         -7.90250        1.96570       -4.39210
C         -8.17010        3.09480       -5.14900
C         -9.42300        3.23020       -5.72690
O         -9.82240        4.27170       -6.48530
C         -8.90820        5.31560       -6.73120
C        -10.40450        2.21380       -5.53370
O        -11.58520        2.44580       -6.14090
C        -12.62200        1.49970       -6.00010
C        -10.11910        1.09100       -4.77020
C         -8.86100        0.96510       -4.19260
C         -8.29170       -0.07020       -3.34590
C         -8.98360       -1.13000       -2.81820
C         -8.48270       -2.08590       -1.90910
N         -8.17360       -2.89390       -1.15310
C        -10.34490       -1.38490       -3.08600
N        -11.44850       -1.64570       -3.26870
H          6.31310       -3.03490        3.16430
H          7.95670        2.82830        1.66140
H         10.26010        5.65630        1.59290
H          8.69010        5.02180        2.14520
H          9.44730        4.37360        0.66210
H         12.25930        1.24660        5.60400
H         13.58600        2.14250        4.82280
H         13.02260        0.60390        4.12410
H         10.84440       -0.14930        4.40600
H          4.30590       -4.16230        2.41350
H         -1.93180       -3.88890       -2.55640
H         -3.81710       -6.83670        1.50700
H         -3.85290       -7.60570       -0.08850
H         -1.51040       -8.41020        0.25780
H         -1.47090       -7.62200        1.83790
H         -2.56880       -8.97780        1.55250
H          5.01530        4.28480       -0.61030
H          5.84000        2.71470       -0.58490
H          4.46060        3.93680       -3.02840
H          5.27660        2.37130       -2.98810
H          6.20480        3.85860       -2.76400
H          0.75770        2.41450        0.79810
H         -4.05730        1.62240       -2.58770
H         -6.37460       -1.56930       -2.29050
H         -7.39910        3.83860       -5.26710
H         -8.60180        5.80660       -5.80260
H         -9.44090        6.02810       -7.35840
H         -8.02210        4.95500       -7.26230
H        -12.34140        0.53040       -6.42250
H        -12.90800        1.36900       -4.95240
H        -13.46340        1.90710       -6.55730
H        -10.86360        0.32680       -4.63420
