
  xtb     02112200103D
 energy: -199.123466143627 gnorm: 0.000339131407 xtb: 6.4.1 (unknown)
108119  0     0  0            999 V2000
    6.8986    1.5082   -2.0017 C   0  0  0  0  0  0  0  0  0  0  0  0
    6.7644    2.6292   -2.7788 C   0  0  0  0  0  0  0  0  0  0  0  0
    5.5086    3.3070   -3.1238 C   0  0  0  0  0  0  0  0  0  0  0  0
    4.3800    3.0109   -2.7641 O   0  0  0  0  0  0  0  0  0  0  0  0
    5.8793    4.4266   -3.9972 C   0  0  0  0  0  0  0  0  0  0  0  0
    5.0545    5.3634   -4.5970 C   0  0  0  0  0  0  0  0  0  0  0  0
    5.6266    6.3449   -5.3922 C   0  0  0  0  0  0  0  0  0  0  0  0
    4.9479    7.3188   -6.0362 O   0  0  0  0  0  0  0  0  0  0  0  0
    3.5462    7.3610   -5.9045 C   0  0  0  0  0  0  0  0  0  0  0  0
    7.0390    6.3713   -5.5762 C   0  0  0  0  0  0  0  0  0  0  0  0
    7.4883    7.3667   -6.3676 O   0  0  0  0  0  0  0  0  0  0  0  0
    8.8745    7.4779   -6.6025 C   0  0  0  0  0  0  0  0  0  0  0  0
    7.8499    5.4237   -4.9665 C   0  0  0  0  0  0  0  0  0  0  0  0
    7.2691    4.4444   -4.1705 C   0  0  0  0  0  0  0  0  0  0  0  0
    7.8553    3.3433   -3.4171 C   0  0  0  0  0  0  0  0  0  0  0  0
    9.1975    3.0646   -3.3350 C   0  0  0  0  0  0  0  0  0  0  0  0
   10.1956    3.8191   -3.9845 C   0  0  0  0  0  0  0  0  0  0  0  0
   11.0531    4.3937   -4.4887 N   0  0  0  0  0  0  0  0  0  0  0  0
    9.7823    2.0115   -2.6035 C   0  0  0  0  0  0  0  0  0  0  0  0
   10.3389    1.1821   -2.0343 N   0  0  0  0  0  0  0  0  0  0  0  0
    5.9422    0.7306   -1.3353 C   0  0  0  0  0  0  0  0  0  0  0  0
    6.2719   -0.4178   -0.5986 C   0  0  0  0  0  0  0  0  0  0  0  0
    7.6384   -1.0043   -0.4547 C   0  0  0  0  0  0  0  0  0  0  0  0
    7.9805   -1.8880   -1.6572 C   0  0  0  0  0  0  0  0  0  0  0  0
    5.1414   -1.0073   -0.0448 C   0  0  0  0  0  0  0  0  0  0  0  0
    4.9224   -2.4452    0.9355 S   0  0  0  0  0  0  0  0  0  0  0  0
    3.2246   -2.1268    0.9607 C   0  0  0  0  0  0  0  0  0  0  0  0
    2.0477   -2.7050    1.4545 C   0  0  0  0  0  0  0  0  0  0  0  0
    1.8824   -3.9326    2.1471 C   0  0  0  0  0  0  0  0  0  0  0  0
    0.5643   -4.3556    2.4398 C   0  0  0  0  0  0  0  0  0  0  0  0
    0.3298   -5.5251    3.0450 N   0  0  0  0  0  0  0  0  0  0  0  0
    1.3830   -6.2484    3.3593 C   0  0  0  0  0  0  0  0  0  0  0  0
    2.6877   -5.8241    3.0818 C   0  0  0  0  0  0  0  0  0  0  0  0
    2.9394   -4.6816    2.4803 N   0  0  0  0  0  0  0  0  0  0  0  0
   -0.5035   -3.4839    2.1018 C   0  0  0  0  0  0  0  0  0  0  0  0
   -1.8726   -3.6335    2.3554 C   0  0  0  0  0  0  0  0  0  0  0  0
   -2.9500   -4.7970    3.0388 S   0  0  0  0  0  0  0  0  0  0  0  0
   -4.2770   -3.6868    2.7468 C   0  0  0  0  0  0  0  0  0  0  0  0
   -5.6371   -3.7737    2.9985 C   0  0  0  0  0  0  0  0  0  0  0  0
   -6.2762   -4.9936    3.5758 C   0  0  0  0  0  0  0  0  0  0  0  0
   -6.8146   -5.8998    2.4647 C   0  0  0  0  0  0  0  0  0  0  0  0
   -6.3130   -2.6087    2.5846 C   0  0  0  0  0  0  0  0  0  0  0  0
   -5.2116   -1.4160    1.8874 S   0  0  0  0  0  0  0  0  0  0  0  0
   -3.8787   -2.4761    2.1472 C   0  0  0  0  0  0  0  0  0  0  0  0
   -2.5009   -2.4599    1.9213 C   0  0  0  0  0  0  0  0  0  0  0  0
   -1.5739   -1.6058    1.3838 N   0  0  0  0  0  0  0  0  0  0  0  0
   -0.3351   -2.2130    1.4757 C   0  0  0  0  0  0  0  0  0  0  0  0
    0.9725   -1.8531    1.0631 C   0  0  0  0  0  0  0  0  0  0  0  0
    1.4964   -0.8007    0.3346 N   0  0  0  0  0  0  0  0  0  0  0  0
    2.8522   -0.9740    0.2611 C   0  0  0  0  0  0  0  0  0  0  0  0
    3.9452   -0.3274   -0.3261 C   0  0  0  0  0  0  0  0  0  0  0  0
    4.2104    1.0627   -1.3120 S   0  0  0  0  0  0  0  0  0  0  0  0
    0.8572    0.1608   -0.5346 C   0  0  0  0  0  0  0  0  0  0  0  0
    0.1680   -0.5252   -1.7119 C   0  0  0  0  0  0  0  0  0  0  0  0
   -1.9348   -0.2246    1.1545 C   0  0  0  0  0  0  0  0  0  0  0  0
   -1.3551    0.6869    2.2337 C   0  0  0  0  0  0  0  0  0  0  0  0
   -7.6906   -2.4433    2.7203 C   0  0  0  0  0  0  0  0  0  0  0  0
   -8.5169   -1.3961    2.3758 C   0  0  0  0  0  0  0  0  0  0  0  0
   -8.1048   -0.1368    1.7593 C   0  0  0  0  0  0  0  0  0  0  0  0
   -6.9816    0.2123    1.4398 O   0  0  0  0  0  0  0  0  0  0  0  0
   -9.3394    0.6606    1.5965 C   0  0  0  0  0  0  0  0  0  0  0  0
   -9.4788    1.9256    1.0647 C   0  0  0  0  0  0  0  0  0  0  0  0
  -10.7514    2.4825    1.0170 C   0  0  0  0  0  0  0  0  0  0  0  0
  -10.9973    4.0564    0.3671 Cl  0  0  0  0  0  0  0  0  0  0  0  0
  -11.8362    1.7512    1.5037 C   0  0  0  0  0  0  0  0  0  0  0  0
  -13.0593    2.2933    1.4556 F   0  0  0  0  0  0  0  0  0  0  0  0
  -11.7018    0.4789    2.0392 C   0  0  0  0  0  0  0  0  0  0  0  0
  -10.4323   -0.0743    2.0859 C   0  0  0  0  0  0  0  0  0  0  0  0
   -9.9499   -1.3651    2.5781 C   0  0  0  0  0  0  0  0  0  0  0  0
  -10.7434   -2.3429    3.1242 C   0  0  0  0  0  0  0  0  0  0  0  0
  -10.3038   -3.5947    3.6017 C   0  0  0  0  0  0  0  0  0  0  0  0
  -10.0310   -4.6331    4.0117 N   0  0  0  0  0  0  0  0  0  0  0  0
  -12.1402   -2.2271    3.2845 C   0  0  0  0  0  0  0  0  0  0  0  0
  -13.2768   -2.2006    3.4432 N   0  0  0  0  0  0  0  0  0  0  0  0
    7.9073    1.1407   -1.8727 H   0  0  0  0  0  0  0  0  0  0  0  0
    3.9911    5.3066   -4.4307 H   0  0  0  0  0  0  0  0  0  0  0  0
    3.0796    6.4491   -6.2898 H   0  0  0  0  0  0  0  0  0  0  0  0
    3.2224    8.2122   -6.5007 H   0  0  0  0  0  0  0  0  0  0  0  0
    3.2458    7.5117   -4.8630 H   0  0  0  0  0  0  0  0  0  0  0  0
    9.2692    6.5921   -7.1087 H   0  0  0  0  0  0  0  0  0  0  0  0
    8.9897    8.3456   -7.2491 H   0  0  0  0  0  0  0  0  0  0  0  0
    9.4283    7.6405   -5.6733 H   0  0  0  0  0  0  0  0  0  0  0  0
    8.9152    5.4513   -5.1126 H   0  0  0  0  0  0  0  0  0  0  0  0
    7.6524   -1.6146    0.4505 H   0  0  0  0  0  0  0  0  0  0  0  0
    8.3935   -0.2237   -0.3526 H   0  0  0  0  0  0  0  0  0  0  0  0
    7.9743   -1.3068   -2.5763 H   0  0  0  0  0  0  0  0  0  0  0  0
    7.2577   -2.6951   -1.7510 H   0  0  0  0  0  0  0  0  0  0  0  0
    8.9699   -2.3176   -1.5286 H   0  0  0  0  0  0  0  0  0  0  0  0
    1.1865   -7.1922    3.8489 H   0  0  0  0  0  0  0  0  0  0  0  0
    3.5469   -6.4228    3.3507 H   0  0  0  0  0  0  0  0  0  0  0  0
   -7.0893   -4.7302    4.2535 H   0  0  0  0  0  0  0  0  0  0  0  0
   -5.5195   -5.5384    4.1436 H   0  0  0  0  0  0  0  0  0  0  0  0
   -6.0071   -6.2104    1.8059 H   0  0  0  0  0  0  0  0  0  0  0  0
   -7.2708   -6.7837    2.9007 H   0  0  0  0  0  0  0  0  0  0  0  0
   -7.5659   -5.3810    1.8741 H   0  0  0  0  0  0  0  0  0  0  0  0
    0.1665    0.7864    0.0298 H   0  0  0  0  0  0  0  0  0  0  0  0
    1.6482    0.8128   -0.9129 H   0  0  0  0  0  0  0  0  0  0  0  0
   -0.3295    0.2147   -2.3328 H   0  0  0  0  0  0  0  0  0  0  0  0
   -0.5654   -1.2531   -1.3714 H   0  0  0  0  0  0  0  0  0  0  0  0
    0.9050   -1.0453   -2.3192 H   0  0  0  0  0  0  0  0  0  0  0  0
   -1.6335    0.0899    0.1561 H   0  0  0  0  0  0  0  0  0  0  0  0
   -3.0258   -0.1774    1.1923 H   0  0  0  0  0  0  0  0  0  0  0  0
   -1.6225    1.7199    2.0293 H   0  0  0  0  0  0  0  0  0  0  0  0
   -1.7579    0.4124    3.2058 H   0  0  0  0  0  0  0  0  0  0  0  0
   -0.2713    0.6042    2.2804 H   0  0  0  0  0  0  0  0  0  0  0  0
   -8.1790   -3.2937    3.1756 H   0  0  0  0  0  0  0  0  0  0  0  0
   -8.6212    2.4658    0.6969 H   0  0  0  0  0  0  0  0  0  0  0  0
  -12.5820   -0.0291    2.3974 H   0  0  0  0  0  0  0  0  0  0  0  0
  1  2  2  0  0  0  0
  2  3  1  0  0  0  0
  3  4  2  0  0  0  0
  3  5  1  0  0  0  0
  5  6  2  0  0  0  0
  6  7  1  0  0  0  0
  7  8  1  0  0  0  0
  8  9  1  0  0  0  0
  7 10  2  0  0  0  0
 10 11  1  0  0  0  0
 11 12  1  0  0  0  0
 10 13  1  0  0  0  0
 13 14  2  0  0  0  0
 14 15  1  0  0  0  0
 15 16  2  0  0  0  0
 16 17  1  0  0  0  0
 17 18  3  0  0  0  0
 16 19  1  0  0  0  0
 19 20  3  0  0  0  0
  1 21  1  0  0  0  0
 21 22  2  0  0  0  0
 22 23  1  0  0  0  0
 23 24  1  0  0  0  0
 22 25  1  0  0  0  0
 25 26  1  0  0  0  0
 26 27  1  0  0  0  0
 27 28  1  0  0  0  0
 28 29  2  0  0  0  0
 29 30  1  0  0  0  0
 30 31  1  0  0  0  0
 31 32  2  0  0  0  0
 32 33  1  0  0  0  0
 33 34  2  0  0  0  0
 30 35  2  0  0  0  0
 35 36  1  0  0  0  0
 36 37  1  0  0  0  0
 37 38  1  0  0  0  0
 38 39  1  0  0  0  0
 39 40  1  0  0  0  0
 40 41  1  0  0  0  0
 39 42  2  0  0  0  0
 42 43  1  0  0  0  0
 43 44  1  0  0  0  0
 44 45  1  0  0  0  0
 45 46  1  0  0  0  0
 46 47  1  0  0  0  0
 47 48  2  0  0  0  0
 48 49  1  0  0  0  0
 49 50  1  0  0  0  0
 50 51  1  0  0  0  0
 51 52  1  0  0  0  0
 49 53  1  0  0  0  0
 53 54  1  0  0  0  0
 46 55  1  0  0  0  0
 55 56  1  0  0  0  0
 42 57  1  0  0  0  0
 57 58  2  0  0  0  0
 58 59  1  0  0  0  0
 59 60  2  0  0  0  0
 59 61  1  0  0  0  0
 61 62  2  0  0  0  0
 62 63  1  0  0  0  0
 63 64  1  0  0  0  0
 63 65  2  0  0  0  0
 65 66  1  0  0  0  0
 65 67  1  0  0  0  0
 67 68  2  0  0  0  0
 68 69  1  0  0  0  0
 69 70  2  0  0  0  0
 70 71  1  0  0  0  0
 71 72  3  0  0  0  0
 70 73  1  0  0  0  0
 73 74  3  0  0  0  0
 15  2  1  0  0  0  0
 52 21  1  0  0  0  0
 69 58  1  0  0  0  0
 14  5  1  0  0  0  0
 51 25  2  0  0  0  0
 68 61  1  0  0  0  0
 50 27  2  0  0  0  0
 48 28  1  0  0  0  0
 34 29  1  0  0  0  0
 47 35  1  0  0  0  0
 45 36  2  0  0  0  0
 44 38  2  0  0  0  0
  1 75  1  0  0  0  0
  6 76  1  0  0  0  0
  9 77  1  0  0  0  0
  9 78  1  0  0  0  0
  9 79  1  0  0  0  0
 12 80  1  0  0  0  0
 12 81  1  0  0  0  0
 12 82  1  0  0  0  0
 13 83  1  0  0  0  0
 23 84  1  0  0  0  0
 23 85  1  0  0  0  0
 24 86  1  0  0  0  0
 24 87  1  0  0  0  0
 24 88  1  0  0  0  0
 32 89  1  0  0  0  0
 33 90  1  0  0  0  0
 40 91  1  0  0  0  0
 40 92  1  0  0  0  0
 41 93  1  0  0  0  0
 41 94  1  0  0  0  0
 41 95  1  0  0  0  0
 53 96  1  0  0  0  0
 53 97  1  0  0  0  0
 54 98  1  0  0  0  0
 54 99  1  0  0  0  0
 54100  1  0  0  0  0
 55101  1  0  0  0  0
 55102  1  0  0  0  0
 56103  1  0  0  0  0
 56104  1  0  0  0  0
 56105  1  0  0  0  0
 57106  1  0  0  0  0
 62107  1  0  0  0  0
 67108  1  0  0  0  0
M  END
