108

C          6.89860        1.50820       -2.00170
C          6.76440        2.62920       -2.77880
C          5.50860        3.30700       -3.12380
O          4.38000        3.01090       -2.76410
C          5.87930        4.42660       -3.99720
C          5.05450        5.36340       -4.59700
C          5.62660        6.34490       -5.39220
O          4.94790        7.31880       -6.03620
C          3.54620        7.36100       -5.90450
C          7.03900        6.37130       -5.57620
O          7.48830        7.36670       -6.36760
C          8.87450        7.47790       -6.60250
C          7.84990        5.42370       -4.96650
C          7.26910        4.44440       -4.17050
C          7.85530        3.34330       -3.41710
C          9.19750        3.06460       -3.33500
C         10.19560        3.81910       -3.98450
N         11.05310        4.39370       -4.48870
C          9.78230        2.01150       -2.60350
N         10.33890        1.18210       -2.03430
C          5.94220        0.73060       -1.33530
C          6.27190       -0.41780       -0.59860
C          7.63840       -1.00430       -0.45470
C          7.98050       -1.88800       -1.65720
C          5.14140       -1.00730       -0.04480
S          4.92240       -2.44520        0.93550
C          3.22460       -2.12680        0.96070
C          2.04770       -2.70500        1.45450
C          1.88240       -3.93260        2.14710
C          0.56430       -4.35560        2.43980
N          0.32980       -5.52510        3.04500
C          1.38300       -6.24840        3.35930
C          2.68770       -5.82410        3.08180
N          2.93940       -4.68160        2.48030
C         -0.50350       -3.48390        2.10180
C         -1.87260       -3.63350        2.35540
S         -2.95000       -4.79700        3.03880
C         -4.27700       -3.68680        2.74680
C         -5.63710       -3.77370        2.99850
C         -6.27620       -4.99360        3.57580
C         -6.81460       -5.89980        2.46470
C         -6.31300       -2.60870        2.58460
S         -5.21160       -1.41600        1.88740
C         -3.87870       -2.47610        2.14720
C         -2.50090       -2.45990        1.92130
N         -1.57390       -1.60580        1.38380
C         -0.33510       -2.21300        1.47570
C          0.97250       -1.85310        1.06310
N          1.49640       -0.80070        0.33460
C          2.85220       -0.97400        0.26110
C          3.94520       -0.32740       -0.32610
S          4.21040        1.06270       -1.31200
C          0.85720        0.16080       -0.53460
C          0.16800       -0.52520       -1.71190
C         -1.93480       -0.22460        1.15450
C         -1.35510        0.68690        2.23370
C         -7.69060       -2.44330        2.72030
C         -8.51690       -1.39610        2.37580
C         -8.10480       -0.13680        1.75930
O         -6.98160        0.21230        1.43980
C         -9.33940        0.66060        1.59650
C         -9.47880        1.92560        1.06470
C        -10.75140        2.48250        1.01700
Cl       -10.99730        4.05640        0.36710
C        -11.83620        1.75120        1.50370
F        -13.05930        2.29330        1.45560
C        -11.70180        0.47890        2.03920
C        -10.43230       -0.07430        2.08590
C         -9.94990       -1.36510        2.57810
C        -10.74340       -2.34290        3.12420
C        -10.30380       -3.59470        3.60170
N        -10.03100       -4.63310        4.01170
C        -12.14020       -2.22710        3.28450
N        -13.27680       -2.20060        3.44320
H          7.90730        1.14070       -1.87270
H          3.99110        5.30660       -4.43070
H          3.07960        6.44910       -6.28980
H          3.22240        8.21220       -6.50070
H          3.24580        7.51170       -4.86300
H          9.26920        6.59210       -7.10870
H          8.98970        8.34560       -7.24910
H          9.42830        7.64050       -5.67330
H          8.91520        5.45130       -5.11260
H          7.65240       -1.61460        0.45050
H          8.39350       -0.22370       -0.35260
H          7.97430       -1.30680       -2.57630
H          7.25770       -2.69510       -1.75100
H          8.96990       -2.31760       -1.52860
H          1.18650       -7.19220        3.84890
H          3.54690       -6.42280        3.35070
H         -7.08930       -4.73020        4.25350
H         -5.51950       -5.53840        4.14360
H         -6.00710       -6.21040        1.80590
H         -7.27080       -6.78370        2.90070
H         -7.56590       -5.38100        1.87410
H          0.16650        0.78640        0.02980
H          1.64820        0.81280       -0.91290
H         -0.32950        0.21470       -2.33280
H         -0.56540       -1.25310       -1.37140
H          0.90500       -1.04530       -2.31920
H         -1.63350        0.08990        0.15610
H         -3.02580       -0.17740        1.19230
H         -1.62250        1.71990        2.02930
H         -1.75790        0.41240        3.20580
H         -0.27130        0.60420        2.28040
H         -8.17900       -3.29370        3.17560
H         -8.62120        2.46580        0.69690
H        -12.58200       -0.02910        2.39740
