
  xtb     02102221123D
 energy: -249.270597844468 gnorm: 0.000503235065 xtb: 6.4.1 (unknown)
139155  0     0  0            999 V2000
    6.9749   -5.5238    2.4133 C   0  0  0  0  0  0  0  0  0  0  0  0
    7.6067   -5.7664    3.6068 C   0  0  0  0  0  0  0  0  0  0  0  0
    7.2498   -5.1268    4.8899 C   0  0  0  0  0  0  0  0  0  0  0  0
    6.4656   -4.2219    5.0834 O   0  0  0  0  0  0  0  0  0  0  0  0
    7.9588   -5.9123    5.9259 C   0  0  0  0  0  0  0  0  0  0  0  0
    7.9390   -5.7417    7.2943 C   0  0  0  0  0  0  0  0  0  0  0  0
    8.6773   -6.6199    8.0787 C   0  0  0  0  0  0  0  0  0  0  0  0
    8.6843   -6.4361    9.7861 Cl  0  0  0  0  0  0  0  0  0  0  0  0
    9.4110   -7.6513    7.4834 C   0  0  0  0  0  0  0  0  0  0  0  0
   10.3113   -8.7354    8.4656 Cl  0  0  0  0  0  0  0  0  0  0  0  0
    9.4252   -7.8221    6.1031 C   0  0  0  0  0  0  0  0  0  0  0  0
    8.6945   -6.9448    5.3195 C   0  0  0  0  0  0  0  0  0  0  0  0
    8.5137   -6.8617    3.8728 C   0  0  0  0  0  0  0  0  0  0  0  0
    9.1573   -7.6284    2.9361 C   0  0  0  0  0  0  0  0  0  0  0  0
   10.0463   -8.6774    3.2489 C   0  0  0  0  0  0  0  0  0  0  0  0
   10.7712   -9.5464    3.4413 N   0  0  0  0  0  0  0  0  0  0  0  0
    9.0425   -7.4496    1.5414 C   0  0  0  0  0  0  0  0  0  0  0  0
    9.0146   -7.3429    0.3984 N   0  0  0  0  0  0  0  0  0  0  0  0
    6.2162   -4.3907    2.0692 C   0  0  0  0  0  0  0  0  0  0  0  0
    6.3584   -3.0454    2.4052 C   0  0  0  0  0  0  0  0  0  0  0  0
    7.5090   -2.4888    3.1721 C   0  0  0  0  0  0  0  0  0  0  0  0
    8.1248   -1.2580    2.5105 C   0  0  0  0  0  0  0  0  0  0  0  0
    5.3455   -2.2732    1.8215 C   0  0  0  0  0  0  0  0  0  0  0  0
    4.9369   -0.5727    1.9207 S   0  0  0  0  0  0  0  0  0  0  0  0
    3.5601   -0.8641    0.9245 C   0  0  0  0  0  0  0  0  0  0  0  0
    2.4975   -0.1505    0.3532 C   0  0  0  0  0  0  0  0  0  0  0  0
    2.2279    1.2385    0.3986 C   0  0  0  0  0  0  0  0  0  0  0  0
    2.9532    2.0680    1.1425 N   0  0  0  0  0  0  0  0  0  0  0  0
    2.6879    3.3648    1.1047 C   0  0  0  0  0  0  0  0  0  0  0  0
    3.3982    4.1400    2.0891 C   0  0  0  0  0  0  0  0  0  0  0  0
    4.8285    3.4189    2.7673 S   0  0  0  0  0  0  0  0  0  0  0  0
    5.0433    4.7368    3.8641 C   0  0  0  0  0  0  0  0  0  0  0  0
    6.1938    4.8102    4.8074 C   0  0  0  0  0  0  0  0  0  0  0  0
    7.5274    4.8653    4.0618 C   0  0  0  0  0  0  0  0  0  0  0  0
    4.0342    5.6438    3.6978 C   0  0  0  0  0  0  0  0  0  0  0  0
    3.0935    5.3245    2.7042 C   0  0  0  0  0  0  0  0  0  0  0  0
    3.9413    6.7657    4.4360 F   0  0  0  0  0  0  0  0  0  0  0  0
    1.7295    3.8707    0.1733 C   0  0  0  0  0  0  0  0  0  0  0  0
    1.5540    5.2529   -0.1922 C   0  0  0  0  0  0  0  0  0  0  0  0
    2.4118    6.3193   -0.1570 C   0  0  0  0  0  0  0  0  0  0  0  0
    1.8325    7.4629   -0.7322 C   0  0  0  0  0  0  0  0  0  0  0  0
    2.4895    8.6356   -0.8080 F   0  0  0  0  0  0  0  0  0  0  0  0
    0.5624    7.3003   -1.2106 C   0  0  0  0  0  0  0  0  0  0  0  0
   -0.3151    8.3237   -1.8444 C   0  0  0  0  0  0  0  0  0  0  0  0
   -1.5938    8.5456   -1.0364 C   0  0  0  0  0  0  0  0  0  0  0  0
    0.0515    5.6681   -0.9641 S   0  0  0  0  0  0  0  0  0  0  0  0
    0.9345    3.0353   -0.4773 N   0  0  0  0  0  0  0  0  0  0  0  0
    1.1286    1.7265   -0.3490 C   0  0  0  0  0  0  0  0  0  0  0  0
    0.2740    0.7816   -0.9661 C   0  0  0  0  0  0  0  0  0  0  0  0
   -0.9448    0.9918   -1.6262 C   0  0  0  0  0  0  0  0  0  0  0  0
   -1.9804    2.3010   -2.0618 S   0  0  0  0  0  0  0  0  0  0  0  0
   -3.1309    1.1494   -2.7042 C   0  0  0  0  0  0  0  0  0  0  0  0
   -4.4141    1.2939   -3.2556 C   0  0  0  0  0  0  0  0  0  0  0  0
   -5.0362    2.6070   -3.5927 C   0  0  0  0  0  0  0  0  0  0  0  0
   -4.0966    3.5034   -4.3976 C   0  0  0  0  0  0  0  0  0  0  0  0
   -4.9696    0.0574   -3.5513 C   0  0  0  0  0  0  0  0  0  0  0  0
   -3.8629   -1.2765   -3.2232 S   0  0  0  0  0  0  0  0  0  0  0  0
   -2.6974   -0.1783   -2.5880 C   0  0  0  0  0  0  0  0  0  0  0  0
   -1.4446   -0.2668   -1.9713 C   0  0  0  0  0  0  0  0  0  0  0  0
   -0.5662   -1.2429   -1.5819 N   0  0  0  0  0  0  0  0  0  0  0  0
   -0.9949   -2.6225   -1.5574 C   0  0  0  0  0  0  0  0  0  0  0  0
   -1.2944   -3.0882   -0.1344 C   0  0  0  0  0  0  0  0  0  0  0  0
    0.5031   -0.6249   -0.9552 C   0  0  0  0  0  0  0  0  0  0  0  0
    1.7002   -1.0935   -0.3587 C   0  0  0  0  0  0  0  0  0  0  0  0
    2.2952   -2.3392   -0.2467 N   0  0  0  0  0  0  0  0  0  0  0  0
    3.4192   -2.1967    0.5253 C   0  0  0  0  0  0  0  0  0  0  0  0
    4.4410   -3.0029    1.0318 C   0  0  0  0  0  0  0  0  0  0  0  0
    4.8736   -4.6666    0.9544 S   0  0  0  0  0  0  0  0  0  0  0  0
    2.1279   -3.5288   -1.0514 C   0  0  0  0  0  0  0  0  0  0  0  0
    2.3941   -3.2446   -2.5279 C   0  0  0  0  0  0  0  0  0  0  0  0
   -6.2330   -0.2827   -4.0892 C   0  0  0  0  0  0  0  0  0  0  0  0
   -7.4195    0.3196   -3.7848 C   0  0  0  0  0  0  0  0  0  0  0  0
   -7.6633    1.1138   -2.5560 C   0  0  0  0  0  0  0  0  0  0  0  0
   -6.8455    1.5093   -1.7517 O   0  0  0  0  0  0  0  0  0  0  0  0
   -9.1303    1.2213   -2.4423 C   0  0  0  0  0  0  0  0  0  0  0  0
   -9.8418    1.8248   -1.4081 C   0  0  0  0  0  0  0  0  0  0  0  0
  -11.2065    1.7585   -1.5541 C   0  0  0  0  0  0  0  0  0  0  0  0
  -11.8223    1.1278   -2.6439 C   0  0  0  0  0  0  0  0  0  0  0  0
  -11.1332    0.5220   -3.6674 C   0  0  0  0  0  0  0  0  0  0  0  0
   -9.7425    0.5860   -3.5419 C   0  0  0  0  0  0  0  0  0  0  0  0
   -8.6985    0.0592   -4.4137 C   0  0  0  0  0  0  0  0  0  0  0  0
   -8.8788   -0.5008   -5.6513 C   0  0  0  0  0  0  0  0  0  0  0  0
   -7.8247   -0.8985   -6.5008 C   0  0  0  0  0  0  0  0  0  0  0  0
   -7.0149   -1.2189   -7.2492 N   0  0  0  0  0  0  0  0  0  0  0  0
  -10.1341   -0.7139   -6.2564 C   0  0  0  0  0  0  0  0  0  0  0  0
  -11.1245   -0.9179   -6.8003 N   0  0  0  0  0  0  0  0  0  0  0  0
  -13.2098    1.4360   -2.1400 C   0  0  0  0  0  0  0  0  0  0  0  0
  -13.9828    2.5943   -2.8175 C   0  0  0  0  0  0  0  0  0  0  0  0
  -12.9439    3.5424   -3.3630 C   0  0  0  0  0  0  0  0  0  0  0  0
  -12.3615    4.1413   -2.3329 C   0  0  0  0  0  0  0  0  0  0  0  0
  -12.9958    3.6086   -1.0718 C   0  0  0  0  0  0  0  0  0  0  0  0
  -14.4307    3.3720   -1.5695 C   0  0  0  0  0  0  0  0  0  0  0  0
  -12.5237    2.1406   -0.9273 C   0  0  0  0  0  0  0  0  0  0  0  0
    6.9909   -6.3085    1.6653 H   0  0  0  0  0  0  0  0  0  0  0  0
    7.3659   -4.9451    7.7418 H   0  0  0  0  0  0  0  0  0  0  0  0
    9.9959   -8.6317    5.6787 H   0  0  0  0  0  0  0  0  0  0  0  0
    7.1611   -2.2334    4.1775 H   0  0  0  0  0  0  0  0  0  0  0  0
    8.2714   -3.2632    3.2780 H   0  0  0  0  0  0  0  0  0  0  0  0
    8.4040   -1.4782    1.4824 H   0  0  0  0  0  0  0  0  0  0  0  0
    9.0190   -0.9645    3.0544 H   0  0  0  0  0  0  0  0  0  0  0  0
    7.4341   -0.4198    2.5122 H   0  0  0  0  0  0  0  0  0  0  0  0
    6.1844    3.9337    5.4606 H   0  0  0  0  0  0  0  0  0  0  0  0
    6.0752    5.7014    5.4272 H   0  0  0  0  0  0  0  0  0  0  0  0
    8.3502    4.9180    4.7698 H   0  0  0  0  0  0  0  0  0  0  0  0
    7.5666    5.7413    3.4187 H   0  0  0  0  0  0  0  0  0  0  0  0
    7.6503    3.9769    3.4466 H   0  0  0  0  0  0  0  0  0  0  0  0
    2.2357    5.9318    2.4846 H   0  0  0  0  0  0  0  0  0  0  0  0
    3.4115    6.2961    0.2342 H   0  0  0  0  0  0  0  0  0  0  0  0
    0.2451    9.2578   -1.9222 H   0  0  0  0  0  0  0  0  0  0  0  0
   -0.5813    7.9984   -2.8538 H   0  0  0  0  0  0  0  0  0  0  0  0
   -1.3537    8.8880   -0.0326 H   0  0  0  0  0  0  0  0  0  0  0  0
   -2.1562    7.6179   -0.9617 H   0  0  0  0  0  0  0  0  0  0  0  0
   -2.2159    9.2950   -1.5187 H   0  0  0  0  0  0  0  0  0  0  0  0
   -5.3168    3.1054   -2.6610 H   0  0  0  0  0  0  0  0  0  0  0  0
   -5.9496    2.4344   -4.1643 H   0  0  0  0  0  0  0  0  0  0  0  0
   -3.2242    3.7839   -3.8145 H   0  0  0  0  0  0  0  0  0  0  0  0
   -4.6203    4.4103   -4.6888 H   0  0  0  0  0  0  0  0  0  0  0  0
   -3.7649    2.9925   -5.2990 H   0  0  0  0  0  0  0  0  0  0  0  0
   -1.9093   -2.6751   -2.1534 H   0  0  0  0  0  0  0  0  0  0  0  0
   -0.2575   -3.2608   -2.0440 H   0  0  0  0  0  0  0  0  0  0  0  0
   -0.4233   -2.9781    0.5076 H   0  0  0  0  0  0  0  0  0  0  0  0
   -2.1024   -2.4947    0.2869 H   0  0  0  0  0  0  0  0  0  0  0  0
   -1.5990   -4.1311   -0.1409 H   0  0  0  0  0  0  0  0  0  0  0  0
    2.8580   -4.2556   -0.6874 H   0  0  0  0  0  0  0  0  0  0  0  0
    1.1399   -3.9624   -0.8965 H   0  0  0  0  0  0  0  0  0  0  0  0
    2.2436   -4.1477   -3.1129 H   0  0  0  0  0  0  0  0  0  0  0  0
    3.4211   -2.9129   -2.6623 H   0  0  0  0  0  0  0  0  0  0  0  0
    1.7350   -2.4656   -2.9044 H   0  0  0  0  0  0  0  0  0  0  0  0
   -6.2441   -1.1502   -4.7397 H   0  0  0  0  0  0  0  0  0  0  0  0
   -9.3286    2.2932   -0.5828 H   0  0  0  0  0  0  0  0  0  0  0  0
  -11.6185    0.0289   -4.4932 H   0  0  0  0  0  0  0  0  0  0  0  0
  -13.8449    0.5759   -1.9376 H   0  0  0  0  0  0  0  0  0  0  0  0
  -14.7541    2.2756   -3.5134 H   0  0  0  0  0  0  0  0  0  0  0  0
  -12.7076    3.6349   -4.4069 H   0  0  0  0  0  0  0  0  0  0  0  0
  -11.5409    4.8346   -2.3437 H   0  0  0  0  0  0  0  0  0  0  0  0
  -12.8693    4.2136   -0.1778 H   0  0  0  0  0  0  0  0  0  0  0  0
  -15.0359    2.7806   -0.8837 H   0  0  0  0  0  0  0  0  0  0  0  0
  -14.9498    4.2975   -1.8137 H   0  0  0  0  0  0  0  0  0  0  0  0
  -12.7112    1.7408    0.0675 H   0  0  0  0  0  0  0  0  0  0  0  0
  1  2  2  0  0  0  0
  2  3  1  0  0  0  0
  3  4  2  0  0  0  0
  3  5  1  0  0  0  0
  5  6  2  0  0  0  0
  6  7  1  0  0  0  0
  7  8  1  0  0  0  0
  7  9  2  0  0  0  0
  9 10  1  0  0  0  0
  9 11  1  0  0  0  0
 11 12  2  0  0  0  0
 12 13  1  0  0  0  0
 13 14  2  0  0  0  0
 14 15  1  0  0  0  0
 15 16  3  0  0  0  0
 14 17  1  0  0  0  0
 17 18  3  0  0  0  0
  1 19  1  0  0  0  0
 19 20  2  0  0  0  0
 20 21  1  0  0  0  0
 21 22  1  0  0  0  0
 20 23  1  0  0  0  0
 23 24  1  0  0  0  0
 24 25  1  0  0  0  0
 25 26  1  0  0  0  0
 26 27  2  0  0  0  0
 27 28  1  0  0  0  0
 28 29  2  0  0  0  0
 29 30  1  0  0  0  0
 30 31  1  0  0  0  0
 31 32  1  0  0  0  0
 32 33  1  0  0  0  0
 33 34  1  0  0  0  0
 32 35  2  0  0  0  0
 35 36  1  0  0  0  0
 35 37  1  0  0  0  0
 29 38  1  0  0  0  0
 38 39  1  0  0  0  0
 39 40  2  0  0  0  0
 40 41  1  0  0  0  0
 41 42  1  0  0  0  0
 41 43  2  0  0  0  0
 43 44  1  0  0  0  0
 44 45  1  0  0  0  0
 43 46  1  0  0  0  0
 38 47  2  0  0  0  0
 47 48  1  0  0  0  0
 48 49  2  0  0  0  0
 49 50  1  0  0  0  0
 50 51  1  0  0  0  0
 51 52  1  0  0  0  0
 52 53  1  0  0  0  0
 53 54  1  0  0  0  0
 54 55  1  0  0  0  0
 53 56  2  0  0  0  0
 56 57  1  0  0  0  0
 57 58  1  0  0  0  0
 58 59  1  0  0  0  0
 59 60  1  0  0  0  0
 60 61  1  0  0  0  0
 61 62  1  0  0  0  0
 60 63  1  0  0  0  0
 63 64  2  0  0  0  0
 64 65  1  0  0  0  0
 65 66  1  0  0  0  0
 66 67  1  0  0  0  0
 67 68  1  0  0  0  0
 65 69  1  0  0  0  0
 69 70  1  0  0  0  0
 56 71  1  0  0  0  0
 71 72  2  0  0  0  0
 72 73  1  0  0  0  0
 73 74  2  0  0  0  0
 73 75  1  0  0  0  0
 75 76  2  0  0  0  0
 76 77  1  0  0  0  0
 77 78  2  0  0  0  0
 78 79  1  0  0  0  0
 79 80  2  0  0  0  0
 80 81  1  0  0  0  0
 81 82  2  0  0  0  0
 82 83  1  0  0  0  0
 83 84  3  0  0  0  0
 82 85  1  0  0  0  0
 85 86  3  0  0  0  0
 78 87  1  0  0  0  0
 87 88  1  0  0  0  0
 88 89  1  0  0  0  0
 89 90  2  0  0  0  0
 90 91  1  0  0  0  0
 91 92  1  0  0  0  0
 91 93  1  0  0  0  0
 13  2  1  0  0  0  0
 68 19  1  0  0  0  0
 81 72  1  0  0  0  0
 93 87  1  0  0  0  0
 12  5  1  0  0  0  0
 67 23  2  0  0  0  0
 80 75  1  0  0  0  0
 92 88  1  0  0  0  0
 66 25  2  0  0  0  0
 93 77  1  0  0  0  0
 64 26  1  0  0  0  0
 48 27  1  0  0  0  0
 63 49  1  0  0  0  0
 36 30  2  0  0  0  0
 46 39  1  0  0  0  0
 59 50  2  0  0  0  0
 58 52  2  0  0  0  0
  1 94  1  0  0  0  0
  6 95  1  0  0  0  0
 11 96  1  0  0  0  0
 21 97  1  0  0  0  0
 21 98  1  0  0  0  0
 22 99  1  0  0  0  0
 22100  1  0  0  0  0
 22101  1  0  0  0  0
 33102  1  0  0  0  0
 33103  1  0  0  0  0
 34104  1  0  0  0  0
 34105  1  0  0  0  0
 34106  1  0  0  0  0
 36107  1  0  0  0  0
 40108  1  0  0  0  0
 44109  1  0  0  0  0
 44110  1  0  0  0  0
 45111  1  0  0  0  0
 45112  1  0  0  0  0
 45113  1  0  0  0  0
 54114  1  0  0  0  0
 54115  1  0  0  0  0
 55116  1  0  0  0  0
 55117  1  0  0  0  0
 55118  1  0  0  0  0
 61119  1  0  0  0  0
 61120  1  0  0  0  0
 62121  1  0  0  0  0
 62122  1  0  0  0  0
 62123  1  0  0  0  0
 69124  1  0  0  0  0
 69125  1  0  0  0  0
 70126  1  0  0  0  0
 70127  1  0  0  0  0
 70128  1  0  0  0  0
 71129  1  0  0  0  0
 76130  1  0  0  0  0
 79131  1  0  0  0  0
 87132  1  0  0  0  0
 88133  1  0  0  0  0
 89134  1  0  0  0  0
 90135  1  0  0  0  0
 91136  1  0  0  0  0
 92137  1  0  0  0  0
 92138  1  0  0  0  0
 93139  1  0  0  0  0
M  END
