
  xtb     02022202243D
 energy: -154.367325430965 gnorm: 0.000624310671 xtb: 6.4.1 (unknown)
 72 79  0     0  0            999 V2000
   -3.4654    0.8686    3.7512 C   0  0  0  0  0  0  0  0  0  0  0  0
   -3.5645   -0.2727    4.4952 C   0  0  0  0  0  0  0  0  0  0  0  0
   -2.8845   -1.5482    4.2102 C   0  0  0  0  0  0  0  0  0  0  0  0
   -2.1577   -1.8053    3.2716 O   0  0  0  0  0  0  0  0  0  0  0  0
   -3.2629   -2.4610    5.3041 C   0  0  0  0  0  0  0  0  0  0  0  0
   -2.8762   -3.7710    5.5023 C   0  0  0  0  0  0  0  0  0  0  0  0
   -3.3620   -4.4387    6.6195 C   0  0  0  0  0  0  0  0  0  0  0  0
   -2.9057   -6.0672    6.9054 Cl  0  0  0  0  0  0  0  0  0  0  0  0
   -4.2214   -3.7852    7.5120 C   0  0  0  0  0  0  0  0  0  0  0  0
   -4.8132   -4.6198    8.8893 Cl  0  0  0  0  0  0  0  0  0  0  0  0
   -4.6084   -2.4652    7.3064 C   0  0  0  0  0  0  0  0  0  0  0  0
   -4.1259   -1.7958    6.1931 C   0  0  0  0  0  0  0  0  0  0  0  0
   -4.3441   -0.4327    5.7139 C   0  0  0  0  0  0  0  0  0  0  0  0
   -5.1480    0.4971    6.3157 C   0  0  0  0  0  0  0  0  0  0  0  0
   -5.8819    0.2611    7.4997 C   0  0  0  0  0  0  0  0  0  0  0  0
   -6.5018    0.1397    8.4574 N   0  0  0  0  0  0  0  0  0  0  0  0
   -5.3766    1.8142    5.8604 C   0  0  0  0  0  0  0  0  0  0  0  0
   -5.6195    2.8951    5.5595 N   0  0  0  0  0  0  0  0  0  0  0  0
   -2.7461    1.1319    2.5658 C   0  0  0  0  0  0  0  0  0  0  0  0
   -1.7503    0.0087    1.6620 S   0  0  0  0  0  0  0  0  0  0  0  0
   -1.3856    1.2354    0.5011 C   0  0  0  0  0  0  0  0  0  0  0  0
   -0.5802    1.1093   -0.6340 C   0  0  0  0  0  0  0  0  0  0  0  0
   -0.3730    2.2113   -1.4956 C   0  0  0  0  0  0  0  0  0  0  0  0
   -0.9917    3.4631   -1.1972 C   0  0  0  0  0  0  0  0  0  0  0  0
   -0.9177    4.6782   -1.9076 C   0  0  0  0  0  0  0  0  0  0  0  0
   -1.6442    5.6813   -1.3229 C   0  0  0  0  0  0  0  0  0  0  0  0
   -1.8508    7.0748   -1.7161 C   0  0  0  0  0  0  0  0  0  0  0  0
   -2.6101    7.7858   -1.0946 O   0  0  0  0  0  0  0  0  0  0  0  0
   -1.0452    7.5719   -2.8963 C   0  0  0  0  0  0  0  0  0  0  0  0
    0.4004    7.8329   -2.4674 C   0  0  0  0  0  0  0  0  0  0  0  0
   -2.4538    5.1533    0.1276 S   0  0  0  0  0  0  0  0  0  0  0  0
   -1.7969    3.5718   -0.0571 C   0  0  0  0  0  0  0  0  0  0  0  0
   -2.0082    2.4692    0.8049 C   0  0  0  0  0  0  0  0  0  0  0  0
   -2.7707    2.3861    1.9707 C   0  0  0  0  0  0  0  0  0  0  0  0
    0.4532    1.8719   -2.5638 C   0  0  0  0  0  0  0  0  0  0  0  0
    0.8820    0.5478   -2.5456 C   0  0  0  0  0  0  0  0  0  0  0  0
    0.2475   -0.3134   -1.1593 S   0  0  0  0  0  0  0  0  0  0  0  0
    1.7174    0.0380   -3.5570 C   0  0  0  0  0  0  0  0  0  0  0  0
    2.2437   -1.2131   -3.7335 C   0  0  0  0  0  0  0  0  0  0  0  0
    2.0394   -2.3653   -2.8420 C   0  0  0  0  0  0  0  0  0  0  0  0
    1.3884   -2.4061   -1.8181 O   0  0  0  0  0  0  0  0  0  0  0  0
    2.7945   -3.4827   -3.4467 C   0  0  0  0  0  0  0  0  0  0  0  0
    2.9187   -4.7794   -2.9920 C   0  0  0  0  0  0  0  0  0  0  0  0
    3.6928   -5.6544   -3.7476 C   0  0  0  0  0  0  0  0  0  0  0  0
    3.8254   -7.0872   -3.3055 C   0  0  0  0  0  0  0  0  0  0  0  0
    4.9552   -7.6627   -3.7388 F   0  0  0  0  0  0  0  0  0  0  0  0
    2.8131   -7.8448   -3.7695 F   0  0  0  0  0  0  0  0  0  0  0  0
    3.8128   -7.2171   -1.9721 F   0  0  0  0  0  0  0  0  0  0  0  0
    4.3116   -5.2370   -4.9210 C   0  0  0  0  0  0  0  0  0  0  0  0
    4.1823   -3.9304   -5.3702 C   0  0  0  0  0  0  0  0  0  0  0  0
    3.4169   -3.0436   -4.6278 C   0  0  0  0  0  0  0  0  0  0  0  0
    3.0950   -1.6292   -4.8340 C   0  0  0  0  0  0  0  0  0  0  0  0
    3.5334   -0.8682   -5.8842 C   0  0  0  0  0  0  0  0  0  0  0  0
    3.2384    0.4961   -6.0976 C   0  0  0  0  0  0  0  0  0  0  0  0
    3.0503    1.6013   -6.3467 N   0  0  0  0  0  0  0  0  0  0  0  0
    4.3598   -1.3490   -6.9241 C   0  0  0  0  0  0  0  0  0  0  0  0
    5.0289   -1.6692   -7.7994 N   0  0  0  0  0  0  0  0  0  0  0  0
   -4.0148    1.7332    4.1035 H   0  0  0  0  0  0  0  0  0  0  0  0
   -2.2134   -4.2598    4.8059 H   0  0  0  0  0  0  0  0  0  0  0  0
   -5.2706   -1.9980    8.0164 H   0  0  0  0  0  0  0  0  0  0  0  0
   -0.3540    4.7972   -2.8145 H   0  0  0  0  0  0  0  0  0  0  0  0
   -1.0738    6.8415   -3.7054 H   0  0  0  0  0  0  0  0  0  0  0  0
   -1.4951    8.5033   -3.2421 H   0  0  0  0  0  0  0  0  0  0  0  0
    0.4260    8.5755   -1.6735 H   0  0  0  0  0  0  0  0  0  0  0  0
    0.8709    6.9229   -2.1025 H   0  0  0  0  0  0  0  0  0  0  0  0
    0.9753    8.2090   -3.3100 H   0  0  0  0  0  0  0  0  0  0  0  0
   -3.3277    3.2132    2.3748 H   0  0  0  0  0  0  0  0  0  0  0  0
    0.7440    2.5540   -3.3430 H   0  0  0  0  0  0  0  0  0  0  0  0
    1.9655    0.7799   -4.3065 H   0  0  0  0  0  0  0  0  0  0  0  0
    2.4340   -5.0929   -2.0802 H   0  0  0  0  0  0  0  0  0  0  0  0
    4.9051   -5.9386   -5.4871 H   0  0  0  0  0  0  0  0  0  0  0  0
    4.6743   -3.6325   -6.2810 H   0  0  0  0  0  0  0  0  0  0  0  0
  1  2  2  0  0  0  0
  2  3  1  0  0  0  0
  3  4  2  0  0  0  0
  3  5  1  0  0  0  0
  5  6  2  0  0  0  0
  6  7  1  0  0  0  0
  7  8  1  0  0  0  0
  7  9  2  0  0  0  0
  9 10  1  0  0  0  0
  9 11  1  0  0  0  0
 11 12  2  0  0  0  0
 12 13  1  0  0  0  0
 13 14  2  0  0  0  0
 14 15  1  0  0  0  0
 15 16  3  0  0  0  0
 14 17  1  0  0  0  0
 17 18  3  0  0  0  0
  1 19  1  0  0  0  0
 19 20  1  0  0  0  0
 20 21  1  0  0  0  0
 21 22  2  0  0  0  0
 22 23  1  0  0  0  0
 23 24  2  0  0  0  0
 24 25  1  0  0  0  0
 25 26  2  0  0  0  0
 26 27  1  0  0  0  0
 27 28  2  0  0  0  0
 27 29  1  0  0  0  0
 29 30  1  0  0  0  0
 26 31  1  0  0  0  0
 31 32  1  0  0  0  0
 32 33  2  0  0  0  0
 33 34  1  0  0  0  0
 23 35  1  0  0  0  0
 35 36  2  0  0  0  0
 36 37  1  0  0  0  0
 36 38  1  0  0  0  0
 38 39  2  0  0  0  0
 39 40  1  0  0  0  0
 40 41  2  0  0  0  0
 40 42  1  0  0  0  0
 42 43  2  0  0  0  0
 43 44  1  0  0  0  0
 44 45  1  0  0  0  0
 45 46  1  0  0  0  0
 45 47  1  0  0  0  0
 45 48  1  0  0  0  0
 44 49  2  0  0  0  0
 49 50  1  0  0  0  0
 50 51  2  0  0  0  0
 51 52  1  0  0  0  0
 52 53  2  0  0  0  0
 53 54  1  0  0  0  0
 54 55  3  0  0  0  0
 53 56  1  0  0  0  0
 56 57  3  0  0  0  0
 13  2  1  0  0  0  0
 34 19  2  0  0  0  0
 52 39  1  0  0  0  0
 12  5  1  0  0  0  0
 33 21  1  0  0  0  0
 51 42  1  0  0  0  0
 37 22  1  0  0  0  0
 32 24  1  0  0  0  0
  1 58  1  0  0  0  0
  6 59  1  0  0  0  0
 11 60  1  0  0  0  0
 25 61  1  0  0  0  0
 29 62  1  0  0  0  0
 29 63  1  0  0  0  0
 30 64  1  0  0  0  0
 30 65  1  0  0  0  0
 30 66  1  0  0  0  0
 34 67  1  0  0  0  0
 35 68  1  0  0  0  0
 38 69  1  0  0  0  0
 43 70  1  0  0  0  0
 49 71  1  0  0  0  0
 50 72  1  0  0  0  0
M  END
