72

C         -3.46540        0.86860        3.75120
C         -3.56450       -0.27270        4.49520
C         -2.88450       -1.54820        4.21020
O         -2.15770       -1.80530        3.27160
C         -3.26290       -2.46100        5.30410
C         -2.87620       -3.77100        5.50230
C         -3.36200       -4.43870        6.61950
Cl        -2.90570       -6.06720        6.90540
C         -4.22140       -3.78520        7.51200
Cl        -4.81320       -4.61980        8.88930
C         -4.60840       -2.46520        7.30640
C         -4.12590       -1.79580        6.19310
C         -4.34410       -0.43270        5.71390
C         -5.14800        0.49710        6.31570
C         -5.88190        0.26110        7.49970
N         -6.50180        0.13970        8.45740
C         -5.37660        1.81420        5.86040
N         -5.61950        2.89510        5.55950
C         -2.74610        1.13190        2.56580
S         -1.75030        0.00870        1.66200
C         -1.38560        1.23540        0.50110
C         -0.58020        1.10930       -0.63400
C         -0.37300        2.21130       -1.49560
C         -0.99170        3.46310       -1.19720
C         -0.91770        4.67820       -1.90760
C         -1.64420        5.68130       -1.32290
C         -1.85080        7.07480       -1.71610
O         -2.61010        7.78580       -1.09460
C         -1.04520        7.57190       -2.89630
C          0.40040        7.83290       -2.46740
S         -2.45380        5.15330        0.12760
C         -1.79690        3.57180       -0.05710
C         -2.00820        2.46920        0.80490
C         -2.77070        2.38610        1.97070
C          0.45320        1.87190       -2.56380
C          0.88200        0.54780       -2.54560
S          0.24750       -0.31340       -1.15930
C          1.71740        0.03800       -3.55700
C          2.24370       -1.21310       -3.73350
C          2.03940       -2.36530       -2.84200
O          1.38840       -2.40610       -1.81810
C          2.79450       -3.48270       -3.44670
C          2.91870       -4.77940       -2.99200
C          3.69280       -5.65440       -3.74760
C          3.82540       -7.08720       -3.30550
F          4.95520       -7.66270       -3.73880
F          2.81310       -7.84480       -3.76950
F          3.81280       -7.21710       -1.97210
C          4.31160       -5.23700       -4.92100
C          4.18230       -3.93040       -5.37020
C          3.41690       -3.04360       -4.62780
C          3.09500       -1.62920       -4.83400
C          3.53340       -0.86820       -5.88420
C          3.23840        0.49610       -6.09760
N          3.05030        1.60130       -6.34670
C          4.35980       -1.34900       -6.92410
N          5.02890       -1.66920       -7.79940
H         -4.01480        1.73320        4.10350
H         -2.21340       -4.25980        4.80590
H         -5.27060       -1.99800        8.01640
H         -0.35400        4.79720       -2.81450
H         -1.07380        6.84150       -3.70540
H         -1.49510        8.50330       -3.24210
H          0.42600        8.57550       -1.67350
H          0.87090        6.92290       -2.10250
H          0.97530        8.20900       -3.31000
H         -3.32770        3.21320        2.37480
H          0.74400        2.55400       -3.34300
H          1.96550        0.77990       -4.30650
H          2.43400       -5.09290       -2.08020
H          4.90510       -5.93860       -5.48710
H          4.67430       -3.63250       -6.28100
