175

C         -8.83860       -2.04990       -2.60810
C         -9.91950       -1.21690       -2.79890
C         -9.91970        0.23390       -2.61360
O         -8.99500        0.94430       -2.25980
C        -11.28700        0.68600       -2.94420
C        -11.80010        1.96560       -2.92540
C        -13.13300        2.14420       -3.27590
Cl       -13.81260        3.72170       -3.26500
C        -13.91920        1.04580       -3.63550
Cl       -15.56640        1.27900       -4.06480
C        -13.39540       -0.24320       -3.65350
C        -12.06780       -0.42510       -3.30540
C        -11.23910       -1.62930       -3.22440
C        -11.67180       -2.90060       -3.50840
C        -10.89660       -4.07570       -3.42860
N        -10.34140       -5.08120       -3.39260
C        -12.98150       -3.21480       -3.92720
N        -14.02580       -3.54310       -4.27390
C         -7.53230       -1.76840       -2.20850
S         -6.86900       -0.18610       -1.80300
C         -5.35280       -0.90790       -1.48660
C         -4.06100       -0.50350       -1.09250
C         -3.21850       -1.61590       -1.06320
C         -3.97070       -2.87810       -1.40750
C         -5.34370       -2.30420       -1.67760
C         -6.56280       -2.78140       -2.08480
C         -3.90150       -3.77980       -0.18630
C         -4.89480       -3.77350        0.78160
C         -4.77120       -4.55890        1.91370
C         -3.65470       -5.35950        2.11020
C         -3.49650       -6.17080        3.36360
C         -2.69250       -5.39040        4.40580
C         -2.65910       -5.35320        1.14080
C         -2.77760       -4.57360        0.00700
C         -3.47940       -3.58570       -2.65460
C         -2.63080       -2.96790       -3.56040
C         -2.23030       -3.63130       -4.70650
C         -2.67150       -4.91850       -4.97830
C         -2.27490       -5.61730       -6.24640
C         -3.29280       -5.33130       -7.35240
C         -3.53160       -5.52730       -4.07220
C         -3.93190       -4.87140       -2.92490
C         -1.93290       -1.27170       -0.66680
S         -0.44650       -2.13980       -0.43330
C          0.32220       -0.65890        0.02980
C          1.63420       -0.29000        0.45680
C          2.78640       -1.05170        0.63180
C          3.90860       -0.39730        1.08260
C          5.28630       -0.97880        1.35320
C          6.03010       -1.37970        0.09040
C          7.20830       -2.10850        0.20310
C          7.93660       -2.44410       -0.92120
C          7.51200       -2.05880       -2.18690
C          8.32830       -2.38480       -3.40410
C          9.34140       -1.27210       -3.68060
C          6.34120       -1.32160       -2.29250
C          5.60860       -0.98100       -1.16930
C          5.14300       -2.13810        2.31850
C          4.89110       -3.41670        1.83620
C          4.70470       -4.47120        2.70890
C          4.76110       -4.27890        4.08350
C          4.51080       -5.42030        5.02650
C          3.01130       -5.57570        5.28830
C          5.00360       -2.99800        4.56010
C          5.18900       -1.93850        3.69080
C          5.99500        0.22560        1.92050
C          5.15700        1.34310        1.89530
C          3.87100        0.98370        1.38980
C          2.72160        1.74860        1.19730
C          1.61040        1.10270        0.71100
C          0.23990        1.68590        0.40740
C         -0.29630        2.36380        1.65280
C         -1.07270        1.67320        2.57160
C         -1.52320        2.29960        3.71970
C         -1.20520        3.62440        3.98220
C         -1.66050        4.29530        5.24590
C         -0.56740        4.22610        6.31420
C         -0.41420        4.30660        3.06590
C          0.03610        3.68690        1.91670
C          0.22640        2.62090       -0.79050
C         -0.91010        3.38180       -1.03820
C         -0.97810        4.19980       -2.14870
C          0.08250        4.27750       -3.04310
C          0.02470        5.20410       -4.22300
C          0.53480        6.59400       -3.83680
C          1.21230        3.51110       -2.79320
C          1.28420        2.68580       -1.68510
C         -0.51430        0.44440        0.01140
C         -1.80240        0.10860       -0.39840
S         -3.28460        0.97890       -0.63990
S          5.89830        2.76350        2.48790
C          7.38140        1.86420        2.77980
C          7.24900        0.51780        2.40780
C          8.57270        2.36670        3.31770
C          8.90030        3.62470        3.75820
C          8.00870        4.79840        3.76250
O          6.85520        4.85440        3.36990
C          8.79770        5.88670        4.33920
C         10.10640        5.40250        4.66460
C         10.90070        6.36290        5.20660
S         10.05710        7.86620        5.32430
C          8.59810        7.19990        4.63060
C          7.37860        8.01400        4.43020
C         10.19060        3.99940        4.30940
C         11.31000        3.22550        4.48790
C         11.44590        1.86450        4.15840
N         11.62800        0.75550        3.91690
C         12.48470        3.76550        5.04960
N         13.44920        4.18910        5.50560
H         -9.00390       -3.10380       -2.79640
H        -11.18120        2.80330       -2.64540
H        -14.03420       -1.06340       -3.93640
H         -6.79070       -3.81130       -2.29450
H         -5.77140       -3.15560        0.65370
H         -5.55700       -4.54700        2.65550
H         -2.97900       -7.10510        3.13680
H         -4.47810       -6.41440        3.77430
H         -1.70430       -5.14940        4.02000
H         -3.19830       -4.45990        4.65390
H         -2.57740       -5.97630        5.31460
H         -1.78000       -5.96700        1.27470
H         -1.99530       -4.58380       -0.73810
H         -2.27650       -1.96430       -3.37490
H         -1.56300       -3.13830       -5.39900
H         -2.22350       -6.69440       -6.07520
H         -1.28910       -5.27410       -6.56650
H         -3.00870       -5.83820       -8.27160
H         -3.34910       -4.26270       -7.54750
H         -4.28060       -5.67650       -7.05600
H         -3.88970       -6.52790       -4.26670
H         -4.59270       -5.36230       -2.22530
H          2.78740       -2.10970        0.41930
H          7.54950       -2.42320        1.17860
H          8.84820       -3.01460       -0.81520
H          8.86070       -3.32580       -3.25210
H          7.67310       -2.49830       -4.27030
H         10.01260       -1.15250       -2.83320
H          9.93310       -1.50640       -4.56240
H          8.82930       -0.32680       -3.84640
H          5.99440       -1.00840       -3.26720
H          4.70200       -0.40400       -1.27950
H          4.85390       -3.59010        0.77020
H          4.51590       -5.46040        2.31650
H          4.89850       -6.34660        4.59770
H          5.02500       -5.24000        5.97250
H          2.82730       -6.40300        5.96980
H          2.48270       -5.76770        4.35720
H          2.60810       -4.66610        5.72810
H          5.04990       -2.82540        5.62600
H          5.37320       -0.94980        4.08550
H          2.71810        2.80310        1.42480
H         -1.33190        0.63950        2.39300
H         -2.13400        1.74800        4.42030
H         -1.89790        5.34180        5.04310
H         -2.56220        3.80690        5.62040
H         -0.31990        3.19000        6.53500
H         -0.90060        4.70710        7.23090
H          0.33430        4.72570        5.96730
H         -0.15160        5.33810        3.25260
H          0.63860        4.23950        1.21040
H         -1.74340        3.33690       -0.35190
H         -1.86990        4.78350       -2.32550
H          0.63810        4.80880       -5.03530
H         -1.00420        5.28510       -4.57910
H         -0.07190        7.01030       -3.03580
H          1.56460        6.53660       -3.49140
H          0.49140        7.26590       -4.69070
H          2.04830        3.55470       -3.47700
H          2.17180        2.09330       -1.51790
H          8.05760       -0.18320        2.51450
H          9.34970        1.61460        3.39360
H         11.91540        6.30540        5.54600
H          7.58740        8.86890        3.78770
H          7.01050        8.39540        5.38240
H          6.61020        7.39660        3.97020
