
  xtb     02012223593D
 energy: -200.308376830684 gnorm: 0.000610408680 xtb: 6.4.1 (unknown)
110124  0     0  0            999 V2000
    2.5440   -8.7327    1.5821 C   0  0  0  0  0  0  0  0  0  0  0  0
    2.1216   -9.2097    0.3602 C   0  0  0  0  0  0  0  0  0  0  0  0
    1.5132   -8.4224   -0.7107 C   0  0  0  0  0  0  0  0  0  0  0  0
    1.2641   -7.2286   -0.7183 O   0  0  0  0  0  0  0  0  0  0  0  0
    1.2488   -9.3693   -1.8128 C   0  0  0  0  0  0  0  0  0  0  0  0
    0.6848   -9.1203   -3.0461 C   0  0  0  0  0  0  0  0  0  0  0  0
    0.5341  -10.1846   -3.9267 C   0  0  0  0  0  0  0  0  0  0  0  0
   -0.1642   -9.9181   -5.4732 Cl  0  0  0  0  0  0  0  0  0  0  0  0
    0.9482  -11.4678   -3.5571 C   0  0  0  0  0  0  0  0  0  0  0  0
    0.7568  -12.7755   -4.6546 Cl  0  0  0  0  0  0  0  0  0  0  0  0
    1.5163  -11.7129   -2.3107 C   0  0  0  0  0  0  0  0  0  0  0  0
    1.6681  -10.6550   -1.4306 C   0  0  0  0  0  0  0  0  0  0  0  0
    2.2162  -10.5870   -0.0751 C   0  0  0  0  0  0  0  0  0  0  0  0
    2.7131  -11.6577    0.6256 C   0  0  0  0  0  0  0  0  0  0  0  0
    3.2402  -11.6173    1.9327 C   0  0  0  0  0  0  0  0  0  0  0  0
    3.6839  -11.6694    2.9918 N   0  0  0  0  0  0  0  0  0  0  0  0
    2.7637  -12.9753    0.1241 C   0  0  0  0  0  0  0  0  0  0  0  0
    2.8365  -14.0686   -0.2187 N   0  0  0  0  0  0  0  0  0  0  0  0
    2.5029   -7.4506    2.1287 C   0  0  0  0  0  0  0  0  0  0  0  0
    2.9998   -7.1441    3.4107 C   0  0  0  0  0  0  0  0  0  0  0  0
    3.6808   -8.1004    4.3339 C   0  0  0  0  0  0  0  0  0  0  0  0
    5.1616   -8.2440    3.9744 C   0  0  0  0  0  0  0  0  0  0  0  0
    2.8339   -5.8031    3.7186 C   0  0  0  0  0  0  0  0  0  0  0  0
    3.2697   -4.7748    5.2560 Se  0  0  0  0  0  2  0  0  0  0  0  0
    2.5077   -3.3657    4.3108 C   0  0  0  0  0  0  0  0  0  0  0  0
    2.1948   -2.0180    4.5049 C   0  0  0  0  0  0  0  0  0  0  0  0
    2.3188   -1.2185    5.6612 C   0  0  0  0  0  0  0  0  0  0  0  0
    1.7608    0.0975    5.6469 C   0  0  0  0  0  0  0  0  0  0  0  0
    1.8863    0.7171    6.8095 N   0  0  0  0  0  0  0  0  0  0  0  0
    2.6498   -0.2784    7.8367 S   0  0  0  0  0  0  0  0  0  0  0  0
    2.8447   -1.5375    6.8329 N   0  0  0  0  0  0  0  0  0  0  0  0
    1.2120    0.5884    4.4430 C   0  0  0  0  0  0  0  0  0  0  0  0
    0.7065    1.8570    4.1404 C   0  0  0  0  0  0  0  0  0  0  0  0
    0.3738    3.4725    5.0002 Se  0  0  0  0  0  2  0  0  0  0  0  0
   -0.1872    4.0607    3.2834 C   0  0  0  0  0  0  0  0  0  0  0  0
   -0.6770    5.2763    2.8229 C   0  0  0  0  0  0  0  0  0  0  0  0
   -0.9077    6.4386    3.7328 C   0  0  0  0  0  0  0  0  0  0  0  0
   -2.3528    6.4548    4.2362 C   0  0  0  0  0  0  0  0  0  0  0  0
   -0.9708    5.2316    1.4506 C   0  0  0  0  0  0  0  0  0  0  0  0
   -0.6065    3.6557    0.7512 S   0  0  0  0  0  0  0  0  0  0  0  0
   -0.0841    3.0743    2.2881 C   0  0  0  0  0  0  0  0  0  0  0  0
    0.4069    1.8552    2.7727 C   0  0  0  0  0  0  0  0  0  0  0  0
    0.6845    0.6247    2.2328 N   0  0  0  0  0  0  0  0  0  0  0  0
    1.1742   -0.1833    3.2458 C   0  0  0  0  0  0  0  0  0  0  0  0
    1.5673   -1.5483    3.3128 C   0  0  0  0  0  0  0  0  0  0  0  0
    1.4660   -2.6141    2.4434 N   0  0  0  0  0  0  0  0  0  0  0  0
    2.0381   -3.7096    3.0350 C   0  0  0  0  0  0  0  0  0  0  0  0
    2.2077   -5.0565    2.7015 C   0  0  0  0  0  0  0  0  0  0  0  0
    1.8253   -6.0303    1.3327 S   0  0  0  0  0  0  0  0  0  0  0  0
    0.6922   -2.7784    1.2343 C   0  0  0  0  0  0  0  0  0  0  0  0
    1.5722   -2.7913   -0.0152 C   0  0  0  0  0  0  0  0  0  0  0  0
    0.8930    0.5474    0.8026 C   0  0  0  0  0  0  0  0  0  0  0  0
    2.3152    0.9708    0.4405 C   0  0  0  0  0  0  0  0  0  0  0  0
   -1.5000    6.3202    0.7476 C   0  0  0  0  0  0  0  0  0  0  0  0
   -1.8747    6.4465   -0.5663 C   0  0  0  0  0  0  0  0  0  0  0  0
   -1.7973    5.4069   -1.5960 C   0  0  0  0  0  0  0  0  0  0  0  0
   -1.3595    4.2737   -1.4769 O   0  0  0  0  0  0  0  0  0  0  0  0
   -2.3531    5.9961   -2.8248 C   0  0  0  0  0  0  0  0  0  0  0  0
   -2.4992    5.3731   -4.0617 C   0  0  0  0  0  0  0  0  0  0  0  0
   -3.0572    6.1744   -5.0286 C   0  0  0  0  0  0  0  0  0  0  0  0
   -3.4463    7.4973   -4.7809 C   0  0  0  0  0  0  0  0  0  0  0  0
   -3.3085    8.1231   -3.5644 C   0  0  0  0  0  0  0  0  0  0  0  0
   -2.7369    7.3279   -2.5675 C   0  0  0  0  0  0  0  0  0  0  0  0
   -2.4348    7.6393   -1.1708 C   0  0  0  0  0  0  0  0  0  0  0  0
   -2.6444    8.8544   -0.5688 C   0  0  0  0  0  0  0  0  0  0  0  0
   -2.3530    9.1740    0.7733 C   0  0  0  0  0  0  0  0  0  0  0  0
   -2.1483    9.5222    1.8495 N   0  0  0  0  0  0  0  0  0  0  0  0
   -3.1842    9.9857   -1.2161 C   0  0  0  0  0  0  0  0  0  0  0  0
   -3.6142   10.9500   -1.6678 N   0  0  0  0  0  0  0  0  0  0  0  0
   -3.9231    7.7065   -6.1961 C   0  0  0  0  0  0  0  0  0  0  0  0
   -3.0139    8.5194   -7.1504 C   0  0  0  0  0  0  0  0  0  0  0  0
   -1.6031    8.3546   -6.6421 C   0  0  0  0  0  0  0  0  0  0  0  0
   -1.2317    7.1032   -6.8772 C   0  0  0  0  0  0  0  0  0  0  0  0
   -2.3850    6.3991   -7.5484 C   0  0  0  0  0  0  0  0  0  0  0  0
   -2.9814    7.5642   -8.3542 C   0  0  0  0  0  0  0  0  0  0  0  0
   -3.4873    6.2330   -6.4729 C   0  0  0  0  0  0  0  0  0  0  0  0
    2.9866   -9.4645    2.2435 H   0  0  0  0  0  0  0  0  0  0  0  0
    0.3698   -8.1252   -3.3174 H   0  0  0  0  0  0  0  0  0  0  0  0
    1.8223  -12.7160   -2.0637 H   0  0  0  0  0  0  0  0  0  0  0  0
    3.2039   -9.0813    4.3117 H   0  0  0  0  0  0  0  0  0  0  0  0
    3.5989   -7.7018    5.3502 H   0  0  0  0  0  0  0  0  0  0  0  0
    5.2776   -8.6355    2.9665 H   0  0  0  0  0  0  0  0  0  0  0  0
    5.6581   -7.2776    4.0325 H   0  0  0  0  0  0  0  0  0  0  0  0
    5.6440   -8.9280    4.6666 H   0  0  0  0  0  0  0  0  0  0  0  0
   -0.6833    7.3838    3.2365 H   0  0  0  0  0  0  0  0  0  0  0  0
   -0.2344    6.3325    4.5895 H   0  0  0  0  0  0  0  0  0  0  0  0
   -3.0484    6.5570    3.4064 H   0  0  0  0  0  0  0  0  0  0  0  0
   -2.5763    5.5314    4.7667 H   0  0  0  0  0  0  0  0  0  0  0  0
   -2.4988    7.2920    4.9127 H   0  0  0  0  0  0  0  0  0  0  0  0
   -0.0747   -2.0032    1.1983 H   0  0  0  0  0  0  0  0  0  0  0  0
    0.1781   -3.7429    1.3037 H   0  0  0  0  0  0  0  0  0  0  0  0
    0.9483   -2.7975   -0.9043 H   0  0  0  0  0  0  0  0  0  0  0  0
    2.2323   -1.9286   -0.0491 H   0  0  0  0  0  0  0  0  0  0  0  0
    2.1838   -3.6892   -0.0261 H   0  0  0  0  0  0  0  0  0  0  0  0
    0.6981   -0.4514    0.4307 H   0  0  0  0  0  0  0  0  0  0  0  0
    0.1772    1.2294    0.3371 H   0  0  0  0  0  0  0  0  0  0  0  0
    2.4979    1.9944    0.7586 H   0  0  0  0  0  0  0  0  0  0  0  0
    3.0431    0.3238    0.9270 H   0  0  0  0  0  0  0  0  0  0  0  0
    2.4538    0.9134   -0.6353 H   0  0  0  0  0  0  0  0  0  0  0  0
   -1.6406    7.1960    1.3659 H   0  0  0  0  0  0  0  0  0  0  0  0
   -2.1899    4.3497   -4.2063 H   0  0  0  0  0  0  0  0  0  0  0  0
   -3.6163    9.1408   -3.3929 H   0  0  0  0  0  0  0  0  0  0  0  0
   -4.9756    7.9572   -6.3120 H   0  0  0  0  0  0  0  0  0  0  0  0
   -3.3437    9.5393   -7.3281 H   0  0  0  0  0  0  0  0  0  0  0  0
   -1.0583    9.1249   -6.1283 H   0  0  0  0  0  0  0  0  0  0  0  0
   -0.3141    6.6186   -6.5989 H   0  0  0  0  0  0  0  0  0  0  0  0
   -2.1420    5.4886   -8.0900 H   0  0  0  0  0  0  0  0  0  0  0  0
   -3.9673    7.3487   -8.7640 H   0  0  0  0  0  0  0  0  0  0  0  0
   -2.3205    7.9092   -9.1478 H   0  0  0  0  0  0  0  0  0  0  0  0
   -4.2550    5.5219   -6.7721 H   0  0  0  0  0  0  0  0  0  0  0  0
  1  2  2  0  0  0  0
  2  3  1  0  0  0  0
  3  4  2  0  0  0  0
  3  5  1  0  0  0  0
  5  6  2  0  0  0  0
  6  7  1  0  0  0  0
  7  8  1  0  0  0  0
  7  9  2  0  0  0  0
  9 10  1  0  0  0  0
  9 11  1  0  0  0  0
 11 12  2  0  0  0  0
 12 13  1  0  0  0  0
 13 14  2  0  0  0  0
 14 15  1  0  0  0  0
 15 16  3  0  0  0  0
 14 17  1  0  0  0  0
 17 18  3  0  0  0  0
  1 19  1  0  0  0  0
 19 20  2  0  0  0  0
 20 21  1  0  0  0  0
 21 22  1  0  0  0  0
 20 23  1  0  0  0  0
 23 24  1  0  0  0  0
 24 25  1  0  0  0  0
 25 26  1  0  0  0  0
 26 27  1  0  0  0  0
 27 28  1  0  0  0  0
 28 29  2  0  0  0  0
 29 30  1  0  0  0  0
 30 31  1  0  0  0  0
 28 32  1  0  0  0  0
 32 33  1  0  0  0  0
 33 34  1  0  0  0  0
 34 35  1  0  0  0  0
 35 36  1  0  0  0  0
 36 37  1  0  0  0  0
 37 38  1  0  0  0  0
 36 39  2  0  0  0  0
 39 40  1  0  0  0  0
 40 41  1  0  0  0  0
 41 42  1  0  0  0  0
 42 43  1  0  0  0  0
 43 44  1  0  0  0  0
 44 45  1  0  0  0  0
 45 46  1  0  0  0  0
 46 47  1  0  0  0  0
 47 48  1  0  0  0  0
 48 49  1  0  0  0  0
 46 50  1  0  0  0  0
 50 51  1  0  0  0  0
 43 52  1  0  0  0  0
 52 53  1  0  0  0  0
 39 54  1  0  0  0  0
 54 55  2  0  0  0  0
 55 56  1  0  0  0  0
 56 57  2  0  0  0  0
 56 58  1  0  0  0  0
 58 59  2  0  0  0  0
 59 60  1  0  0  0  0
 60 61  2  0  0  0  0
 61 62  1  0  0  0  0
 62 63  2  0  0  0  0
 63 64  1  0  0  0  0
 64 65  2  0  0  0  0
 65 66  1  0  0  0  0
 66 67  3  0  0  0  0
 65 68  1  0  0  0  0
 68 69  3  0  0  0  0
 61 70  1  0  0  0  0
 70 71  1  0  0  0  0
 71 72  1  0  0  0  0
 72 73  2  0  0  0  0
 73 74  1  0  0  0  0
 74 75  1  0  0  0  0
 74 76  1  0  0  0  0
 13  2  1  0  0  0  0
 49 19  1  0  0  0  0
 64 55  1  0  0  0  0
 76 70  1  0  0  0  0
 12  5  1  0  0  0  0
 48 23  2  0  0  0  0
 63 58  1  0  0  0  0
 75 71  1  0  0  0  0
 47 25  2  0  0  0  0
 76 60  1  0  0  0  0
 45 26  2  0  0  0  0
 31 27  2  0  0  0  0
 44 32  2  0  0  0  0
 42 33  2  0  0  0  0
 41 35  2  0  0  0  0
  1 77  1  0  0  0  0
  6 78  1  0  0  0  0
 11 79  1  0  0  0  0
 21 80  1  0  0  0  0
 21 81  1  0  0  0  0
 22 82  1  0  0  0  0
 22 83  1  0  0  0  0
 22 84  1  0  0  0  0
 37 85  1  0  0  0  0
 37 86  1  0  0  0  0
 38 87  1  0  0  0  0
 38 88  1  0  0  0  0
 38 89  1  0  0  0  0
 50 90  1  0  0  0  0
 50 91  1  0  0  0  0
 51 92  1  0  0  0  0
 51 93  1  0  0  0  0
 51 94  1  0  0  0  0
 52 95  1  0  0  0  0
 52 96  1  0  0  0  0
 53 97  1  0  0  0  0
 53 98  1  0  0  0  0
 53 99  1  0  0  0  0
 54100  1  0  0  0  0
 59101  1  0  0  0  0
 62102  1  0  0  0  0
 70103  1  0  0  0  0
 71104  1  0  0  0  0
 72105  1  0  0  0  0
 73106  1  0  0  0  0
 74107  1  0  0  0  0
 75108  1  0  0  0  0
 75109  1  0  0  0  0
 76110  1  0  0  0  0
M  END
