95

C          1.20450       -6.02480        3.29050
C          0.82570       -7.31550        2.99860
C         -0.08400       -7.80250        1.94530
O         -0.63140       -7.18670        1.05250
C         -0.23560       -9.25460        2.19100
C         -1.01010      -10.16130        1.49810
C         -1.00830      -11.48550        1.91890
Cl        -1.96000      -12.64680        1.08460
C         -0.23690      -11.87270        3.01890
Cl        -0.24850      -13.51150        3.53540
C          0.54490      -10.95440        3.71180
C          0.54620       -9.63410        3.29310
C          1.24410       -8.45280        3.79740
C          2.15840       -8.46960        4.82230
C          2.89350       -7.36840        5.30710
N          3.53720       -6.53120        5.76240
C          2.51600       -9.62790        5.54430
N          2.85950      -10.52390        6.17460
C          0.95860       -4.79980        2.65890
C          0.32400       -4.50270        1.43240
C          0.39190       -3.13090        1.29380
C          1.05380       -2.60420        2.42600
N          1.40880       -3.61290        3.24200
C          2.03570       -3.44600        4.53250
C          1.01670       -3.53670        5.66650
C          1.06710       -1.20670        2.27860
C          1.49610       -0.17830        3.14640
C          1.25620        1.18610        2.78080
N          1.65800        2.04100        3.70750
S          2.29460        1.20780        4.93760
N          2.07970       -0.28250        4.33240
C          0.70120        1.46320        1.51310
C          0.46960        2.68080        0.86520
S          0.59400        4.37530        1.18380
C          0.05400        4.68740       -0.45590
C         -0.15820        5.86380       -1.15750
C          0.01200        7.21440       -0.54370
C         -1.32570        7.74710       -0.02200
C         -0.59990        5.60590       -2.47040
S         -0.73130        3.87530       -2.79850
C         -0.20560        3.51900       -1.19720
C          0.03020        2.37570       -0.43010
N         -0.04250        1.01860       -0.59240
C          0.35300        0.42600        0.59460
C          0.43580       -0.92410        1.02550
N          0.02790       -2.11540        0.44470
C         -0.97200       -2.37500       -0.56760
C         -2.31380       -1.73610       -0.21740
C         -0.13750        0.47050       -1.92820
C          1.17350       -0.18110       -2.35900
C         -0.89110        6.61890       -3.38380
C         -1.33720        6.56430       -4.68570
C         -1.62060        5.35170       -5.45090
O         -1.51140        4.19250       -5.09080
C         -2.07160        5.80620       -6.78300
C         -2.45820        5.04130       -7.86500
C         -2.84130        5.70770       -9.01790
F         -3.22430        5.00660      -10.09230
C         -2.83130        7.10140       -9.06890
F         -3.20570        7.71900      -10.19490
C         -2.44230        7.86900       -7.98050
C         -2.05790        7.21030       -6.82350
C         -1.60150        7.71360       -5.52580
C         -1.46040        9.03960       -5.20410
C         -1.02120        9.54700       -3.96350
N         -0.67780       10.04150       -2.98470
C         -1.73990       10.10200       -6.09000
N         -1.94590       11.01180       -6.75860
H          1.79980       -5.93030        4.18700
H         -1.60130       -9.84730        0.65250
H          1.12370      -11.29230        4.55530
H         -0.10430       -5.23450        0.78000
H          2.82320       -4.19200        4.66760
H          2.48660       -2.45100        4.54070
H          0.28110       -2.74170        5.57080
H          1.52590       -3.42740        6.61900
H          0.49940       -4.49340        5.65670
H          0.42880        7.92310       -1.26060
H          0.70860        7.12350        0.29200
H         -1.73480        7.07360        0.72750
H         -1.18050        8.72470        0.42800
H         -2.04480        7.84460       -0.83180
H         -1.08990       -3.46020       -0.59990
H         -0.62070       -2.06050       -1.55110
H         -2.22180       -0.65930       -0.09540
H         -3.03730       -1.93980       -1.00220
H         -2.68910       -2.15200        0.71480
H         -0.97500       -0.22290       -2.00120
H         -0.35780        1.30960       -2.59240
H          1.07280       -0.58130       -3.36390
H          1.97200        0.55730       -2.36050
H          1.45670       -0.98650       -1.68520
H         -0.73700        7.61120       -2.98300
H         -2.46400        3.96400       -7.82050
H         -2.45280        8.94230       -8.07370
