
  xtb     02012223563D
 energy: -208.167231713881 gnorm: 0.000673919211 xtb: 6.4.1 (unknown)
114129  0     0  0            999 V2000
   -2.9093   -2.4084   -9.6126 C   0  0  0  0  0  0  0  0  0  0  0  0
   -4.2432   -2.2419   -9.9116 C   0  0  0  0  0  0  0  0  0  0  0  0
   -5.3543   -1.8824   -9.0123 C   0  0  0  0  0  0  0  0  0  0  0  0
   -5.3299   -1.5633   -7.8383 O   0  0  0  0  0  0  0  0  0  0  0  0
   -6.5820   -1.9906   -9.8294 C   0  0  0  0  0  0  0  0  0  0  0  0
   -7.8885   -1.7877   -9.4359 C   0  0  0  0  0  0  0  0  0  0  0  0
   -8.8931   -1.9558  -10.3803 C   0  0  0  0  0  0  0  0  0  0  0  0
  -10.5340   -1.7143   -9.9324 Cl  0  0  0  0  0  0  0  0  0  0  0  0
   -8.5715   -2.3216  -11.6909 C   0  0  0  0  0  0  0  0  0  0  0  0
   -9.8228   -2.5320  -12.8494 Cl  0  0  0  0  0  0  0  0  0  0  0  0
   -7.2518   -2.5215  -12.0823 C   0  0  0  0  0  0  0  0  0  0  0  0
   -6.2477   -2.3533  -11.1431 C   0  0  0  0  0  0  0  0  0  0  0  0
   -4.7936   -2.4793  -11.2350 C   0  0  0  0  0  0  0  0  0  0  0  0
   -4.1098   -2.7283  -12.3976 C   0  0  0  0  0  0  0  0  0  0  0  0
   -2.7087   -2.7877  -12.5577 C   0  0  0  0  0  0  0  0  0  0  0  0
   -1.5871   -2.8410  -12.8013 N   0  0  0  0  0  0  0  0  0  0  0  0
   -4.7309   -2.9380  -13.6476 C   0  0  0  0  0  0  0  0  0  0  0  0
   -5.1650   -3.1208  -14.6947 N   0  0  0  0  0  0  0  0  0  0  0  0
   -2.1830   -2.2098   -8.4326 C   0  0  0  0  0  0  0  0  0  0  0  0
   -0.4525   -2.6182   -8.5065 S   0  0  0  0  0  0  0  0  0  0  0  0
   -0.2549   -2.1260   -6.8775 C   0  0  0  0  0  0  0  0  0  0  0  0
    0.7084   -1.9870   -5.8865 C   0  0  0  0  0  0  0  0  0  0  0  0
    2.4191   -2.2468   -5.7275 S   0  0  0  0  0  0  0  0  0  0  0  0
    2.2913   -1.6659   -4.1083 C   0  0  0  0  0  0  0  0  0  0  0  0
    3.1775   -1.3976   -3.0595 C   0  0  0  0  0  0  0  0  0  0  0  0
    4.5892   -1.3967   -3.0311 C   0  0  0  0  0  0  0  0  0  0  0  0
    5.2499   -0.8384   -1.8893 C   0  0  0  0  0  0  0  0  0  0  0  0
    6.5669   -0.8208   -2.0248 N   0  0  0  0  0  0  0  0  0  0  0  0
    6.9416   -1.4596   -3.4639 S   0  0  0  0  0  0  0  0  0  0  0  0
    5.4386   -1.7788   -3.9715 N   0  0  0  0  0  0  0  0  0  0  0  0
    4.4717   -0.4360   -0.7821 C   0  0  0  0  0  0  0  0  0  0  0  0
    4.8582    0.0709    0.4682 C   0  0  0  0  0  0  0  0  0  0  0  0
    6.2913    0.5751    1.2903 S   0  0  0  0  0  0  0  0  0  0  0  0
    5.3228    0.9430    2.6984 C   0  0  0  0  0  0  0  0  0  0  0  0
    5.6455    1.4619    3.9574 C   0  0  0  0  0  0  0  0  0  0  0  0
    7.0177    1.9001    4.3416 C   0  0  0  0  0  0  0  0  0  0  0  0
    7.2008    3.3885    4.0348 C   0  0  0  0  0  0  0  0  0  0  0  0
    4.5130    1.6287    4.7424 C   0  0  0  0  0  0  0  0  0  0  0  0
    3.0515    1.0692    3.9263 S   0  0  0  0  0  0  0  0  0  0  0  0
    3.9612    0.6705    2.5174 C   0  0  0  0  0  0  0  0  0  0  0  0
    3.6967    0.1806    1.2368 C   0  0  0  0  0  0  0  0  0  0  0  0
    2.5993   -0.2122    0.5087 N   0  0  0  0  0  0  0  0  0  0  0  0
    3.0541   -0.5752   -0.7574 C   0  0  0  0  0  0  0  0  0  0  0  0
    2.3959   -0.9353   -1.9660 C   0  0  0  0  0  0  0  0  0  0  0  0
    1.0791   -0.8774   -2.3801 N   0  0  0  0  0  0  0  0  0  0  0  0
    0.9999   -1.3113   -3.6863 C   0  0  0  0  0  0  0  0  0  0  0  0
    0.0637   -1.4644   -4.7311 C   0  0  0  0  0  0  0  0  0  0  0  0
   -1.2780   -1.2975   -5.0063 N   0  0  0  0  0  0  0  0  0  0  0  0
   -1.4749   -1.6764   -6.3132 C   0  0  0  0  0  0  0  0  0  0  0  0
   -2.5501   -1.7197   -7.1831 C   0  0  0  0  0  0  0  0  0  0  0  0
   -2.3048   -0.5701   -4.2983 C   0  0  0  0  0  0  0  0  0  0  0  0
   -2.2318    0.9280   -4.5920 C   0  0  0  0  0  0  0  0  0  0  0  0
   -0.0546   -0.3499   -1.6684 C   0  0  0  0  0  0  0  0  0  0  0  0
   -0.9266   -1.4732   -1.1023 C   0  0  0  0  0  0  0  0  0  0  0  0
    1.4779   -0.7293    1.2686 C   0  0  0  0  0  0  0  0  0  0  0  0
    1.6629   -2.2161    1.5671 C   0  0  0  0  0  0  0  0  0  0  0  0
    4.4654    2.1096    6.0699 C   0  0  0  0  0  0  0  0  0  0  0  0
    3.4067    2.6326    6.7466 C   0  0  0  0  0  0  0  0  0  0  0  0
    3.3963    2.6416    8.2327 C   0  0  0  0  0  0  0  0  0  0  0  0
    4.3399    2.4436    8.9652 O   0  0  0  0  0  0  0  0  0  0  0  0
    1.9889    2.8837    8.6091 C   0  0  0  0  0  0  0  0  0  0  0  0
    1.4437    2.8711    9.8909 C   0  0  0  0  0  0  0  0  0  0  0  0
    0.0920    3.1164    9.9281 C   0  0  0  0  0  0  0  0  0  0  0  0
   -0.6693    3.3556    8.7756 C   0  0  0  0  0  0  0  0  0  0  0  0
   -0.1451    3.3806    7.5053 C   0  0  0  0  0  0  0  0  0  0  0  0
    1.2285    3.1353    7.4470 C   0  0  0  0  0  0  0  0  0  0  0  0
    2.1284    3.1372    6.2977 C   0  0  0  0  0  0  0  0  0  0  0  0
    1.8941    3.7643    5.1004 C   0  0  0  0  0  0  0  0  0  0  0  0
    2.9181    4.0285    4.1672 C   0  0  0  0  0  0  0  0  0  0  0  0
    3.7414    4.3116    3.4183 N   0  0  0  0  0  0  0  0  0  0  0  0
    0.6485    4.2843    4.7026 C   0  0  0  0  0  0  0  0  0  0  0  0
   -0.3493    4.6933    4.3069 N   0  0  0  0  0  0  0  0  0  0  0  0
   -1.9499    3.5096    9.5563 C   0  0  0  0  0  0  0  0  0  0  0  0
   -2.9457    2.3234    9.5545 C   0  0  0  0  0  0  0  0  0  0  0  0
   -2.1287    1.0767    9.3221 C   0  0  0  0  0  0  0  0  0  0  0  0
   -1.4093    0.8543   10.4139 C   0  0  0  0  0  0  0  0  0  0  0  0
   -1.7266    1.9469   11.4045 C   0  0  0  0  0  0  0  0  0  0  0  0
   -3.2042    2.1999   11.0646 C   0  0  0  0  0  0  0  0  0  0  0  0
   -1.1021    3.2473   10.8407 C   0  0  0  0  0  0  0  0  0  0  0  0
   -2.2915   -2.7674  -10.4270 H   0  0  0  0  0  0  0  0  0  0  0  0
   -8.1203   -1.5068   -8.4208 H   0  0  0  0  0  0  0  0  0  0  0  0
   -7.0466   -2.8041  -13.1013 H   0  0  0  0  0  0  0  0  0  0  0  0
    7.1872    1.7235    5.4052 H   0  0  0  0  0  0  0  0  0  0  0  0
    7.7437    1.3190    3.7695 H   0  0  0  0  0  0  0  0  0  0  0  0
    8.2016    3.7068    4.3138 H   0  0  0  0  0  0  0  0  0  0  0  0
    6.4745    3.9818    4.5849 H   0  0  0  0  0  0  0  0  0  0  0  0
    7.0569    3.5741    2.9737 H   0  0  0  0  0  0  0  0  0  0  0  0
   -3.5594   -1.4241   -6.9663 H   0  0  0  0  0  0  0  0  0  0  0  0
   -3.2655   -0.9614   -4.6418 H   0  0  0  0  0  0  0  0  0  0  0  0
   -2.2307   -0.7603   -3.2293 H   0  0  0  0  0  0  0  0  0  0  0  0
   -1.2582    1.3319   -4.3202 H   0  0  0  0  0  0  0  0  0  0  0  0
   -2.3898    1.1077   -5.6524 H   0  0  0  0  0  0  0  0  0  0  0  0
   -2.9994    1.4551   -4.0323 H   0  0  0  0  0  0  0  0  0  0  0  0
    0.3056    0.3236   -0.8902 H   0  0  0  0  0  0  0  0  0  0  0  0
   -0.6350    0.2594   -2.3651 H   0  0  0  0  0  0  0  0  0  0  0  0
   -0.3651   -2.0978   -0.4136 H   0  0  0  0  0  0  0  0  0  0  0  0
   -1.2774   -2.1178   -1.9054 H   0  0  0  0  0  0  0  0  0  0  0  0
   -1.7861   -1.0592   -0.5807 H   0  0  0  0  0  0  0  0  0  0  0  0
    0.5331   -0.5616    0.7630 H   0  0  0  0  0  0  0  0  0  0  0  0
    1.4531   -0.1667    2.2054 H   0  0  0  0  0  0  0  0  0  0  0  0
    1.7348   -2.7868    0.6431 H   0  0  0  0  0  0  0  0  0  0  0  0
    0.8226   -2.5864    2.1481 H   0  0  0  0  0  0  0  0  0  0  0  0
    2.5753   -2.3757    2.1370 H   0  0  0  0  0  0  0  0  0  0  0  0
    5.3691    1.9758    6.6571 H   0  0  0  0  0  0  0  0  0  0  0  0
    2.0627    2.6862   10.7549 H   0  0  0  0  0  0  0  0  0  0  0  0
   -0.7367    3.5637    6.6230 H   0  0  0  0  0  0  0  0  0  0  0  0
   -2.4509    4.4711    9.4631 H   0  0  0  0  0  0  0  0  0  0  0  0
   -3.8085    2.4597    8.9079 H   0  0  0  0  0  0  0  0  0  0  0  0
   -2.1144    0.5341    8.3949 H   0  0  0  0  0  0  0  0  0  0  0  0
   -0.6743    0.0888   10.5812 H   0  0  0  0  0  0  0  0  0  0  0  0
   -1.4801    1.7404   12.4426 H   0  0  0  0  0  0  0  0  0  0  0  0
   -3.6028    3.1092   11.5121 H   0  0  0  0  0  0  0  0  0  0  0  0
   -3.8446    1.3554   11.3149 H   0  0  0  0  0  0  0  0  0  0  0  0
   -1.0485    4.0389   11.5855 H   0  0  0  0  0  0  0  0  0  0  0  0
  1  2  2  0  0  0  0
  2  3  1  0  0  0  0
  3  4  2  0  0  0  0
  3  5  1  0  0  0  0
  5  6  2  0  0  0  0
  6  7  1  0  0  0  0
  7  8  1  0  0  0  0
  7  9  2  0  0  0  0
  9 10  1  0  0  0  0
  9 11  1  0  0  0  0
 11 12  2  0  0  0  0
 12 13  1  0  0  0  0
 13 14  2  0  0  0  0
 14 15  1  0  0  0  0
 15 16  3  0  0  0  0
 14 17  1  0  0  0  0
 17 18  3  0  0  0  0
  1 19  1  0  0  0  0
 19 20  1  0  0  0  0
 20 21  1  0  0  0  0
 21 22  1  0  0  0  0
 22 23  1  0  0  0  0
 23 24  1  0  0  0  0
 24 25  1  0  0  0  0
 25 26  1  0  0  0  0
 26 27  1  0  0  0  0
 27 28  2  0  0  0  0
 28 29  1  0  0  0  0
 29 30  1  0  0  0  0
 27 31  1  0  0  0  0
 31 32  1  0  0  0  0
 32 33  1  0  0  0  0
 33 34  1  0  0  0  0
 34 35  1  0  0  0  0
 35 36  1  0  0  0  0
 36 37  1  0  0  0  0
 35 38  2  0  0  0  0
 38 39  1  0  0  0  0
 39 40  1  0  0  0  0
 40 41  1  0  0  0  0
 41 42  1  0  0  0  0
 42 43  1  0  0  0  0
 43 44  1  0  0  0  0
 44 45  1  0  0  0  0
 45 46  1  0  0  0  0
 46 47  1  0  0  0  0
 47 48  1  0  0  0  0
 48 49  1  0  0  0  0
 49 50  1  0  0  0  0
 48 51  1  0  0  0  0
 51 52  1  0  0  0  0
 45 53  1  0  0  0  0
 53 54  1  0  0  0  0
 42 55  1  0  0  0  0
 55 56  1  0  0  0  0
 38 57  1  0  0  0  0
 57 58  2  0  0  0  0
 58 59  1  0  0  0  0
 59 60  2  0  0  0  0
 59 61  1  0  0  0  0
 61 62  2  0  0  0  0
 62 63  1  0  0  0  0
 63 64  2  0  0  0  0
 64 65  1  0  0  0  0
 65 66  2  0  0  0  0
 66 67  1  0  0  0  0
 67 68  2  0  0  0  0
 68 69  1  0  0  0  0
 69 70  3  0  0  0  0
 68 71  1  0  0  0  0
 71 72  3  0  0  0  0
 64 73  1  0  0  0  0
 73 74  1  0  0  0  0
 74 75  1  0  0  0  0
 75 76  2  0  0  0  0
 76 77  1  0  0  0  0
 77 78  1  0  0  0  0
 77 79  1  0  0  0  0
 13  2  1  0  0  0  0
 50 19  2  0  0  0  0
 67 58  1  0  0  0  0
 79 73  1  0  0  0  0
 12  5  1  0  0  0  0
 49 21  2  0  0  0  0
 66 61  1  0  0  0  0
 78 74  1  0  0  0  0
 47 22  2  0  0  0  0
 79 63  1  0  0  0  0
 46 24  2  0  0  0  0
 44 25  2  0  0  0  0
 30 26  2  0  0  0  0
 43 31  2  0  0  0  0
 41 32  2  0  0  0  0
 40 34  2  0  0  0  0
  1 80  1  0  0  0  0
  6 81  1  0  0  0  0
 11 82  1  0  0  0  0
 36 83  1  0  0  0  0
 36 84  1  0  0  0  0
 37 85  1  0  0  0  0
 37 86  1  0  0  0  0
 37 87  1  0  0  0  0
 50 88  1  0  0  0  0
 51 89  1  0  0  0  0
 51 90  1  0  0  0  0
 52 91  1  0  0  0  0
 52 92  1  0  0  0  0
 52 93  1  0  0  0  0
 53 94  1  0  0  0  0
 53 95  1  0  0  0  0
 54 96  1  0  0  0  0
 54 97  1  0  0  0  0
 54 98  1  0  0  0  0
 55 99  1  0  0  0  0
 55100  1  0  0  0  0
 56101  1  0  0  0  0
 56102  1  0  0  0  0
 56103  1  0  0  0  0
 57104  1  0  0  0  0
 62105  1  0  0  0  0
 65106  1  0  0  0  0
 73107  1  0  0  0  0
 74108  1  0  0  0  0
 75109  1  0  0  0  0
 76110  1  0  0  0  0
 77111  1  0  0  0  0
 78112  1  0  0  0  0
 78113  1  0  0  0  0
 79114  1  0  0  0  0
M  END
