
  xtb     02012217333D
 energy: -238.532316225106 gnorm: 0.000668358842 xtb: 6.4.1 (unknown)
136148  0     0  0            999 V2000
   -2.5410   -6.0997   -1.2803 C   0  0  0  0  0  0  0  0  0  0  0  0
   -2.1589   -7.4056   -1.4704 C   0  0  0  0  0  0  0  0  0  0  0  0
   -0.7972   -7.9787   -1.4681 C   0  0  0  0  0  0  0  0  0  0  0  0
    0.2619   -7.4502   -1.1977 O   0  0  0  0  0  0  0  0  0  0  0  0
   -0.9589   -9.3884   -1.8861 C   0  0  0  0  0  0  0  0  0  0  0  0
    0.0229  -10.3397   -2.0716 C   0  0  0  0  0  0  0  0  0  0  0  0
   -0.3617  -11.6120   -2.4747 C   0  0  0  0  0  0  0  0  0  0  0  0
    0.8282  -12.8258   -2.7194 Cl  0  0  0  0  0  0  0  0  0  0  0  0
   -1.7137  -11.9052   -2.6820 C   0  0  0  0  0  0  0  0  0  0  0  0
   -2.1775  -13.4816   -3.1823 Cl  0  0  0  0  0  0  0  0  0  0  0  0
   -2.6989  -10.9423   -2.4917 C   0  0  0  0  0  0  0  0  0  0  0  0
   -2.3181   -9.6721   -2.0902 C   0  0  0  0  0  0  0  0  0  0  0  0
   -3.0944   -8.4665   -1.8067 C   0  0  0  0  0  0  0  0  0  0  0  0
   -4.4639   -8.4021   -1.8250 C   0  0  0  0  0  0  0  0  0  0  0  0
   -5.3007   -9.4866   -2.1667 C   0  0  0  0  0  0  0  0  0  0  0  0
   -6.0442  -10.3194   -2.4338 N   0  0  0  0  0  0  0  0  0  0  0  0
   -5.2600   -7.2847   -1.4931 C   0  0  0  0  0  0  0  0  0  0  0  0
   -5.9968   -6.4455   -1.2230 N   0  0  0  0  0  0  0  0  0  0  0  0
   -1.8121   -4.9486   -0.9468 C   0  0  0  0  0  0  0  0  0  0  0  0
   -0.4771   -4.7347   -0.6075 C   0  0  0  0  0  0  0  0  0  0  0  0
   -0.2088   -3.4029   -0.3580 C   0  0  0  0  0  0  0  0  0  0  0  0
    1.0083   -2.5873   -0.0076 C   0  0  0  0  0  0  0  0  0  0  0  0
    2.0829   -2.8573   -1.0426 C   0  0  0  0  0  0  0  0  0  0  0  0
    2.2903   -2.0181   -2.1296 C   0  0  0  0  0  0  0  0  0  0  0  0
    3.2439   -2.3239   -3.0772 C   0  0  0  0  0  0  0  0  0  0  0  0
    4.0106   -3.4856   -2.9732 C   0  0  0  0  0  0  0  0  0  0  0  0
    4.9300   -3.6696   -3.9573 O   0  0  0  0  0  0  0  0  0  0  0  0
    5.6801   -4.8670   -4.0052 C   0  0  0  0  0  0  0  0  0  0  0  0
    4.8687   -6.0492   -4.5274 C   0  0  0  0  0  0  0  0  0  0  0  0
    3.7944   -4.3335   -1.8911 C   0  0  0  0  0  0  0  0  0  0  0  0
    2.8385   -4.0168   -0.9441 C   0  0  0  0  0  0  0  0  0  0  0  0
    1.5094   -2.8380    1.4061 C   0  0  0  0  0  0  0  0  0  0  0  0
    0.6850   -3.3803    2.3779 C   0  0  0  0  0  0  0  0  0  0  0  0
    1.1298   -3.5643    3.6766 C   0  0  0  0  0  0  0  0  0  0  0  0
    2.4223   -3.1934    4.0292 C   0  0  0  0  0  0  0  0  0  0  0  0
    2.9666   -3.3274    5.2648 O   0  0  0  0  0  0  0  0  0  0  0  0
    2.1863   -3.8865    6.3035 C   0  0  0  0  0  0  0  0  0  0  0  0
    3.0451   -3.9247    7.5576 C   0  0  0  0  0  0  0  0  0  0  0  0
    3.2509   -2.6335    3.0537 C   0  0  0  0  0  0  0  0  0  0  0  0
    2.7989   -2.4569    1.7654 C   0  0  0  0  0  0  0  0  0  0  0  0
    0.4327   -1.1822   -0.0377 C   0  0  0  0  0  0  0  0  0  0  0  0
   -0.9618   -1.2072   -0.2874 C   0  0  0  0  0  0  0  0  0  0  0  0
   -1.3209   -2.5715   -0.5034 C   0  0  0  0  0  0  0  0  0  0  0  0
   -2.7281   -3.4327   -0.9334 S   0  0  0  0  0  0  0  0  0  0  0  0
   -1.7304   -0.0443   -0.3051 C   0  0  0  0  0  0  0  0  0  0  0  0
   -1.0733    1.1451   -0.0972 C   0  0  0  0  0  0  0  0  0  0  0  0
   -1.6545    2.5490   -0.0702 C   0  0  0  0  0  0  0  0  0  0  0  0
   -2.4597    2.8297    1.1897 C   0  0  0  0  0  0  0  0  0  0  0  0
   -2.4113    1.9992    2.2961 C   0  0  0  0  0  0  0  0  0  0  0  0
   -3.1093    2.3070    3.4532 C   0  0  0  0  0  0  0  0  0  0  0  0
   -3.8655    3.4709    3.5235 C   0  0  0  0  0  0  0  0  0  0  0  0
   -4.5836    3.8756    4.6008 O   0  0  0  0  0  0  0  0  0  0  0  0
   -4.5891    3.0741    5.7660 C   0  0  0  0  0  0  0  0  0  0  0  0
   -5.4619    3.7688    6.7991 C   0  0  0  0  0  0  0  0  0  0  0  0
   -3.9066    4.3154    2.4109 C   0  0  0  0  0  0  0  0  0  0  0  0
   -3.2116    3.9993    1.2663 C   0  0  0  0  0  0  0  0  0  0  0  0
   -2.4711    2.7879   -1.3232 C   0  0  0  0  0  0  0  0  0  0  0  0
   -1.8969    3.3138   -2.4687 C   0  0  0  0  0  0  0  0  0  0  0  0
   -2.6386    3.5030   -3.6227 C   0  0  0  0  0  0  0  0  0  0  0  0
   -3.9835    3.1509   -3.6537 C   0  0  0  0  0  0  0  0  0  0  0  0
   -4.8152    3.2697   -4.7212 O   0  0  0  0  0  0  0  0  0  0  0  0
   -4.3737    3.9238   -5.8941 C   0  0  0  0  0  0  0  0  0  0  0  0
   -4.3318    5.4414   -5.7405 C   0  0  0  0  0  0  0  0  0  0  0  0
   -4.5581    2.6003   -2.5054 C   0  0  0  0  0  0  0  0  0  0  0  0
   -3.8133    2.4216   -1.3616 C   0  0  0  0  0  0  0  0  0  0  0  0
   -0.3956    3.3740    0.0282 C   0  0  0  0  0  0  0  0  0  0  0  0
    0.7215    2.5455    0.1661 C   0  0  0  0  0  0  0  0  0  0  0  0
    0.3301    1.1745    0.0942 C   0  0  0  0  0  0  0  0  0  0  0  0
    1.0914    0.0094    0.1530 C   0  0  0  0  0  0  0  0  0  0  0  0
    2.1929    3.3991    0.3088 S   0  0  0  0  0  0  0  0  0  0  0  0
    1.3180    4.9195    0.1835 C   0  0  0  0  0  0  0  0  0  0  0  0
   -0.0642    4.7099    0.0517 C   0  0  0  0  0  0  0  0  0  0  0  0
    1.8715    6.2060    0.1800 C   0  0  0  0  0  0  0  0  0  0  0  0
    3.1790    6.6198    0.2528 C   0  0  0  0  0  0  0  0  0  0  0  0
    4.3503    5.7468    0.3783 C   0  0  0  0  0  0  0  0  0  0  0  0
    4.3729    4.5320    0.4516 O   0  0  0  0  0  0  0  0  0  0  0  0
    5.5250    6.6426    0.4019 C   0  0  0  0  0  0  0  0  0  0  0  0
    6.8578    6.3030    0.5002 C   0  0  0  0  0  0  0  0  0  0  0  0
    7.7848    7.3392    0.5020 C   0  0  0  0  0  0  0  0  0  0  0  0
    9.4641    6.9749    0.6227 Cl  0  0  0  0  0  0  0  0  0  0  0  0
    7.3797    8.6658    0.4078 C   0  0  0  0  0  0  0  0  0  0  0  0
    6.0364    8.9957    0.3086 C   0  0  0  0  0  0  0  0  0  0  0  0
    5.0945    7.9771    0.3053 C   0  0  0  0  0  0  0  0  0  0  0  0
    3.6355    7.9962    0.2094 C   0  0  0  0  0  0  0  0  0  0  0  0
    2.8700    9.1277    0.0914 C   0  0  0  0  0  0  0  0  0  0  0  0
    1.4648    9.1706   -0.0237 C   0  0  0  0  0  0  0  0  0  0  0  0
    0.3279    9.2994   -0.1293 N   0  0  0  0  0  0  0  0  0  0  0  0
    3.3942   10.4376    0.0627 C   0  0  0  0  0  0  0  0  0  0  0  0
    3.7485   11.5292    0.0337 N   0  0  0  0  0  0  0  0  0  0  0  0
   -3.5950   -5.8970   -1.4302 H   0  0  0  0  0  0  0  0  0  0  0  0
    1.0610  -10.0978   -1.9072 H   0  0  0  0  0  0  0  0  0  0  0  0
   -3.7287  -11.2079   -2.6637 H   0  0  0  0  0  0  0  0  0  0  0  0
    0.2390   -5.5333   -0.5627 H   0  0  0  0  0  0  0  0  0  0  0  0
    1.7046   -1.1175   -2.2401 H   0  0  0  0  0  0  0  0  0  0  0  0
    3.4158   -1.6721   -3.9192 H   0  0  0  0  0  0  0  0  0  0  0  0
    6.4979   -4.6445   -4.6964 H   0  0  0  0  0  0  0  0  0  0  0  0
    6.1127   -5.0926   -3.0227 H   0  0  0  0  0  0  0  0  0  0  0  0
    5.5028   -6.9294   -4.5892 H   0  0  0  0  0  0  0  0  0  0  0  0
    4.4826   -5.8214   -5.5178 H   0  0  0  0  0  0  0  0  0  0  0  0
    4.0273   -6.2640   -3.8730 H   0  0  0  0  0  0  0  0  0  0  0  0
    4.3597   -5.2432   -1.7677 H   0  0  0  0  0  0  0  0  0  0  0  0
    2.6846   -4.6852   -0.1101 H   0  0  0  0  0  0  0  0  0  0  0  0
   -0.3243   -3.6745    2.1298 H   0  0  0  0  0  0  0  0  0  0  0  0
    0.4570   -3.9973    4.4000 H   0  0  0  0  0  0  0  0  0  0  0  0
    1.2915   -3.2716    6.4749 H   0  0  0  0  0  0  0  0  0  0  0  0
    1.8676   -4.9024    6.0311 H   0  0  0  0  0  0  0  0  0  0  0  0
    2.4759   -4.3425    8.3831 H   0  0  0  0  0  0  0  0  0  0  0  0
    3.9262   -4.5364    7.3850 H   0  0  0  0  0  0  0  0  0  0  0  0
    3.3669   -2.9200    7.8169 H   0  0  0  0  0  0  0  0  0  0  0  0
    4.2508   -2.3448    3.3363 H   0  0  0  0  0  0  0  0  0  0  0  0
    3.4583   -2.0309    1.0241 H   0  0  0  0  0  0  0  0  0  0  0  0
   -2.7939   -0.0860   -0.4821 H   0  0  0  0  0  0  0  0  0  0  0  0
   -1.8246    1.0926    2.2695 H   0  0  0  0  0  0  0  0  0  0  0  0
   -3.0491    1.6299    4.2906 H   0  0  0  0  0  0  0  0  0  0  0  0
   -4.9926    2.0780    5.5360 H   0  0  0  0  0  0  0  0  0  0  0  0
   -3.5655    2.9588    6.1493 H   0  0  0  0  0  0  0  0  0  0  0  0
   -5.4985    3.1785    7.7102 H   0  0  0  0  0  0  0  0  0  0  0  0
   -5.0574    4.7514    7.0254 H   0  0  0  0  0  0  0  0  0  0  0  0
   -6.4692    3.8907    6.4108 H   0  0  0  0  0  0  0  0  0  0  0  0
   -4.4927    5.2182    2.4749 H   0  0  0  0  0  0  0  0  0  0  0  0
   -3.2579    4.6606    0.4141 H   0  0  0  0  0  0  0  0  0  0  0  0
   -0.8525    3.5905   -2.4696 H   0  0  0  0  0  0  0  0  0  0  0  0
   -2.1483    3.9213   -4.4876 H   0  0  0  0  0  0  0  0  0  0  0  0
   -3.3983    3.5348   -6.2119 H   0  0  0  0  0  0  0  0  0  0  0  0
   -5.1147    3.6486   -6.6498 H   0  0  0  0  0  0  0  0  0  0  0  0
   -3.6144    5.7369   -4.9788 H   0  0  0  0  0  0  0  0  0  0  0  0
   -4.0515    5.8976   -6.6859 H   0  0  0  0  0  0  0  0  0  0  0  0
   -5.3125    5.8080   -5.4482 H   0  0  0  0  0  0  0  0  0  0  0  0
   -5.5993    2.3216   -2.5395 H   0  0  0  0  0  0  0  0  0  0  0  0
   -4.2815    2.0076   -0.4808 H   0  0  0  0  0  0  0  0  0  0  0  0
    2.1552    0.0542    0.3253 H   0  0  0  0  0  0  0  0  0  0  0  0
   -0.7576    5.5271   -0.0362 H   0  0  0  0  0  0  0  0  0  0  0  0
    1.1224    6.9837    0.0917 H   0  0  0  0  0  0  0  0  0  0  0  0
    7.1597    5.2701    0.5717 H   0  0  0  0  0  0  0  0  0  0  0  0
    8.1232    9.4473    0.4117 H   0  0  0  0  0  0  0  0  0  0  0  0
    5.7508   10.0321    0.2361 H   0  0  0  0  0  0  0  0  0  0  0  0
  1  2  2  0  0  0  0
  2  3  1  0  0  0  0
  3  4  2  0  0  0  0
  3  5  1  0  0  0  0
  5  6  2  0  0  0  0
  6  7  1  0  0  0  0
  7  8  1  0  0  0  0
  7  9  2  0  0  0  0
  9 10  1  0  0  0  0
  9 11  1  0  0  0  0
 11 12  2  0  0  0  0
 12 13  1  0  0  0  0
 13 14  2  0  0  0  0
 14 15  1  0  0  0  0
 15 16  3  0  0  0  0
 14 17  1  0  0  0  0
 17 18  3  0  0  0  0
  1 19  1  0  0  0  0
 19 20  2  0  0  0  0
 20 21  1  0  0  0  0
 21 22  1  0  0  0  0
 22 23  1  0  0  0  0
 23 24  2  0  0  0  0
 24 25  1  0  0  0  0
 25 26  2  0  0  0  0
 26 27  1  0  0  0  0
 27 28  1  0  0  0  0
 28 29  1  0  0  0  0
 26 30  1  0  0  0  0
 30 31  2  0  0  0  0
 22 32  1  0  0  0  0
 32 33  2  0  0  0  0
 33 34  1  0  0  0  0
 34 35  2  0  0  0  0
 35 36  1  0  0  0  0
 36 37  1  0  0  0  0
 37 38  1  0  0  0  0
 35 39  1  0  0  0  0
 39 40  2  0  0  0  0
 22 41  1  0  0  0  0
 41 42  2  0  0  0  0
 42 43  1  0  0  0  0
 43 44  1  0  0  0  0
 42 45  1  0  0  0  0
 45 46  2  0  0  0  0
 46 47  1  0  0  0  0
 47 48  1  0  0  0  0
 48 49  2  0  0  0  0
 49 50  1  0  0  0  0
 50 51  2  0  0  0  0
 51 52  1  0  0  0  0
 52 53  1  0  0  0  0
 53 54  1  0  0  0  0
 51 55  1  0  0  0  0
 55 56  2  0  0  0  0
 47 57  1  0  0  0  0
 57 58  2  0  0  0  0
 58 59  1  0  0  0  0
 59 60  2  0  0  0  0
 60 61  1  0  0  0  0
 61 62  1  0  0  0  0
 62 63  1  0  0  0  0
 60 64  1  0  0  0  0
 64 65  2  0  0  0  0
 47 66  1  0  0  0  0
 66 67  2  0  0  0  0
 67 68  1  0  0  0  0
 68 69  2  0  0  0  0
 67 70  1  0  0  0  0
 70 71  1  0  0  0  0
 71 72  2  0  0  0  0
 71 73  1  0  0  0  0
 73 74  2  0  0  0  0
 74 75  1  0  0  0  0
 75 76  2  0  0  0  0
 75 77  1  0  0  0  0
 77 78  2  0  0  0  0
 78 79  1  0  0  0  0
 79 80  1  0  0  0  0
 79 81  2  0  0  0  0
 81 82  1  0  0  0  0
 82 83  2  0  0  0  0
 83 84  1  0  0  0  0
 84 85  2  0  0  0  0
 85 86  1  0  0  0  0
 86 87  3  0  0  0  0
 85 88  1  0  0  0  0
 88 89  3  0  0  0  0
 13  2  1  0  0  0  0
 44 19  1  0  0  0  0
 68 46  1  0  0  0  0
 84 74  1  0  0  0  0
 12  5  1  0  0  0  0
 43 21  2  0  0  0  0
 56 48  1  0  0  0  0
 65 57  1  0  0  0  0
 72 66  1  0  0  0  0
 83 77  1  0  0  0  0
 31 23  1  0  0  0  0
 40 32  1  0  0  0  0
 69 41  1  0  0  0  0
  1 90  1  0  0  0  0
  6 91  1  0  0  0  0
 11 92  1  0  0  0  0
 20 93  1  0  0  0  0
 24 94  1  0  0  0  0
 25 95  1  0  0  0  0
 28 96  1  0  0  0  0
 28 97  1  0  0  0  0
 29 98  1  0  0  0  0
 29 99  1  0  0  0  0
 29100  1  0  0  0  0
 30101  1  0  0  0  0
 31102  1  0  0  0  0
 33103  1  0  0  0  0
 34104  1  0  0  0  0
 37105  1  0  0  0  0
 37106  1  0  0  0  0
 38107  1  0  0  0  0
 38108  1  0  0  0  0
 38109  1  0  0  0  0
 39110  1  0  0  0  0
 40111  1  0  0  0  0
 45112  1  0  0  0  0
 49113  1  0  0  0  0
 50114  1  0  0  0  0
 53115  1  0  0  0  0
 53116  1  0  0  0  0
 54117  1  0  0  0  0
 54118  1  0  0  0  0
 54119  1  0  0  0  0
 55120  1  0  0  0  0
 56121  1  0  0  0  0
 58122  1  0  0  0  0
 59123  1  0  0  0  0
 62124  1  0  0  0  0
 62125  1  0  0  0  0
 63126  1  0  0  0  0
 63127  1  0  0  0  0
 63128  1  0  0  0  0
 64129  1  0  0  0  0
 65130  1  0  0  0  0
 69131  1  0  0  0  0
 72132  1  0  0  0  0
 73133  1  0  0  0  0
 78134  1  0  0  0  0
 81135  1  0  0  0  0
 82136  1  0  0  0  0
M  END
