98

C          3.28460       -5.35080       -6.04630
C          3.01530       -6.69550       -6.09650
C          2.23670       -7.49010       -5.12310
O          1.89750       -7.20200       -3.99360
C          1.88940       -8.74240       -5.83050
C          1.10010       -9.78330       -5.38650
C          0.89580      -10.86280       -6.23670
Cl        -0.08320      -12.17740       -5.72390
C          1.48110      -10.88040       -7.50740
Cl         1.21120      -12.21650       -8.55200
C          2.28000       -9.83060       -7.94840
C          2.48520       -8.75370       -7.10230
C          3.25040       -7.52120       -7.26690
C          4.10320       -7.24600       -8.30300
C          4.30260       -8.10190       -9.40670
N          4.50020       -8.75230      -10.33140
C          4.93490       -6.10840       -8.38680
N          5.66060       -5.22770       -8.51230
C          3.12630       -4.44790       -4.98190
S          3.04180       -2.72580       -5.40550
C          2.77070       -2.32600       -3.75860
C          2.47790       -1.25380       -2.92370
S          2.14550        0.44080       -3.05060
C          1.80660        0.47750       -1.33390
C          1.35840        1.62600       -0.70460
O          1.24480        2.78190       -1.43700
C          2.23790        3.76300       -1.14110
C          3.64000        3.32240       -1.53860
C          1.03840        1.54500        0.65960
C          1.41440        0.36550        1.36010
C          1.91390       -0.76780        0.73750
O          2.26010       -1.86550        1.48530
C          3.51410       -1.75900        2.16080
C          3.61260       -2.89750        3.15970
C          2.02180       -0.75920       -0.66270
C          2.36660       -1.76310       -1.61110
N          2.58220       -3.11470       -1.62440
C          2.80910       -3.47400       -2.92640
C          3.01280       -4.66160       -3.61600
C          2.34050       -4.08610       -0.58240
C          1.01130       -4.80660       -0.79610
S          1.14410        0.45210        3.09340
C          0.40200        2.00130        2.88390
C         -0.29980        2.93860        3.63460
S         -0.82710        3.26260        5.23310
C         -1.72300        4.67610        4.66310
C         -1.55650        4.89240        3.30050
C         -0.75260        3.92170        2.71860
N         -0.30630        3.62560        1.45470
C         -0.92780        4.17670        0.27030
C         -2.25150        3.47380       -0.02350
C          0.39230        2.44750        1.54770
C         -2.43810        5.41770        5.61770
C         -3.41810        6.36190        5.46840
C         -3.69040        7.26680        6.61490
O         -3.26400        7.15450        7.73970
C         -4.55020        8.34140        6.06690
C         -4.86250        8.04850        4.72610
C         -5.63590        8.92510        3.98380
C         -6.09680       10.08230        4.59470
C         -5.80060       10.36110        5.92000
Br        -6.47110       11.94700        6.69730
C         -5.01470        9.49090        6.68530
Cl        -4.64460        9.83230        8.32050
C         -4.27700        6.75140        4.38020
C         -4.69470        5.97370        3.32810
C         -5.58990        6.40390        2.32780
N         -6.28690        6.70040        1.46500
C         -4.34370        4.62350        3.14840
N         -4.11370        3.51620        2.94770
H          3.60140       -4.88530       -6.97290
H          0.65290       -9.75590       -4.40550
H          2.71060       -9.87590       -8.93520
H          2.21110        4.01400       -0.07160
H          1.93670        4.63770       -1.72220
H          3.95590        2.46590       -0.94590
H          4.33660        4.13900       -1.37170
H          3.66060        3.04640       -2.58970
H          4.32620       -1.81530        1.42090
H          3.58150       -0.79420        2.67690
H          3.56370       -3.85550        2.64910
H          2.78990       -2.83680        3.86660
H          4.55290       -2.82920        3.69860
H          3.07880       -5.63620       -3.17360
H          2.32520       -3.56490        0.37340
H          3.16350       -4.80720       -0.59360
H          0.84410       -5.50720        0.01690
H          0.19400       -4.08910       -0.80820
H          1.01050       -5.35620       -1.73430
H         -1.97040        5.74190        2.78820
H         -0.25790        4.05260       -0.57870
H         -1.09010        5.24290        0.44700
H         -2.74780        3.95750       -0.85970
H         -2.90850        3.50580        0.84350
H         -2.07100        2.43310       -0.28180
H         -2.13100        5.26510        6.64900
H         -5.87870        8.73550        2.95150
H         -6.69970       10.78060        4.03480
