
  xtb     02022202253D
 energy: -190.871845646261 gnorm: 0.000865209884 xtb: 6.4.1 (unknown)
 97108  0     0  0            999 V2000
   -5.0476    6.1794   -0.4877 C   0  0  0  0  0  0  0  0  0  0  0  0
   -5.7777    5.8141   -1.5823 C   0  0  0  0  0  0  0  0  0  0  0  0
   -7.2156    6.1692   -1.6637 C   0  0  0  0  0  0  0  0  0  0  0  0
   -7.8133    6.9618   -0.9732 O   0  0  0  0  0  0  0  0  0  0  0  0
   -7.7619    5.2962   -2.7293 C   0  0  0  0  0  0  0  0  0  0  0  0
   -9.0711    5.1392   -3.1349 C   0  0  0  0  0  0  0  0  0  0  0  0
   -9.3424    4.2305   -4.1512 C   0  0  0  0  0  0  0  0  0  0  0  0
  -10.9605    4.0057   -4.6813 Cl  0  0  0  0  0  0  0  0  0  0  0  0
   -8.3059    3.4995   -4.7423 C   0  0  0  0  0  0  0  0  0  0  0  0
   -8.6600    2.3720   -5.9883 Cl  0  0  0  0  0  0  0  0  0  0  0  0
   -6.9855    3.6679   -4.3395 C   0  0  0  0  0  0  0  0  0  0  0  0
   -6.7144    4.5708   -3.3265 C   0  0  0  0  0  0  0  0  0  0  0  0
   -5.4520    4.9931   -2.7255 C   0  0  0  0  0  0  0  0  0  0  0  0
   -4.2141    4.8681   -3.3027 C   0  0  0  0  0  0  0  0  0  0  0  0
   -3.9444    4.0717   -4.4317 C   0  0  0  0  0  0  0  0  0  0  0  0
   -3.6578    3.4063   -5.3224 N   0  0  0  0  0  0  0  0  0  0  0  0
   -3.0894    5.5942   -2.8579 C   0  0  0  0  0  0  0  0  0  0  0  0
   -2.1722    6.2156   -2.5568 N   0  0  0  0  0  0  0  0  0  0  0  0
   -3.8606    5.6141    0.0150 C   0  0  0  0  0  0  0  0  0  0  0  0
   -3.0044    6.1868    0.9523 C   0  0  0  0  0  0  0  0  0  0  0  0
   -3.1239    7.5800    1.4680 C   0  0  0  0  0  0  0  0  0  0  0  0
   -2.5767    8.5747    0.4407 C   0  0  0  0  0  0  0  0  0  0  0  0
   -1.9475    5.3307    1.2681 C   0  0  0  0  0  0  0  0  0  0  0  0
   -0.5805    5.4941    2.3466 S   0  0  0  0  0  0  0  0  0  0  0  0
   -0.0708    3.9052    1.8998 C   0  0  0  0  0  0  0  0  0  0  0  0
    0.9321    2.9822    2.2234 C   0  0  0  0  0  0  0  0  0  0  0  0
    1.9265    3.0071    3.2268 C   0  0  0  0  0  0  0  0  0  0  0  0
    2.7084    1.8274    3.4543 C   0  0  0  0  0  0  0  0  0  0  0  0
    3.5458    1.9646    4.4702 N   0  0  0  0  0  0  0  0  0  0  0  0
    3.3711    3.4518    5.0828 S   0  0  0  0  0  0  0  0  0  0  0  0
    2.2164    3.9781    4.0783 N   0  0  0  0  0  0  0  0  0  0  0  0
    2.5556    0.7280    2.5799 C   0  0  0  0  0  0  0  0  0  0  0  0
    3.2642   -0.4766    2.4829 C   0  0  0  0  0  0  0  0  0  0  0  0
    4.5147   -1.3288    3.3183 S   0  0  0  0  0  0  0  0  0  0  0  0
    4.4308   -2.5833    2.0948 C   0  0  0  0  0  0  0  0  0  0  0  0
    5.1368   -3.7636    1.9191 C   0  0  0  0  0  0  0  0  0  0  0  0
    6.1648   -4.2435    2.8899 C   0  0  0  0  0  0  0  0  0  0  0  0
    5.5467   -5.2164    3.8984 C   0  0  0  0  0  0  0  0  0  0  0  0
    4.7138   -4.4469    0.7619 C   0  0  0  0  0  0  0  0  0  0  0  0
    3.4313   -3.5804   -0.0899 S   0  0  0  0  0  0  0  0  0  0  0  0
    3.4699   -2.3337    1.0968 C   0  0  0  0  0  0  0  0  0  0  0  0
    2.8012   -1.1309    1.3340 C   0  0  0  0  0  0  0  0  0  0  0  0
    1.8077   -0.3962    0.7381 N   0  0  0  0  0  0  0  0  0  0  0  0
    1.6281    0.7494    1.4964 C   0  0  0  0  0  0  0  0  0  0  0  0
    0.7157    1.8324    1.4071 C   0  0  0  0  0  0  0  0  0  0  0  0
   -0.4265    2.0400    0.6599 N   0  0  0  0  0  0  0  0  0  0  0  0
   -0.9006    3.2889    0.9528 C   0  0  0  0  0  0  0  0  0  0  0  0
   -1.9861    4.0943    0.6064 C   0  0  0  0  0  0  0  0  0  0  0  0
   -3.3642    3.9777   -0.4203 S   0  0  0  0  0  0  0  0  0  0  0  0
   -1.2500    1.1219   -0.0931 C   0  0  0  0  0  0  0  0  0  0  0  0
   -1.1866    1.3952   -1.5951 C   0  0  0  0  0  0  0  0  0  0  0  0
    1.5658   -0.6034   -0.6756 C   0  0  0  0  0  0  0  0  0  0  0  0
    2.4534    0.3114   -1.5164 C   0  0  0  0  0  0  0  0  0  0  0  0
    5.2626   -5.6639    0.3570 C   0  0  0  0  0  0  0  0  0  0  0  0
    4.9862   -6.4658   -0.7280 C   0  0  0  0  0  0  0  0  0  0  0  0
    3.9987   -6.1969   -1.7718 C   0  0  0  0  0  0  0  0  0  0  0  0
    3.2442   -5.2446   -1.8658 O   0  0  0  0  0  0  0  0  0  0  0  0
    4.0936   -7.3239   -2.7231 C   0  0  0  0  0  0  0  0  0  0  0  0
    3.3734   -7.5304   -3.8824 C   0  0  0  0  0  0  0  0  0  0  0  0
    3.6516   -8.6728   -4.6157 C   0  0  0  0  0  0  0  0  0  0  0  0
    2.9789   -8.9138   -5.7478 F   0  0  0  0  0  0  0  0  0  0  0  0
    4.6261   -9.5728   -4.1852 C   0  0  0  0  0  0  0  0  0  0  0  0
    4.8748  -10.6676   -4.9123 F   0  0  0  0  0  0  0  0  0  0  0  0
    5.3489   -9.3641   -3.0192 C   0  0  0  0  0  0  0  0  0  0  0  0
    5.0775   -8.2236   -2.2804 C   0  0  0  0  0  0  0  0  0  0  0  0
    5.6493   -7.7171   -1.0307 C   0  0  0  0  0  0  0  0  0  0  0  0
    6.6299   -8.3448   -0.3056 C   0  0  0  0  0  0  0  0  0  0  0  0
    7.1835   -7.8861    0.9080 C   0  0  0  0  0  0  0  0  0  0  0  0
    7.6845   -7.5828    1.8966 N   0  0  0  0  0  0  0  0  0  0  0  0
    7.2310   -9.5657   -0.6797 C   0  0  0  0  0  0  0  0  0  0  0  0
    7.7614  -10.5533   -0.9260 N   0  0  0  0  0  0  0  0  0  0  0  0
   -5.4968    6.9569    0.1231 H   0  0  0  0  0  0  0  0  0  0  0  0
   -9.8625    5.7094   -2.6747 H   0  0  0  0  0  0  0  0  0  0  0  0
   -6.2082    3.0898   -4.8128 H   0  0  0  0  0  0  0  0  0  0  0  0
   -4.1683    7.8154    1.6826 H   0  0  0  0  0  0  0  0  0  0  0  0
   -2.5506    7.6600    2.3936 H   0  0  0  0  0  0  0  0  0  0  0  0
   -3.1305    8.5022   -0.4922 H   0  0  0  0  0  0  0  0  0  0  0  0
   -1.5308    8.3645    0.2331 H   0  0  0  0  0  0  0  0  0  0  0  0
   -2.6606    9.5884    0.8228 H   0  0  0  0  0  0  0  0  0  0  0  0
    6.9935   -4.7330    2.3767 H   0  0  0  0  0  0  0  0  0  0  0  0
    6.5578   -3.3775    3.4262 H   0  0  0  0  0  0  0  0  0  0  0  0
    4.7454   -4.7308    4.4503 H   0  0  0  0  0  0  0  0  0  0  0  0
    5.1423   -6.0901    3.3932 H   0  0  0  0  0  0  0  0  0  0  0  0
    6.3057   -5.5470    4.6012 H   0  0  0  0  0  0  0  0  0  0  0  0
   -0.9615    0.1003    0.1566 H   0  0  0  0  0  0  0  0  0  0  0  0
   -2.2840    1.2607    0.2428 H   0  0  0  0  0  0  0  0  0  0  0  0
   -1.5917    2.3803   -1.8118 H   0  0  0  0  0  0  0  0  0  0  0  0
   -1.7796    0.6587   -2.1298 H   0  0  0  0  0  0  0  0  0  0  0  0
   -0.1662    1.3642   -1.9658 H   0  0  0  0  0  0  0  0  0  0  0  0
    1.8096   -1.6477   -0.8851 H   0  0  0  0  0  0  0  0  0  0  0  0
    0.5210   -0.4492   -0.9260 H   0  0  0  0  0  0  0  0  0  0  0  0
    2.2410    1.3573   -1.3029 H   0  0  0  0  0  0  0  0  0  0  0  0
    2.2814    0.1243   -2.5726 H   0  0  0  0  0  0  0  0  0  0  0  0
    3.5021    0.1233   -1.2983 H   0  0  0  0  0  0  0  0  0  0  0  0
    6.0384   -6.0231    1.0190 H   0  0  0  0  0  0  0  0  0  0  0  0
    2.6210   -6.8314   -4.2106 H   0  0  0  0  0  0  0  0  0  0  0  0
    6.0909  -10.0910   -2.7331 H   0  0  0  0  0  0  0  0  0  0  0  0
  1  2  2  0  0  0  0
  2  3  1  0  0  0  0
  3  4  2  0  0  0  0
  3  5  1  0  0  0  0
  5  6  2  0  0  0  0
  6  7  1  0  0  0  0
  7  8  1  0  0  0  0
  7  9  2  0  0  0  0
  9 10  1  0  0  0  0
  9 11  1  0  0  0  0
 11 12  2  0  0  0  0
 12 13  1  0  0  0  0
 13 14  2  0  0  0  0
 14 15  1  0  0  0  0
 15 16  3  0  0  0  0
 14 17  1  0  0  0  0
 17 18  3  0  0  0  0
  1 19  1  0  0  0  0
 19 20  2  0  0  0  0
 20 21  1  0  0  0  0
 21 22  1  0  0  0  0
 20 23  1  0  0  0  0
 23 24  1  0  0  0  0
 24 25  1  0  0  0  0
 25 26  1  0  0  0  0
 26 27  1  0  0  0  0
 27 28  1  0  0  0  0
 28 29  2  0  0  0  0
 29 30  1  0  0  0  0
 30 31  1  0  0  0  0
 28 32  1  0  0  0  0
 32 33  1  0  0  0  0
 33 34  1  0  0  0  0
 34 35  1  0  0  0  0
 35 36  1  0  0  0  0
 36 37  1  0  0  0  0
 37 38  1  0  0  0  0
 36 39  2  0  0  0  0
 39 40  1  0  0  0  0
 40 41  1  0  0  0  0
 41 42  1  0  0  0  0
 42 43  1  0  0  0  0
 43 44  1  0  0  0  0
 44 45  1  0  0  0  0
 45 46  1  0  0  0  0
 46 47  1  0  0  0  0
 47 48  1  0  0  0  0
 48 49  1  0  0  0  0
 46 50  1  0  0  0  0
 50 51  1  0  0  0  0
 43 52  1  0  0  0  0
 52 53  1  0  0  0  0
 39 54  1  0  0  0  0
 54 55  2  0  0  0  0
 55 56  1  0  0  0  0
 56 57  2  0  0  0  0
 56 58  1  0  0  0  0
 58 59  2  0  0  0  0
 59 60  1  0  0  0  0
 60 61  1  0  0  0  0
 60 62  2  0  0  0  0
 62 63  1  0  0  0  0
 62 64  1  0  0  0  0
 64 65  2  0  0  0  0
 65 66  1  0  0  0  0
 66 67  2  0  0  0  0
 67 68  1  0  0  0  0
 68 69  3  0  0  0  0
 67 70  1  0  0  0  0
 70 71  3  0  0  0  0
 13  2  1  0  0  0  0
 49 19  1  0  0  0  0
 66 55  1  0  0  0  0
 12  5  1  0  0  0  0
 48 23  2  0  0  0  0
 65 58  1  0  0  0  0
 47 25  2  0  0  0  0
 45 26  2  0  0  0  0
 31 27  2  0  0  0  0
 44 32  2  0  0  0  0
 42 33  2  0  0  0  0
 41 35  2  0  0  0  0
  1 72  1  0  0  0  0
  6 73  1  0  0  0  0
 11 74  1  0  0  0  0
 21 75  1  0  0  0  0
 21 76  1  0  0  0  0
 22 77  1  0  0  0  0
 22 78  1  0  0  0  0
 22 79  1  0  0  0  0
 37 80  1  0  0  0  0
 37 81  1  0  0  0  0
 38 82  1  0  0  0  0
 38 83  1  0  0  0  0
 38 84  1  0  0  0  0
 50 85  1  0  0  0  0
 50 86  1  0  0  0  0
 51 87  1  0  0  0  0
 51 88  1  0  0  0  0
 51 89  1  0  0  0  0
 52 90  1  0  0  0  0
 52 91  1  0  0  0  0
 53 92  1  0  0  0  0
 53 93  1  0  0  0  0
 53 94  1  0  0  0  0
 54 95  1  0  0  0  0
 59 96  1  0  0  0  0
 64 97  1  0  0  0  0
M  END
