100

C          3.96790        3.83010       -5.94710
C          3.49500        3.14920       -7.04540
C          2.57080        2.01540       -7.02730
O          2.04900        1.49000       -6.05920
C          2.39030        1.61480       -8.43670
C          1.62310        0.59050       -8.95060
C          1.61500        0.40200      -10.32740
Cl         0.67470       -0.86330      -11.00830
C          2.37060        1.23700      -11.15690
Cl         2.35380        0.99250      -12.85680
C          3.14270        2.26870      -10.63260
C          3.15380        2.45930       -9.26120
C          3.85300        3.43170       -8.42060
C          4.68640        4.41780       -8.88520
C          5.36950        5.36420       -8.09380
N          5.95690        6.17070       -7.52330
C          4.97970        4.62730      -10.24940
N          5.26450        4.85400      -11.33800
C          3.72020        3.65930       -4.58380
C          4.32200        4.45840       -3.59260
C          5.23360        5.61560       -3.83720
C          4.42910        6.88330       -4.13890
C          3.91510        4.07900       -2.32230
S          4.32700        4.67750       -0.72500
C          3.28150        3.48000       -0.04530
C          2.82420        3.06180        1.20770
C          3.10240        3.58220        2.49050
C          2.44560        3.00710        3.62210
N          2.77330        3.60390        4.75740
S          3.82410        4.79010        4.42570
N          3.89880        4.58660        2.82150
C          1.58500        1.90600        3.41970
C          0.88130        1.13800        4.35150
S          0.61350        1.07160        6.05810
C         -0.39220       -0.34490        5.80880
C         -1.10030       -1.14970        6.68650
C         -1.15470       -0.89150        8.15630
C         -2.38580       -0.05420        8.51540
C         -1.78850       -2.17330        6.00350
S         -1.51030       -2.11120        4.26000
C         -0.50050       -0.73050        4.45850
C          0.23150        0.12640        3.63430
N          0.51650        0.24420        2.30190
C          1.33100        1.34680        2.12660
C          1.92140        1.97230        0.99070
N          1.82560        1.77580       -0.37440
C          2.65230        2.66930       -0.99700
C          3.00780        3.00340       -2.30630
S          2.64690        2.43930       -3.89350
C          1.00880        0.91680       -1.20100
C          1.78410       -0.30870       -1.68380
C          0.00290       -0.76430        1.40380
C         -1.44600       -0.48150        1.00610
C         -2.59630       -3.10500        6.65340
C         -3.36320       -4.13900        6.16120
C         -3.50080       -4.51650        4.75640
O         -2.96360       -4.01150        3.78600
C         -4.43790       -5.66020        4.73090
C         -4.89800       -6.37200        3.64420
C         -5.78710       -7.41630        3.88670
C         -6.31460       -8.18820        2.70870
F         -6.98230       -9.29560        3.05390
F         -5.33270       -8.57510        1.87700
F         -7.16100       -7.44890        1.96630
C         -6.19600       -7.72540        5.17780
C         -5.72530       -7.00320        6.26680
C         -4.83930       -5.96140        6.04350
C         -4.17820       -5.02750        6.96080
C         -4.33120       -5.02960        8.32440
C         -3.70590       -4.14390        9.22670
N         -3.23840       -3.46320       10.02580
C         -5.15130       -5.93630        9.02890
N         -5.79880       -6.63870        9.66530
H          4.65680        4.63660       -6.15620
H          1.04630       -0.04630       -8.29890
H          3.71110        2.88960      -11.30490
H          5.82800        5.77770       -2.93590
H          5.91490        5.41390       -4.66480
H          3.82360        6.75220       -5.03270
H          5.10560        7.71700       -4.30180
H          3.77280        7.12210       -3.30530
H         -0.25570       -0.33990        8.43830
H         -1.17420       -1.82500        8.72030
H         -2.40230        0.13360        9.58490
H         -3.30010       -0.57610        8.24330
H         -2.36000        0.89910        7.99260
H          0.71420        1.50360       -2.07690
H          0.10210        0.64460       -0.66930
H          1.11770       -0.97600       -2.22270
H          2.57810       -0.00240       -2.35940
H          2.23590       -0.85030       -0.85500
H          0.65460       -0.85580        0.54010
H          0.03270       -1.71700        1.94230
H         -2.09650       -0.59440        1.86900
H         -1.56550        0.53030        0.62360
H         -1.76420       -1.18850        0.24580
H         -2.62260       -2.97220        7.72610
H         -4.57540       -6.12570        2.64420
H         -6.88660       -8.53910        5.33740
H         -6.05730       -7.26480        7.25760
