
  xtb     02022202253D
 energy: -198.280328103338 gnorm: 0.000902608611 xtb: 6.4.1 (unknown)
100111  0     0  0            999 V2000
    3.9679    3.8301   -5.9471 C   0  0  0  0  0  0  0  0  0  0  0  0
    3.4950    3.1492   -7.0454 C   0  0  0  0  0  0  0  0  0  0  0  0
    2.5708    2.0154   -7.0273 C   0  0  0  0  0  0  0  0  0  0  0  0
    2.0490    1.4900   -6.0592 O   0  0  0  0  0  0  0  0  0  0  0  0
    2.3903    1.6148   -8.4367 C   0  0  0  0  0  0  0  0  0  0  0  0
    1.6231    0.5905   -8.9506 C   0  0  0  0  0  0  0  0  0  0  0  0
    1.6150    0.4020  -10.3274 C   0  0  0  0  0  0  0  0  0  0  0  0
    0.6747   -0.8633  -11.0083 Cl  0  0  0  0  0  0  0  0  0  0  0  0
    2.3706    1.2370  -11.1569 C   0  0  0  0  0  0  0  0  0  0  0  0
    2.3538    0.9925  -12.8568 Cl  0  0  0  0  0  0  0  0  0  0  0  0
    3.1427    2.2687  -10.6326 C   0  0  0  0  0  0  0  0  0  0  0  0
    3.1538    2.4593   -9.2612 C   0  0  0  0  0  0  0  0  0  0  0  0
    3.8530    3.4317   -8.4206 C   0  0  0  0  0  0  0  0  0  0  0  0
    4.6864    4.4178   -8.8852 C   0  0  0  0  0  0  0  0  0  0  0  0
    5.3695    5.3642   -8.0938 C   0  0  0  0  0  0  0  0  0  0  0  0
    5.9569    6.1707   -7.5233 N   0  0  0  0  0  0  0  0  0  0  0  0
    4.9797    4.6273  -10.2494 C   0  0  0  0  0  0  0  0  0  0  0  0
    5.2645    4.8540  -11.3380 N   0  0  0  0  0  0  0  0  0  0  0  0
    3.7202    3.6593   -4.5838 C   0  0  0  0  0  0  0  0  0  0  0  0
    4.3220    4.4584   -3.5926 C   0  0  0  0  0  0  0  0  0  0  0  0
    5.2336    5.6156   -3.8372 C   0  0  0  0  0  0  0  0  0  0  0  0
    4.4291    6.8833   -4.1389 C   0  0  0  0  0  0  0  0  0  0  0  0
    3.9151    4.0790   -2.3223 C   0  0  0  0  0  0  0  0  0  0  0  0
    4.3270    4.6775   -0.7250 S   0  0  0  0  0  0  0  0  0  0  0  0
    3.2815    3.4800   -0.0453 C   0  0  0  0  0  0  0  0  0  0  0  0
    2.8242    3.0618    1.2077 C   0  0  0  0  0  0  0  0  0  0  0  0
    3.1024    3.5822    2.4905 C   0  0  0  0  0  0  0  0  0  0  0  0
    2.4456    3.0071    3.6221 C   0  0  0  0  0  0  0  0  0  0  0  0
    2.7733    3.6039    4.7574 N   0  0  0  0  0  0  0  0  0  0  0  0
    3.8241    4.7901    4.4257 S   0  0  0  0  0  0  0  0  0  0  0  0
    3.8988    4.5866    2.8215 N   0  0  0  0  0  0  0  0  0  0  0  0
    1.5850    1.9060    3.4197 C   0  0  0  0  0  0  0  0  0  0  0  0
    0.8813    1.1380    4.3515 C   0  0  0  0  0  0  0  0  0  0  0  0
    0.6135    1.0716    6.0581 S   0  0  0  0  0  0  0  0  0  0  0  0
   -0.3922   -0.3449    5.8088 C   0  0  0  0  0  0  0  0  0  0  0  0
   -1.1003   -1.1497    6.6865 C   0  0  0  0  0  0  0  0  0  0  0  0
   -1.1547   -0.8915    8.1563 C   0  0  0  0  0  0  0  0  0  0  0  0
   -2.3858   -0.0542    8.5154 C   0  0  0  0  0  0  0  0  0  0  0  0
   -1.7885   -2.1733    6.0035 C   0  0  0  0  0  0  0  0  0  0  0  0
   -1.5103   -2.1112    4.2600 S   0  0  0  0  0  0  0  0  0  0  0  0
   -0.5005   -0.7305    4.4585 C   0  0  0  0  0  0  0  0  0  0  0  0
    0.2315    0.1264    3.6343 C   0  0  0  0  0  0  0  0  0  0  0  0
    0.5165    0.2442    2.3019 N   0  0  0  0  0  0  0  0  0  0  0  0
    1.3310    1.3468    2.1266 C   0  0  0  0  0  0  0  0  0  0  0  0
    1.9214    1.9723    0.9907 C   0  0  0  0  0  0  0  0  0  0  0  0
    1.8256    1.7758   -0.3744 N   0  0  0  0  0  0  0  0  0  0  0  0
    2.6523    2.6693   -0.9970 C   0  0  0  0  0  0  0  0  0  0  0  0
    3.0078    3.0034   -2.3063 C   0  0  0  0  0  0  0  0  0  0  0  0
    2.6469    2.4393   -3.8935 S   0  0  0  0  0  0  0  0  0  0  0  0
    1.0088    0.9168   -1.2010 C   0  0  0  0  0  0  0  0  0  0  0  0
    1.7841   -0.3087   -1.6838 C   0  0  0  0  0  0  0  0  0  0  0  0
    0.0029   -0.7643    1.4038 C   0  0  0  0  0  0  0  0  0  0  0  0
   -1.4460   -0.4815    1.0061 C   0  0  0  0  0  0  0  0  0  0  0  0
   -2.5963   -3.1050    6.6534 C   0  0  0  0  0  0  0  0  0  0  0  0
   -3.3632   -4.1390    6.1612 C   0  0  0  0  0  0  0  0  0  0  0  0
   -3.5008   -4.5165    4.7564 C   0  0  0  0  0  0  0  0  0  0  0  0
   -2.9636   -4.0115    3.7860 O   0  0  0  0  0  0  0  0  0  0  0  0
   -4.4379   -5.6602    4.7309 C   0  0  0  0  0  0  0  0  0  0  0  0
   -4.8980   -6.3720    3.6442 C   0  0  0  0  0  0  0  0  0  0  0  0
   -5.7871   -7.4163    3.8867 C   0  0  0  0  0  0  0  0  0  0  0  0
   -6.3146   -8.1882    2.7087 C   0  0  0  0  0  0  0  0  0  0  0  0
   -6.9823   -9.2956    3.0539 F   0  0  0  0  0  0  0  0  0  0  0  0
   -5.3327   -8.5751    1.8770 F   0  0  0  0  0  0  0  0  0  0  0  0
   -7.1610   -7.4489    1.9663 F   0  0  0  0  0  0  0  0  0  0  0  0
   -6.1960   -7.7254    5.1778 C   0  0  0  0  0  0  0  0  0  0  0  0
   -5.7253   -7.0032    6.2668 C   0  0  0  0  0  0  0  0  0  0  0  0
   -4.8393   -5.9614    6.0435 C   0  0  0  0  0  0  0  0  0  0  0  0
   -4.1782   -5.0275    6.9608 C   0  0  0  0  0  0  0  0  0  0  0  0
   -4.3312   -5.0296    8.3244 C   0  0  0  0  0  0  0  0  0  0  0  0
   -3.7059   -4.1439    9.2267 C   0  0  0  0  0  0  0  0  0  0  0  0
   -3.2384   -3.4632   10.0258 N   0  0  0  0  0  0  0  0  0  0  0  0
   -5.1513   -5.9363    9.0289 C   0  0  0  0  0  0  0  0  0  0  0  0
   -5.7988   -6.6387    9.6653 N   0  0  0  0  0  0  0  0  0  0  0  0
    4.6568    4.6366   -6.1562 H   0  0  0  0  0  0  0  0  0  0  0  0
    1.0463   -0.0463   -8.2989 H   0  0  0  0  0  0  0  0  0  0  0  0
    3.7111    2.8896  -11.3049 H   0  0  0  0  0  0  0  0  0  0  0  0
    5.8280    5.7777   -2.9359 H   0  0  0  0  0  0  0  0  0  0  0  0
    5.9149    5.4139   -4.6648 H   0  0  0  0  0  0  0  0  0  0  0  0
    3.8236    6.7522   -5.0327 H   0  0  0  0  0  0  0  0  0  0  0  0
    5.1056    7.7170   -4.3018 H   0  0  0  0  0  0  0  0  0  0  0  0
    3.7728    7.1221   -3.3053 H   0  0  0  0  0  0  0  0  0  0  0  0
   -0.2557   -0.3399    8.4383 H   0  0  0  0  0  0  0  0  0  0  0  0
   -1.1742   -1.8250    8.7203 H   0  0  0  0  0  0  0  0  0  0  0  0
   -2.4023    0.1336    9.5849 H   0  0  0  0  0  0  0  0  0  0  0  0
   -3.3001   -0.5761    8.2433 H   0  0  0  0  0  0  0  0  0  0  0  0
   -2.3600    0.8991    7.9926 H   0  0  0  0  0  0  0  0  0  0  0  0
    0.7142    1.5036   -2.0769 H   0  0  0  0  0  0  0  0  0  0  0  0
    0.1021    0.6446   -0.6693 H   0  0  0  0  0  0  0  0  0  0  0  0
    1.1177   -0.9760   -2.2227 H   0  0  0  0  0  0  0  0  0  0  0  0
    2.5781   -0.0024   -2.3594 H   0  0  0  0  0  0  0  0  0  0  0  0
    2.2359   -0.8503   -0.8550 H   0  0  0  0  0  0  0  0  0  0  0  0
    0.6546   -0.8558    0.5401 H   0  0  0  0  0  0  0  0  0  0  0  0
    0.0327   -1.7170    1.9423 H   0  0  0  0  0  0  0  0  0  0  0  0
   -2.0965   -0.5944    1.8690 H   0  0  0  0  0  0  0  0  0  0  0  0
   -1.5655    0.5303    0.6236 H   0  0  0  0  0  0  0  0  0  0  0  0
   -1.7642   -1.1885    0.2458 H   0  0  0  0  0  0  0  0  0  0  0  0
   -2.6226   -2.9722    7.7261 H   0  0  0  0  0  0  0  0  0  0  0  0
   -4.5754   -6.1257    2.6442 H   0  0  0  0  0  0  0  0  0  0  0  0
   -6.8866   -8.5391    5.3374 H   0  0  0  0  0  0  0  0  0  0  0  0
   -6.0573   -7.2648    7.2576 H   0  0  0  0  0  0  0  0  0  0  0  0
  1  2  2  0  0  0  0
  2  3  1  0  0  0  0
  3  4  2  0  0  0  0
  3  5  1  0  0  0  0
  5  6  2  0  0  0  0
  6  7  1  0  0  0  0
  7  8  1  0  0  0  0
  7  9  2  0  0  0  0
  9 10  1  0  0  0  0
  9 11  1  0  0  0  0
 11 12  2  0  0  0  0
 12 13  1  0  0  0  0
 13 14  2  0  0  0  0
 14 15  1  0  0  0  0
 15 16  3  0  0  0  0
 14 17  1  0  0  0  0
 17 18  3  0  0  0  0
  1 19  1  0  0  0  0
 19 20  2  0  0  0  0
 20 21  1  0  0  0  0
 21 22  1  0  0  0  0
 20 23  1  0  0  0  0
 23 24  1  0  0  0  0
 24 25  1  0  0  0  0
 25 26  1  0  0  0  0
 26 27  1  0  0  0  0
 27 28  1  0  0  0  0
 28 29  2  0  0  0  0
 29 30  1  0  0  0  0
 30 31  1  0  0  0  0
 28 32  1  0  0  0  0
 32 33  1  0  0  0  0
 33 34  1  0  0  0  0
 34 35  1  0  0  0  0
 35 36  1  0  0  0  0
 36 37  1  0  0  0  0
 37 38  1  0  0  0  0
 36 39  2  0  0  0  0
 39 40  1  0  0  0  0
 40 41  1  0  0  0  0
 41 42  1  0  0  0  0
 42 43  1  0  0  0  0
 43 44  1  0  0  0  0
 44 45  1  0  0  0  0
 45 46  1  0  0  0  0
 46 47  1  0  0  0  0
 47 48  1  0  0  0  0
 48 49  1  0  0  0  0
 46 50  1  0  0  0  0
 50 51  1  0  0  0  0
 43 52  1  0  0  0  0
 52 53  1  0  0  0  0
 39 54  1  0  0  0  0
 54 55  2  0  0  0  0
 55 56  1  0  0  0  0
 56 57  2  0  0  0  0
 56 58  1  0  0  0  0
 58 59  2  0  0  0  0
 59 60  1  0  0  0  0
 60 61  1  0  0  0  0
 61 62  1  0  0  0  0
 61 63  1  0  0  0  0
 61 64  1  0  0  0  0
 60 65  2  0  0  0  0
 65 66  1  0  0  0  0
 66 67  2  0  0  0  0
 67 68  1  0  0  0  0
 68 69  2  0  0  0  0
 69 70  1  0  0  0  0
 70 71  3  0  0  0  0
 69 72  1  0  0  0  0
 72 73  3  0  0  0  0
 13  2  1  0  0  0  0
 49 19  1  0  0  0  0
 68 55  1  0  0  0  0
 12  5  1  0  0  0  0
 48 23  2  0  0  0  0
 67 58  1  0  0  0  0
 47 25  2  0  0  0  0
 45 26  2  0  0  0  0
 31 27  2  0  0  0  0
 44 32  2  0  0  0  0
 42 33  2  0  0  0  0
 41 35  2  0  0  0  0
  1 74  1  0  0  0  0
  6 75  1  0  0  0  0
 11 76  1  0  0  0  0
 21 77  1  0  0  0  0
 21 78  1  0  0  0  0
 22 79  1  0  0  0  0
 22 80  1  0  0  0  0
 22 81  1  0  0  0  0
 37 82  1  0  0  0  0
 37 83  1  0  0  0  0
 38 84  1  0  0  0  0
 38 85  1  0  0  0  0
 38 86  1  0  0  0  0
 50 87  1  0  0  0  0
 50 88  1  0  0  0  0
 51 89  1  0  0  0  0
 51 90  1  0  0  0  0
 51 91  1  0  0  0  0
 52 92  1  0  0  0  0
 52 93  1  0  0  0  0
 53 94  1  0  0  0  0
 53 95  1  0  0  0  0
 53 96  1  0  0  0  0
 54 97  1  0  0  0  0
 59 98  1  0  0  0  0
 65 99  1  0  0  0  0
 66100  1  0  0  0  0
M  END
