155

C          8.13030       -0.53920        3.50640
C          9.16270       -1.40240        3.22700
C          9.14860       -2.62010        2.39200
O          8.27180       -3.05110        1.67030
C         10.46050       -3.26730        2.61140
C         10.91930       -4.46140        2.09470
C         12.19120       -4.88810        2.45460
Cl        12.80030       -6.37030        1.83650
C         12.97370       -4.11660        3.31970
Cl        14.54110       -4.65970        3.76550
C         12.50790       -2.91080        3.83300
C         11.24060       -2.48170        3.47410
C         10.47960       -1.28560        3.83040
C         10.97760       -0.23380        4.55520
C         12.27990       -0.19700        5.09830
N         13.32100       -0.09920        5.57190
C         10.31090        0.97650        4.84380
N          9.86510        2.00060        5.11270
C          6.81410       -0.46980        3.02900
S          5.79390        0.78120        3.77530
C          4.47590        0.32440        2.78030
C          3.15080        0.64570        2.49780
S          1.94520        1.80070        2.96110
C          0.89400        1.12780        1.76060
C         -0.41520        1.45920        1.29740
C         -1.30290        2.44650        1.71600
C         -2.50690        2.52850        1.05650
C         -3.66250        3.47760        1.32510
C         -4.12630        3.23760        2.75140
C         -3.54400        3.93840        3.80000
C         -3.92400        3.69080        5.10540
C         -4.88940        2.73640        5.39940
C         -5.27000        2.43910        6.82090
C         -4.37690        1.33600        7.39270
C         -5.45740        2.02890        4.34870
C         -5.07970        2.27150        3.04090
C         -3.34640        4.93910        1.07000
C         -2.21870        5.33510        0.36670
C         -1.98580        6.67620        0.11770
C         -2.87530        7.64960        0.54990
C         -2.59550        9.10670        0.32140
C         -1.82390        9.69330        1.50550
C         -4.01090        7.24540        1.24150
C         -4.24680        5.90890        1.49570
C         -4.65230        3.02170        0.28280
C         -4.12380        1.96290       -0.46380
C         -2.81820        1.63230        0.00700
C         -1.93270        0.63530       -0.40100
C         -0.72670        0.55790        0.25120
C          0.40850       -0.43930        0.03730
C         -0.05920       -1.82720        0.46800
C          0.18590       -2.97560       -0.26970
C         -0.23750       -4.21160        0.18790
C         -0.90520       -4.33900        1.39690
C         -1.39330       -5.67740        1.86940
C         -2.79380       -5.95870        1.32140
C         -1.14500       -3.18760        2.13670
C         -0.72740       -1.95220        1.68220
C          0.90560       -0.36400       -1.39190
C          0.16740       -0.92340       -2.42980
C          0.63080       -0.87990       -3.73100
C          1.83310       -0.25920       -4.04150
C          2.38280       -0.28030       -5.43760
C          3.42150       -1.39510       -5.57520
C          2.54260        0.34340       -3.01270
C          2.08510        0.29620       -1.70900
C          1.41590        0.05790        1.04850
C          2.71630       -0.23060        1.46890
N          3.74530       -1.07980        1.13190
C          4.82830       -0.74380        1.91540
C          6.13160       -1.18680        2.05240
C          3.74860       -2.05210        0.13930
C          3.08620       -3.24040        0.15620
C          3.30050       -3.95110       -1.03930
S          2.74090       -5.45350       -1.67790
C          3.65580       -5.20160       -3.14670
C          3.57250       -6.20440       -4.24450
C          2.22470       -6.12410       -4.96500
C          4.34390       -4.02820       -3.13670
C          4.13930       -3.31060       -1.94080
S          4.68420       -1.79360       -1.32630
S         -5.16960        1.40520       -1.69120
C         -6.36200        2.61240       -1.22090
C         -5.90680        3.39030       -0.14180
C         -7.61380        2.82480       -1.80350
C         -8.23560        2.19690       -2.85870
C         -7.67360        1.10170       -3.65030
O         -6.59760        0.55260       -3.50390
C         -8.68540        0.78580       -4.68210
C         -9.79660        1.63300       -4.51790
C        -10.87800        1.52770       -5.37740
C        -10.83470        0.57760       -6.38770
C         -9.73820       -0.25550       -6.54390
Br        -9.74010       -1.52940       -7.93960
C         -8.63530       -0.16560       -5.68720
Cl        -7.27840       -1.19160       -5.87590
C         -9.54620        2.51820       -3.37900
C        -10.42570        3.46330       -2.91420
C        -10.21480        4.31950       -1.81330
N        -10.13110        5.05330       -0.93310
C        -11.69490        3.71190       -3.47760
N        -12.73750        3.96850       -3.88420
H          8.34800        0.22590        4.24240
H         10.30320       -5.04580        1.42990
H         13.14040       -2.34660        4.49800
H         -1.04550        3.11330        2.52430
H         -2.79850        4.69260        3.59310
H         -3.46560        4.25030        5.90830
H         -5.16360        3.33930        7.42920
H         -6.31230        2.11720        6.86560
H         -4.47810        0.42540        6.80630
H         -4.65210        1.11910        8.42210
H         -3.33380        1.64340        7.36900
H         -6.20780        1.27890        4.55470
H         -5.53500        1.70540        2.24130
H         -1.51520        4.59640        0.01100
H         -1.09870        6.96810       -0.42630
H         -2.00740        9.23300       -0.58970
H         -3.53510        9.64930        0.20050
H         -2.40010        9.58790        2.42210
H         -1.62110       10.74900        1.34210
H         -0.87720        9.17340        1.63490
H         -4.72000        7.98620        1.58170
H         -5.13220        5.61280        2.03960
H         -2.20740       -0.03800       -1.19650
H          0.71530       -2.91990       -1.20780
H         -0.02890       -5.09150       -0.40400
H         -1.42350       -5.69640        2.96060
H         -0.71100       -6.45980        1.53120
H         -3.49140       -5.19390        1.65510
H         -3.14870       -6.92720        1.66530
H         -2.78120       -5.95910        0.23390
H         -1.66130       -3.25850        3.08340
H         -0.92420       -1.07390        2.28030
H         -0.77100       -1.41490       -2.22230
H          0.04720       -1.33810       -4.51680
H          1.57590       -0.44530       -6.15400
H          2.85310        0.67840       -5.66590
H          4.24220       -1.23120       -4.88010
H          2.97090       -2.35980       -5.35060
H          3.82060       -1.42300       -6.58650
H          3.47070        0.85220       -3.22960
H          2.66280        0.78160       -0.93660
H          6.58680       -1.98160        1.49150
H          2.48510       -3.57900        0.97880
H          3.69930       -7.20910       -3.83470
H          4.38110       -6.01750       -4.95380
H          1.41250       -6.31810       -4.26810
H          2.18110       -6.85960       -5.76380
H          2.08290       -5.13500       -5.39490
H          4.97000       -3.69480       -3.94330
H         -6.50340        4.17920        0.28010
H         -8.16570        3.62810       -1.33050
H        -11.74450        2.16010       -5.28340
H        -11.66690        0.48100       -7.06790
