
  xtb     02012218303D
 energy: -271.327564950661 gnorm: 0.000318677498 xtb: 6.4.1 (unknown)
158173  0     0  0            999 V2000
    3.4152   -6.2072    6.4304 C   0  0  0  0  0  0  0  0  0  0  0  0
    4.5464   -6.0365    7.1961 C   0  0  0  0  0  0  0  0  0  0  0  0
    5.3218   -4.8005    7.3080 C   0  0  0  0  0  0  0  0  0  0  0  0
    5.0687   -3.7117    6.8237 O   0  0  0  0  0  0  0  0  0  0  0  0
    6.5010   -5.1348    8.1333 C   0  0  0  0  0  0  0  0  0  0  0  0
    7.5544   -4.3244    8.5009 C   0  0  0  0  0  0  0  0  0  0  0  0
    8.5662   -4.8742    9.2790 C   0  0  0  0  0  0  0  0  0  0  0  0
    9.8989   -3.9008    9.7550 Cl  0  0  0  0  0  0  0  0  0  0  0  0
    8.5029   -6.2145    9.6719 C   0  0  0  0  0  0  0  0  0  0  0  0
    9.7621   -6.8836   10.6300 Cl  0  0  0  0  0  0  0  0  0  0  0  0
    7.4361   -7.0267    9.3001 C   0  0  0  0  0  0  0  0  0  0  0  0
    6.4268   -6.4828    8.5240 C   0  0  0  0  0  0  0  0  0  0  0  0
    5.2023   -7.0660    7.9739 C   0  0  0  0  0  0  0  0  0  0  0  0
    4.7752   -8.3511    8.1939 C   0  0  0  0  0  0  0  0  0  0  0  0
    3.5854   -8.9220    7.6967 C   0  0  0  0  0  0  0  0  0  0  0  0
    2.6376   -9.4630    7.3371 N   0  0  0  0  0  0  0  0  0  0  0  0
    5.4751   -9.2940    8.9758 C   0  0  0  0  0  0  0  0  0  0  0  0
    5.9899  -10.1117    9.5957 N   0  0  0  0  0  0  0  0  0  0  0  0
    2.7151   -5.3056    5.6268 C   0  0  0  0  0  0  0  0  0  0  0  0
    1.6097   -5.7092    4.8563 C   0  0  0  0  0  0  0  0  0  0  0  0
    1.0751   -4.6872    4.1121 C   0  0  0  0  0  0  0  0  0  0  0  0
   -0.0493   -4.5093    3.1051 C   0  0  0  0  0  0  0  0  0  0  0  0
    0.1160   -5.4683    1.9387 C   0  0  0  0  0  0  0  0  0  0  0  0
   -0.8799   -6.3420    1.5293 C   0  0  0  0  0  0  0  0  0  0  0  0
   -0.6567   -7.2154    0.4802 C   0  0  0  0  0  0  0  0  0  0  0  0
    0.5586   -7.2374   -0.1916 C   0  0  0  0  0  0  0  0  0  0  0  0
    0.7846   -8.1821   -1.3374 C   0  0  0  0  0  0  0  0  0  0  0  0
    0.2106   -7.6182   -2.6388 C   0  0  0  0  0  0  0  0  0  0  0  0
    1.5427   -6.3406    0.2041 C   0  0  0  0  0  0  0  0  0  0  0  0
    1.3264   -5.4703    1.2554 C   0  0  0  0  0  0  0  0  0  0  0  0
   -1.3696   -4.6623    3.8426 C   0  0  0  0  0  0  0  0  0  0  0  0
   -2.2844   -3.6255    3.9467 C   0  0  0  0  0  0  0  0  0  0  0  0
   -3.4604   -3.7929    4.6572 C   0  0  0  0  0  0  0  0  0  0  0  0
   -3.7520   -4.9918    5.2904 C   0  0  0  0  0  0  0  0  0  0  0  0
   -5.0435   -5.1830    6.0314 C   0  0  0  0  0  0  0  0  0  0  0  0
   -6.1061   -5.7843    5.1092 C   0  0  0  0  0  0  0  0  0  0  0  0
   -2.8336   -6.0290    5.1841 C   0  0  0  0  0  0  0  0  0  0  0  0
   -1.6601   -5.8672    4.4748 C   0  0  0  0  0  0  0  0  0  0  0  0
    0.2044   -3.0803    2.6778 C   0  0  0  0  0  0  0  0  0  0  0  0
    1.2142   -2.5104    3.4390 C   0  0  0  0  0  0  0  0  0  0  0  0
    1.7642   -3.4772    4.3095 C   0  0  0  0  0  0  0  0  0  0  0  0
    3.0671   -3.5948    5.4063 S   0  0  0  0  0  0  0  0  0  0  0  0
    1.5377   -0.8641    3.0412 S   0  0  0  0  0  0  0  0  0  0  0  0
    0.3286   -0.9394    1.7826 C   0  0  0  0  0  0  0  0  0  0  0  0
    0.0256    0.1173    0.9083 C   0  0  0  0  0  0  0  0  0  0  0  0
   -0.8895   -0.1751   -0.1335 C   0  0  0  0  0  0  0  0  0  0  0  0
   -1.5177   -1.4373   -0.2256 C   0  0  0  0  0  0  0  0  0  0  0  0
   -1.2647   -2.4344    0.6793 C   0  0  0  0  0  0  0  0  0  0  0  0
   -1.8477   -3.6512    0.7205 O   0  0  0  0  0  0  0  0  0  0  0  0
   -2.6875   -4.0632   -0.3402 C   0  0  0  0  0  0  0  0  0  0  0  0
   -1.9010   -4.4261   -1.5947 C   0  0  0  0  0  0  0  0  0  0  0  0
   -0.2954   -2.1963    1.7006 C   0  0  0  0  0  0  0  0  0  0  0  0
   -1.1152    0.8503   -1.0664 C   0  0  0  0  0  0  0  0  0  0  0  0
   -0.5440    2.1295   -0.9453 C   0  0  0  0  0  0  0  0  0  0  0  0
    0.3181    2.4109    0.1583 C   0  0  0  0  0  0  0  0  0  0  0  0
    0.6043    1.3996    1.0374 C   0  0  0  0  0  0  0  0  0  0  0  0
    0.7667    3.6824    0.2220 O   0  0  0  0  0  0  0  0  0  0  0  0
    1.7197    4.0435    1.2027 C   0  0  0  0  0  0  0  0  0  0  0  0
    3.1234    3.5517    0.8669 C   0  0  0  0  0  0  0  0  0  0  0  0
   -0.9103    2.9565   -2.0262 C   0  0  0  0  0  0  0  0  0  0  0  0
   -1.6976    2.2930   -2.9563 C   0  0  0  0  0  0  0  0  0  0  0  0
   -2.0777    0.6708   -2.5128 S   0  0  0  0  0  0  0  0  0  0  0  0
   -1.9116    3.1182   -4.0816 C   0  0  0  0  0  0  0  0  0  0  0  0
   -2.6165    2.9835   -5.6299 S   0  0  0  0  0  0  0  0  0  0  0  0
   -2.0211    4.5919   -6.0311 C   0  0  0  0  0  0  0  0  0  0  0  0
   -1.3241    5.1680   -4.9522 C   0  0  0  0  0  0  0  0  0  0  0  0
   -1.2593    4.3446   -3.8568 C   0  0  0  0  0  0  0  0  0  0  0  0
   -0.6407    4.3782   -2.4694 C   0  0  0  0  0  0  0  0  0  0  0  0
   -1.4050    5.3937   -1.6356 C   0  0  0  0  0  0  0  0  0  0  0  0
   -1.4355    6.7235   -2.0429 C   0  0  0  0  0  0  0  0  0  0  0  0
   -2.1492    7.6658   -1.3290 C   0  0  0  0  0  0  0  0  0  0  0  0
   -2.8588    7.3100   -0.1888 C   0  0  0  0  0  0  0  0  0  0  0  0
   -3.6063    8.3419    0.6052 C   0  0  0  0  0  0  0  0  0  0  0  0
   -2.6860    8.9940    1.6390 C   0  0  0  0  0  0  0  0  0  0  0  0
   -2.8215    5.9844    0.2176 C   0  0  0  0  0  0  0  0  0  0  0  0
   -2.1098    5.0360   -0.4962 C   0  0  0  0  0  0  0  0  0  0  0  0
    0.8512    4.6500   -2.5446 C   0  0  0  0  0  0  0  0  0  0  0  0
    1.6291    3.8317   -3.3554 C   0  0  0  0  0  0  0  0  0  0  0  0
    2.9920    4.0318   -3.4593 C   0  0  0  0  0  0  0  0  0  0  0  0
    3.6164    5.0528   -2.7543 C   0  0  0  0  0  0  0  0  0  0  0  0
    5.0894    5.3050   -2.9005 C   0  0  0  0  0  0  0  0  0  0  0  0
    5.3463    6.3243   -4.0122 C   0  0  0  0  0  0  0  0  0  0  0  0
    2.8351    5.8637   -1.9419 C   0  0  0  0  0  0  0  0  0  0  0  0
    1.4705    5.6660   -1.8333 C   0  0  0  0  0  0  0  0  0  0  0  0
   -2.1506    5.2525   -7.2527 C   0  0  0  0  0  0  0  0  0  0  0  0
   -2.7326    4.8521   -8.4358 C   0  0  0  0  0  0  0  0  0  0  0  0
   -3.3920    3.5675   -8.6632 C   0  0  0  0  0  0  0  0  0  0  0  0
   -3.5716    2.6712   -7.8589 O   0  0  0  0  0  0  0  0  0  0  0  0
   -3.8055    3.5687  -10.0834 C   0  0  0  0  0  0  0  0  0  0  0  0
   -3.4313    4.7899  -10.6737 C   0  0  0  0  0  0  0  0  0  0  0  0
   -3.7109    5.0253  -12.0097 C   0  0  0  0  0  0  0  0  0  0  0  0
   -4.3580    4.0370  -12.7380 C   0  0  0  0  0  0  0  0  0  0  0  0
   -4.7229    2.8355  -12.1518 C   0  0  0  0  0  0  0  0  0  0  0  0
   -5.5985    1.5286  -13.1988 Br  0  0  0  0  0  0  0  0  0  0  0  0
   -4.4522    2.5780  -10.8030 C   0  0  0  0  0  0  0  0  0  0  0  0
   -4.9002    1.0952  -10.0741 Cl  0  0  0  0  0  0  0  0  0  0  0  0
   -2.7657    5.6140   -9.6627 C   0  0  0  0  0  0  0  0  0  0  0  0
   -2.2727    6.8766   -9.8816 C   0  0  0  0  0  0  0  0  0  0  0  0
   -2.3410    7.5523  -11.1175 C   0  0  0  0  0  0  0  0  0  0  0  0
   -2.3607    8.1600  -12.0915 N   0  0  0  0  0  0  0  0  0  0  0  0
   -1.6302    7.6890   -8.9248 C   0  0  0  0  0  0  0  0  0  0  0  0
   -1.0975    8.4163   -8.2121 N   0  0  0  0  0  0  0  0  0  0  0  0
    2.9909   -7.2038    6.4141 H   0  0  0  0  0  0  0  0  0  0  0  0
    7.5905   -3.2925    8.1896 H   0  0  0  0  0  0  0  0  0  0  0  0
    7.4246   -8.0551    9.6214 H   0  0  0  0  0  0  0  0  0  0  0  0
    1.2725   -6.7300    4.8614 H   0  0  0  0  0  0  0  0  0  0  0  0
   -1.8371   -6.3435    2.0267 H   0  0  0  0  0  0  0  0  0  0  0  0
   -1.4407   -7.8973    0.1819 H   0  0  0  0  0  0  0  0  0  0  0  0
    0.3059   -9.1398   -1.1221 H   0  0  0  0  0  0  0  0  0  0  0  0
    1.8547   -8.3571   -1.4633 H   0  0  0  0  0  0  0  0  0  0  0  0
    0.3989   -8.3023   -3.4628 H   0  0  0  0  0  0  0  0  0  0  0  0
   -0.8636   -7.4724   -2.5500 H   0  0  0  0  0  0  0  0  0  0  0  0
    0.6697   -6.6600   -2.8729 H   0  0  0  0  0  0  0  0  0  0  0  0
    2.4932   -6.3296   -0.3102 H   0  0  0  0  0  0  0  0  0  0  0  0
    2.1102   -4.7876    1.5534 H   0  0  0  0  0  0  0  0  0  0  0  0
   -2.0903   -2.6754    3.4743 H   0  0  0  0  0  0  0  0  0  0  0  0
   -4.1588   -2.9707    4.7245 H   0  0  0  0  0  0  0  0  0  0  0  0
   -4.8863   -5.8503    6.8813 H   0  0  0  0  0  0  0  0  0  0  0  0
   -5.3980   -4.2229    6.4114 H   0  0  0  0  0  0  0  0  0  0  0  0
   -7.0419   -5.9217    5.6458 H   0  0  0  0  0  0  0  0  0  0  0  0
   -5.7771   -6.7499    4.7318 H   0  0  0  0  0  0  0  0  0  0  0  0
   -6.2851   -5.1278    4.2604 H   0  0  0  0  0  0  0  0  0  0  0  0
   -3.0365   -6.9735    5.6685 H   0  0  0  0  0  0  0  0  0  0  0  0
   -0.9660   -6.6904    4.4054 H   0  0  0  0  0  0  0  0  0  0  0  0
   -2.2173   -1.5749   -1.0346 H   0  0  0  0  0  0  0  0  0  0  0  0
   -3.1928   -4.9493    0.0516 H   0  0  0  0  0  0  0  0  0  0  0  0
   -3.4432   -3.2976   -0.5544 H   0  0  0  0  0  0  0  0  0  0  0  0
   -1.3943   -3.5563   -2.0051 H   0  0  0  0  0  0  0  0  0  0  0  0
   -1.1541   -5.1760   -1.3473 H   0  0  0  0  0  0  0  0  0  0  0  0
   -2.5755   -4.8260   -2.3464 H   0  0  0  0  0  0  0  0  0  0  0  0
    1.2732    1.5492    1.8698 H   0  0  0  0  0  0  0  0  0  0  0  0
    1.6992    5.1362    1.2018 H   0  0  0  0  0  0  0  0  0  0  0  0
    1.4050    3.6903    2.1923 H   0  0  0  0  0  0  0  0  0  0  0  0
    3.4167    3.9262   -0.1108 H   0  0  0  0  0  0  0  0  0  0  0  0
    3.1637    2.4657    0.8463 H   0  0  0  0  0  0  0  0  0  0  0  0
    3.8239    3.9149    1.6135 H   0  0  0  0  0  0  0  0  0  0  0  0
   -0.8782    6.1427   -5.0371 H   0  0  0  0  0  0  0  0  0  0  0  0
   -0.8894    7.0277   -2.9224 H   0  0  0  0  0  0  0  0  0  0  0  0
   -2.1606    8.6925   -1.6663 H   0  0  0  0  0  0  0  0  0  0  0  0
   -3.9970    9.1111   -0.0639 H   0  0  0  0  0  0  0  0  0  0  0  0
   -4.4493    7.8745    1.1180 H   0  0  0  0  0  0  0  0  0  0  0  0
   -1.8495    9.4839    1.1457 H   0  0  0  0  0  0  0  0  0  0  0  0
   -2.2903    8.2435    2.3198 H   0  0  0  0  0  0  0  0  0  0  0  0
   -3.2304    9.7361    2.2182 H   0  0  0  0  0  0  0  0  0  0  0  0
   -3.3635    5.6829    1.1029 H   0  0  0  0  0  0  0  0  0  0  0  0
   -2.1108    4.0136   -0.1526 H   0  0  0  0  0  0  0  0  0  0  0  0
    1.1626    3.0296   -3.9106 H   0  0  0  0  0  0  0  0  0  0  0  0
    3.5799    3.3846   -4.0945 H   0  0  0  0  0  0  0  0  0  0  0  0
    5.4955    5.6879   -1.9616 H   0  0  0  0  0  0  0  0  0  0  0  0
    5.6040    4.3724   -3.1405 H   0  0  0  0  0  0  0  0  0  0  0  0
    4.9594    5.9561   -4.9597 H   0  0  0  0  0  0  0  0  0  0  0  0
    6.4124    6.5093   -4.1202 H   0  0  0  0  0  0  0  0  0  0  0  0
    4.8514    7.2656   -3.7841 H   0  0  0  0  0  0  0  0  0  0  0  0
    3.3025    6.6602   -1.3797 H   0  0  0  0  0  0  0  0  0  0  0  0
    0.8916    6.3022   -1.1824 H   0  0  0  0  0  0  0  0  0  0  0  0
   -1.6919    6.2338   -7.2522 H   0  0  0  0  0  0  0  0  0  0  0  0
   -3.4396    5.9476  -12.4949 H   0  0  0  0  0  0  0  0  0  0  0  0
   -4.5830    4.2008  -13.7806 H   0  0  0  0  0  0  0  0  0  0  0  0
  1  2  2  0  0  0  0
  2  3  1  0  0  0  0
  3  4  2  0  0  0  0
  3  5  1  0  0  0  0
  5  6  2  0  0  0  0
  6  7  1  0  0  0  0
  7  8  1  0  0  0  0
  7  9  2  0  0  0  0
  9 10  1  0  0  0  0
  9 11  1  0  0  0  0
 11 12  2  0  0  0  0
 12 13  1  0  0  0  0
 13 14  2  0  0  0  0
 14 15  1  0  0  0  0
 15 16  3  0  0  0  0
 14 17  1  0  0  0  0
 17 18  3  0  0  0  0
  1 19  1  0  0  0  0
 19 20  2  0  0  0  0
 20 21  1  0  0  0  0
 21 22  1  0  0  0  0
 22 23  1  0  0  0  0
 23 24  2  0  0  0  0
 24 25  1  0  0  0  0
 25 26  2  0  0  0  0
 26 27  1  0  0  0  0
 27 28  1  0  0  0  0
 26 29  1  0  0  0  0
 29 30  2  0  0  0  0
 22 31  1  0  0  0  0
 31 32  2  0  0  0  0
 32 33  1  0  0  0  0
 33 34  2  0  0  0  0
 34 35  1  0  0  0  0
 35 36  1  0  0  0  0
 34 37  1  0  0  0  0
 37 38  2  0  0  0  0
 22 39  1  0  0  0  0
 39 40  2  0  0  0  0
 40 41  1  0  0  0  0
 41 42  1  0  0  0  0
 40 43  1  0  0  0  0
 43 44  1  0  0  0  0
 44 45  2  0  0  0  0
 45 46  1  0  0  0  0
 46 47  2  0  0  0  0
 47 48  1  0  0  0  0
 48 49  1  0  0  0  0
 49 50  1  0  0  0  0
 50 51  1  0  0  0  0
 48 52  2  0  0  0  0
 46 53  1  0  0  0  0
 53 54  2  0  0  0  0
 54 55  1  0  0  0  0
 55 56  2  0  0  0  0
 55 57  1  0  0  0  0
 57 58  1  0  0  0  0
 58 59  1  0  0  0  0
 54 60  1  0  0  0  0
 60 61  2  0  0  0  0
 61 62  1  0  0  0  0
 61 63  1  0  0  0  0
 63 64  1  0  0  0  0
 64 65  1  0  0  0  0
 65 66  2  0  0  0  0
 66 67  1  0  0  0  0
 67 68  1  0  0  0  0
 68 69  1  0  0  0  0
 69 70  2  0  0  0  0
 70 71  1  0  0  0  0
 71 72  2  0  0  0  0
 72 73  1  0  0  0  0
 73 74  1  0  0  0  0
 72 75  1  0  0  0  0
 75 76  2  0  0  0  0
 68 77  1  0  0  0  0
 77 78  2  0  0  0  0
 78 79  1  0  0  0  0
 79 80  2  0  0  0  0
 80 81  1  0  0  0  0
 81 82  1  0  0  0  0
 80 83  1  0  0  0  0
 83 84  2  0  0  0  0
 65 85  1  0  0  0  0
 85 86  2  0  0  0  0
 86 87  1  0  0  0  0
 87 88  2  0  0  0  0
 87 89  1  0  0  0  0
 89 90  2  0  0  0  0
 90 91  1  0  0  0  0
 91 92  2  0  0  0  0
 92 93  1  0  0  0  0
 93 94  1  0  0  0  0
 93 95  2  0  0  0  0
 95 96  1  0  0  0  0
 90 97  1  0  0  0  0
 97 98  2  0  0  0  0
 98 99  1  0  0  0  0
 99100  3  0  0  0  0
 98101  1  0  0  0  0
101102  3  0  0  0  0
 13  2  1  0  0  0  0
 42 19  1  0  0  0  0
 52 44  1  0  0  0  0
 62 53  1  0  0  0  0
 67 63  2  0  0  0  0
 76 69  1  0  0  0  0
 84 77  1  0  0  0  0
 97 86  1  0  0  0  0
 12  5  1  0  0  0  0
 41 21  2  0  0  0  0
 56 45  1  0  0  0  0
 68 60  1  0  0  0  0
 95 89  1  0  0  0  0
 30 23  1  0  0  0  0
 38 31  1  0  0  0  0
 52 39  1  0  0  0  0
  1103  1  0  0  0  0
  6104  1  0  0  0  0
 11105  1  0  0  0  0
 20106  1  0  0  0  0
 24107  1  0  0  0  0
 25108  1  0  0  0  0
 27109  1  0  0  0  0
 27110  1  0  0  0  0
 28111  1  0  0  0  0
 28112  1  0  0  0  0
 28113  1  0  0  0  0
 29114  1  0  0  0  0
 30115  1  0  0  0  0
 32116  1  0  0  0  0
 33117  1  0  0  0  0
 35118  1  0  0  0  0
 35119  1  0  0  0  0
 36120  1  0  0  0  0
 36121  1  0  0  0  0
 36122  1  0  0  0  0
 37123  1  0  0  0  0
 38124  1  0  0  0  0
 47125  1  0  0  0  0
 50126  1  0  0  0  0
 50127  1  0  0  0  0
 51128  1  0  0  0  0
 51129  1  0  0  0  0
 51130  1  0  0  0  0
 56131  1  0  0  0  0
 58132  1  0  0  0  0
 58133  1  0  0  0  0
 59134  1  0  0  0  0
 59135  1  0  0  0  0
 59136  1  0  0  0  0
 66137  1  0  0  0  0
 70138  1  0  0  0  0
 71139  1  0  0  0  0
 73140  1  0  0  0  0
 73141  1  0  0  0  0
 74142  1  0  0  0  0
 74143  1  0  0  0  0
 74144  1  0  0  0  0
 75145  1  0  0  0  0
 76146  1  0  0  0  0
 78147  1  0  0  0  0
 79148  1  0  0  0  0
 81149  1  0  0  0  0
 81150  1  0  0  0  0
 82151  1  0  0  0  0
 82152  1  0  0  0  0
 82153  1  0  0  0  0
 83154  1  0  0  0  0
 84155  1  0  0  0  0
 85156  1  0  0  0  0
 91157  1  0  0  0  0
 92158  1  0  0  0  0
M  END
