98

C          1.37650        9.46630        0.16920
C          0.39090        9.88940       -0.69550
C         -0.56160        9.01840       -1.36910
O         -0.64640        7.80020       -1.26400
C         -1.40420        9.88550       -2.20620
C         -2.45390        9.56300       -3.05020
Cl        -2.96280        7.93610       -3.24550
C         -3.09480       10.58780       -3.74400
C         -2.68130       11.89770       -3.58410
C         -1.62880       12.23450       -2.73870
C         -0.98830       11.22250       -2.04680
C          0.13150       11.25390       -1.10110
C          0.78680       12.38750       -0.69520
C          1.86220       12.43560        0.21700
N          2.73660       12.56660        0.95060
C          0.47330       13.69010       -1.13810
N          0.27590       14.77560       -1.45500
C          1.71260        8.18350        0.61180
C          2.78490        7.98470        1.49010
C          3.01960        6.67180        1.84360
S          4.24530        5.96860        2.88650
C          3.58540        4.40520        2.55620
C          3.79240        3.06600        2.90260
C          4.72870        2.48930        3.78830
C          4.69110        1.07600        4.00700
N          5.60410        0.67270        4.87690
S          6.43950        1.96550        5.37700
N          5.66950        3.08820        4.50150
C          3.75860        0.30040        3.28420
C          3.57420       -1.08780        3.25280
C          2.57490       -1.33900        2.30720
N          2.13760       -0.16380        1.76410
C          1.13520       -0.23140        0.72910
C         -0.26890       -0.38910        1.31260
C          2.83270        0.87530        2.35910
C          2.80830        2.29010        2.21060
N          2.01070        3.16610        1.49860
C          2.48580        4.43480        1.69110
C          2.14310        5.72170        1.27340
Se         0.87960        6.53460        0.16730
C          0.79480        3.00700        0.73780
C          1.06030        3.01000       -0.76750
C          2.31410       -2.70240        2.15040
C          3.12000       -3.47770        3.00150
S          4.20630       -2.51940        3.98500
C          2.93060       -4.85570        2.92400
C          1.94040       -5.25640        2.04570
Se         1.18480       -3.77340        1.13260
C          1.61410       -6.59870        1.74420
C          0.52930       -7.08480        1.08100
C          0.59020       -8.41490        0.41760
O          1.41050       -9.28370        0.60830
C         -0.51750       -8.40950       -0.56010
C         -0.79710       -9.37340       -1.52710
C         -1.88320       -9.07750       -2.31610
C         -2.63480       -7.90350       -2.16710
C         -2.37490       -6.94520       -1.21690
C         -1.28120       -7.23420       -0.39710
C         -0.74040       -6.48550        0.73310
C         -1.44490       -5.59110        1.50110
C         -0.98880       -5.13360        2.75530
N         -0.66430       -4.76880        3.79500
C         -2.72700       -5.10640        1.17900
N         -3.75950       -4.65760        0.95250
C         -3.56890       -8.26210       -3.29500
C         -4.96170       -8.79030       -2.89060
C         -5.45540       -9.49490       -4.13350
C         -4.74710      -10.60820       -4.27410
C         -3.76320      -10.67510       -3.12810
C         -4.59500      -10.00420       -2.02730
C         -2.73450       -9.57290       -3.45900
H          2.01580       10.23760        0.58380
H         -3.91300       10.34780       -4.40410
H         -3.18710       12.68000       -4.12900
H         -1.33250       13.26510       -2.63790
H          3.37690        8.80850        1.85200
H          1.36160       -1.12060        0.12380
H          1.21220        0.63190        0.07540
H         -1.00760       -0.36260        0.51640
H         -0.49290        0.39610        2.03180
H         -0.35440       -1.34480        1.82890
H          0.15410        3.86790        0.97370
H          0.26900        2.11300        1.06120
H          0.14630        2.77270       -1.30440
H          1.83260        2.29330       -1.04070
H          1.39380        3.99800       -1.08330
H          3.47970       -5.55970        3.52510
H          2.37350       -7.33400        1.99440
H         -0.19120      -10.26130       -1.61690
H         -2.94890       -6.03860       -1.11480
H         -3.60440       -7.55910       -4.12510
H         -5.62120       -8.04540       -2.45390
H         -6.20590       -9.09690       -4.79080
H         -4.78780      -11.32570       -5.07240
H         -3.33300      -11.64850       -2.90900
H         -5.46860      -10.59390       -1.75490
H         -4.02940       -9.75710       -1.13080
H         -2.21360       -9.74520       -4.39910
