
  xtb     02022221143D
 energy: -226.171430162880 gnorm: 0.000933011022 xtb: 6.4.1 (unknown)
130146  0     0  0            999 V2000
   -5.6327   -4.9530    3.7590 C   0  0  0  0  0  0  0  0  0  0  0  0
   -6.8427   -5.1335    4.3774 C   0  0  0  0  0  0  0  0  0  0  0  0
   -7.7547   -4.0522    4.8003 C   0  0  0  0  0  0  0  0  0  0  0  0
   -7.6646   -2.8752    4.5258 O   0  0  0  0  0  0  0  0  0  0  0  0
   -8.8813   -4.7244    5.4763 C   0  0  0  0  0  0  0  0  0  0  0  0
   -9.9581   -4.1809    6.1542 C   0  0  0  0  0  0  0  0  0  0  0  0
  -10.1036   -2.4836    6.3553 Cl  0  0  0  0  0  0  0  0  0  0  0  0
  -10.9135   -5.0378    6.6956 C   0  0  0  0  0  0  0  0  0  0  0  0
  -10.7809   -6.4067    6.5438 C   0  0  0  0  0  0  0  0  0  0  0  0
   -9.6999   -6.9657    5.8719 C   0  0  0  0  0  0  0  0  0  0  0  0
   -8.7427   -6.1180    5.3410 C   0  0  0  0  0  0  0  0  0  0  0  0
   -7.4929   -6.3986    4.6303 C   0  0  0  0  0  0  0  0  0  0  0  0
   -7.0158   -7.6512    4.3366 C   0  0  0  0  0  0  0  0  0  0  0  0
   -5.7785   -7.9322    3.7212 C   0  0  0  0  0  0  0  0  0  0  0  0
   -4.7860   -8.2488    3.2367 N   0  0  0  0  0  0  0  0  0  0  0  0
   -7.7014   -8.8514    4.6170 C   0  0  0  0  0  0  0  0  0  0  0  0
   -8.2035   -9.8676    4.8005 N   0  0  0  0  0  0  0  0  0  0  0  0
   -4.8131   -3.8088    3.7385 C   0  0  0  0  0  0  0  0  0  0  0  0
   -4.6799   -2.7275    4.6147 C   0  0  0  0  0  0  0  0  0  0  0  0
   -5.4322   -2.5847    5.8632 C   0  0  0  0  0  0  0  0  0  0  0  0
   -5.4484   -3.6787    6.7289 C   0  0  0  0  0  0  0  0  0  0  0  0
   -6.1525   -3.6360    7.9135 C   0  0  0  0  0  0  0  0  0  0  0  0
   -6.8380   -2.4810    8.2558 C   0  0  0  0  0  0  0  0  0  0  0  0
   -6.8098   -1.3898    7.4110 C   0  0  0  0  0  0  0  0  0  0  0  0
   -6.1303   -1.4175    6.1969 C   0  0  0  0  0  0  0  0  0  0  0  0
   -6.1941   -0.2262    5.2817 C   0  0  0  0  0  0  0  0  0  0  0  0
   -7.6180    0.2815    5.0593 C   0  0  0  0  0  0  0  0  0  0  0  0
   -3.6287   -1.8859    4.2259 C   0  0  0  0  0  0  0  0  0  0  0  0
   -2.9397   -0.4464    4.9462 S   0  0  0  0  0  0  0  0  0  0  0  0
   -1.7916   -0.3792    3.6552 C   0  0  0  0  0  0  0  0  0  0  0  0
   -0.7148    0.4111    3.2318 C   0  0  0  0  0  0  0  0  0  0  0  0
   -0.0976    1.5260    3.8399 C   0  0  0  0  0  0  0  0  0  0  0  0
    1.0577    2.1001    3.2178 C   0  0  0  0  0  0  0  0  0  0  0  0
    1.5618    3.1059    3.9156 N   0  0  0  0  0  0  0  0  0  0  0  0
    0.6549    3.3154    5.2395 S   0  0  0  0  0  0  0  0  0  0  0  0
   -0.4144    2.1294    4.9750 N   0  0  0  0  0  0  0  0  0  0  0  0
    1.4812    1.5931    1.9699 C   0  0  0  0  0  0  0  0  0  0  0  0
    2.4790    2.0439    1.0949 C   0  0  0  0  0  0  0  0  0  0  0  0
    3.6757    3.2873    1.0020 S   0  0  0  0  0  0  0  0  0  0  0  0
    4.0767    2.7485   -0.6111 C   0  0  0  0  0  0  0  0  0  0  0  0
    4.9671    3.2224   -1.5836 C   0  0  0  0  0  0  0  0  0  0  0  0
    5.8234    4.4118   -1.4790 C   0  0  0  0  0  0  0  0  0  0  0  0
    6.9269    4.4691   -0.6270 C   0  0  0  0  0  0  0  0  0  0  0  0
    7.3311    3.3094    0.2412 C   0  0  0  0  0  0  0  0  0  0  0  0
    7.2012    3.6416    1.7279 C   0  0  0  0  0  0  0  0  0  0  0  0
    7.6911    5.6302   -0.6173 C   0  0  0  0  0  0  0  0  0  0  0  0
    7.3698    6.7112   -1.4158 C   0  0  0  0  0  0  0  0  0  0  0  0
    6.2731    6.6455   -2.2595 C   0  0  0  0  0  0  0  0  0  0  0  0
    5.5104    5.4956   -2.2977 C   0  0  0  0  0  0  0  0  0  0  0  0
    4.8628    2.5039   -2.7685 C   0  0  0  0  0  0  0  0  0  0  0  0
    3.6985    1.1889   -2.6479 S   0  0  0  0  0  0  0  0  0  0  0  0
    3.3089    1.6549   -1.0335 C   0  0  0  0  0  0  0  0  0  0  0  0
    2.3962    1.2521   -0.0555 C   0  0  0  0  0  0  0  0  0  0  0  0
    1.4076    0.3165    0.0856 N   0  0  0  0  0  0  0  0  0  0  0  0
    0.8228    0.5028    1.3286 C   0  0  0  0  0  0  0  0  0  0  0  0
   -0.2315   -0.1567    2.0156 C   0  0  0  0  0  0  0  0  0  0  0  0
   -0.9823   -1.2878    1.7397 N   0  0  0  0  0  0  0  0  0  0  0  0
   -1.9198   -1.4197    2.7286 C   0  0  0  0  0  0  0  0  0  0  0  0
   -2.9577   -2.2935    3.0621 C   0  0  0  0  0  0  0  0  0  0  0  0
   -3.6096   -3.7620    2.4457 S   0  0  0  0  0  0  0  0  0  0  0  0
   -0.7007   -2.4140    0.8771 C   0  0  0  0  0  0  0  0  0  0  0  0
    0.6408   -3.0578    1.2182 C   0  0  0  0  0  0  0  0  0  0  0  0
    0.9155   -0.3683   -1.0895 C   0  0  0  0  0  0  0  0  0  0  0  0
   -0.4339    0.1864   -1.5381 C   0  0  0  0  0  0  0  0  0  0  0  0
    5.6565    2.7013   -3.9205 C   0  0  0  0  0  0  0  0  0  0  0  0
    5.4298    2.2656   -5.1895 C   0  0  0  0  0  0  0  0  0  0  0  0
    6.5526    2.1258   -6.1528 C   0  0  0  0  0  0  0  0  0  0  0  0
    7.6649    2.5910   -6.0453 O   0  0  0  0  0  0  0  0  0  0  0  0
    6.0343    1.2503   -7.2242 C   0  0  0  0  0  0  0  0  0  0  0  0
    6.7443    0.7230   -8.3003 C   0  0  0  0  0  0  0  0  0  0  0  0
    5.9963   -0.0827   -9.1251 C   0  0  0  0  0  0  0  0  0  0  0  0
    4.6388   -0.3504   -8.9006 C   0  0  0  0  0  0  0  0  0  0  0  0
    3.9210    0.1713   -7.8508 C   0  0  0  0  0  0  0  0  0  0  0  0
    4.6643    0.9938   -7.0016 C   0  0  0  0  0  0  0  0  0  0  0  0
    4.2396    1.7513   -5.8289 C   0  0  0  0  0  0  0  0  0  0  0  0
    2.9550    2.1432   -5.5492 C   0  0  0  0  0  0  0  0  0  0  0  0
    1.8110    1.6583   -6.2095 C   0  0  0  0  0  0  0  0  0  0  0  0
    0.8394    1.2707   -6.6837 N   0  0  0  0  0  0  0  0  0  0  0  0
    2.6605    3.1513   -4.6082 C   0  0  0  0  0  0  0  0  0  0  0  0
    2.3990    4.0090   -3.8907 N   0  0  0  0  0  0  0  0  0  0  0  0
    4.5335   -1.2468  -10.1085 C   0  0  0  0  0  0  0  0  0  0  0  0
    4.5247   -2.7778   -9.8740 C   0  0  0  0  0  0  0  0  0  0  0  0
    5.2667   -3.0194   -8.5830 C   0  0  0  0  0  0  0  0  0  0  0  0
    6.5499   -2.7630   -8.7990 C   0  0  0  0  0  0  0  0  0  0  0  0
    6.6990   -2.3434  -10.2404 C   0  0  0  0  0  0  0  0  0  0  0  0
    5.6000   -3.2014  -10.8874 C   0  0  0  0  0  0  0  0  0  0  0  0
    6.0442   -0.9450  -10.3618 C   0  0  0  0  0  0  0  0  0  0  0  0
   -5.2229   -5.7936    3.2104 H   0  0  0  0  0  0  0  0  0  0  0  0
  -11.7532   -4.6242    7.2310 H   0  0  0  0  0  0  0  0  0  0  0  0
  -11.5329   -7.0580    6.9624 H   0  0  0  0  0  0  0  0  0  0  0  0
   -9.6235   -8.0359    5.7763 H   0  0  0  0  0  0  0  0  0  0  0  0
   -4.8910   -4.5668    6.4642 H   0  0  0  0  0  0  0  0  0  0  0  0
   -6.1605   -4.4938    8.5697 H   0  0  0  0  0  0  0  0  0  0  0  0
   -7.3925   -2.4342    9.1814 H   0  0  0  0  0  0  0  0  0  0  0  0
   -7.3383   -0.4928    7.6949 H   0  0  0  0  0  0  0  0  0  0  0  0
   -5.5834    0.5771    5.7065 H   0  0  0  0  0  0  0  0  0  0  0  0
   -5.7786   -0.4904    4.3099 H   0  0  0  0  0  0  0  0  0  0  0  0
   -8.2388   -0.5320    4.6965 H   0  0  0  0  0  0  0  0  0  0  0  0
   -7.6121    1.0756    4.3160 H   0  0  0  0  0  0  0  0  0  0  0  0
   -8.0546    0.6769    5.9724 H   0  0  0  0  0  0  0  0  0  0  0  0
    6.7193    2.4360    0.0094 H   0  0  0  0  0  0  0  0  0  0  0  0
    8.3722    3.0535    0.0245 H   0  0  0  0  0  0  0  0  0  0  0  0
    7.4716    2.7774    2.3301 H   0  0  0  0  0  0  0  0  0  0  0  0
    7.8551    4.4670    1.9972 H   0  0  0  0  0  0  0  0  0  0  0  0
    6.1790    3.9242    1.9664 H   0  0  0  0  0  0  0  0  0  0  0  0
    8.5613    5.6785    0.0211 H   0  0  0  0  0  0  0  0  0  0  0  0
    7.9798    7.6018   -1.3879 H   0  0  0  0  0  0  0  0  0  0  0  0
    6.0182    7.4828   -2.8910 H   0  0  0  0  0  0  0  0  0  0  0  0
    4.6514    5.4270   -2.9495 H   0  0  0  0  0  0  0  0  0  0  0  0
   -1.4991   -3.1406    1.0454 H   0  0  0  0  0  0  0  0  0  0  0  0
   -0.7541   -2.1196   -0.1709 H   0  0  0  0  0  0  0  0  0  0  0  0
    0.8313   -3.8923    0.5490 H   0  0  0  0  0  0  0  0  0  0  0  0
    0.6236   -3.4312    2.2394 H   0  0  0  0  0  0  0  0  0  0  0  0
    1.4559   -2.3429    1.1327 H   0  0  0  0  0  0  0  0  0  0  0  0
    1.6516   -0.1971   -1.8788 H   0  0  0  0  0  0  0  0  0  0  0  0
    0.8769   -1.4440   -0.9192 H   0  0  0  0  0  0  0  0  0  0  0  0
   -0.7819   -0.3510   -2.4160 H   0  0  0  0  0  0  0  0  0  0  0  0
   -1.1790    0.0992   -0.7507 H   0  0  0  0  0  0  0  0  0  0  0  0
   -0.3341    1.2381   -1.7966 H   0  0  0  0  0  0  0  0  0  0  0  0
    6.6065    3.1998   -3.7525 H   0  0  0  0  0  0  0  0  0  0  0  0
    7.7886    0.9536   -8.4420 H   0  0  0  0  0  0  0  0  0  0  0  0
    2.8774   -0.0394   -7.6819 H   0  0  0  0  0  0  0  0  0  0  0  0
    3.8173   -0.9398  -10.8679 H   0  0  0  0  0  0  0  0  0  0  0  0
    3.5455   -3.2415   -9.9592 H   0  0  0  0  0  0  0  0  0  0  0  0
    4.7891   -3.2878   -7.6588 H   0  0  0  0  0  0  0  0  0  0  0  0
    7.3583   -2.7743   -8.0916 H   0  0  0  0  0  0  0  0  0  0  0  0
    7.6994   -2.4118  -10.6594 H   0  0  0  0  0  0  0  0  0  0  0  0
    5.3693   -2.9112  -11.9114 H   0  0  0  0  0  0  0  0  0  0  0  0
    5.8197   -4.2673  -10.8477 H   0  0  0  0  0  0  0  0  0  0  0  0
    6.3141   -0.4390  -11.2866 H   0  0  0  0  0  0  0  0  0  0  0  0
  1  2  2  0  0  0  0
  2  3  1  0  0  0  0
  3  4  2  0  0  0  0
  3  5  1  0  0  0  0
  5  6  2  0  0  0  0
  6  7  1  0  0  0  0
  6  8  1  0  0  0  0
  8  9  2  0  0  0  0
  9 10  1  0  0  0  0
 10 11  2  0  0  0  0
 11 12  1  0  0  0  0
 12 13  2  0  0  0  0
 13 14  1  0  0  0  0
 14 15  3  0  0  0  0
 13 16  1  0  0  0  0
 16 17  3  0  0  0  0
  1 18  1  0  0  0  0
 18 19  2  0  0  0  0
 19 20  1  0  0  0  0
 20 21  2  0  0  0  0
 21 22  1  0  0  0  0
 22 23  2  0  0  0  0
 23 24  1  0  0  0  0
 24 25  2  0  0  0  0
 25 26  1  0  0  0  0
 26 27  1  0  0  0  0
 19 28  1  0  0  0  0
 28 29  1  0  0  0  0
 29 30  1  0  0  0  0
 30 31  1  0  0  0  0
 31 32  1  0  0  0  0
 32 33  1  0  0  0  0
 33 34  2  0  0  0  0
 34 35  1  0  0  0  0
 35 36  1  0  0  0  0
 33 37  1  0  0  0  0
 37 38  1  0  0  0  0
 38 39  1  0  0  0  0
 39 40  1  0  0  0  0
 40 41  1  0  0  0  0
 41 42  1  0  0  0  0
 42 43  2  0  0  0  0
 43 44  1  0  0  0  0
 44 45  1  0  0  0  0
 43 46  1  0  0  0  0
 46 47  2  0  0  0  0
 47 48  1  0  0  0  0
 48 49  2  0  0  0  0
 41 50  2  0  0  0  0
 50 51  1  0  0  0  0
 51 52  1  0  0  0  0
 52 53  1  0  0  0  0
 53 54  1  0  0  0  0
 54 55  1  0  0  0  0
 55 56  1  0  0  0  0
 56 57  1  0  0  0  0
 57 58  1  0  0  0  0
 58 59  1  0  0  0  0
 59 60  1  0  0  0  0
 57 61  1  0  0  0  0
 61 62  1  0  0  0  0
 54 63  1  0  0  0  0
 63 64  1  0  0  0  0
 50 65  1  0  0  0  0
 65 66  2  0  0  0  0
 66 67  1  0  0  0  0
 67 68  2  0  0  0  0
 67 69  1  0  0  0  0
 69 70  2  0  0  0  0
 70 71  1  0  0  0  0
 71 72  2  0  0  0  0
 72 73  1  0  0  0  0
 73 74  2  0  0  0  0
 74 75  1  0  0  0  0
 75 76  2  0  0  0  0
 76 77  1  0  0  0  0
 77 78  3  0  0  0  0
 76 79  1  0  0  0  0
 79 80  3  0  0  0  0
 72 81  1  0  0  0  0
 81 82  1  0  0  0  0
 82 83  1  0  0  0  0
 83 84  2  0  0  0  0
 84 85  1  0  0  0  0
 85 86  1  0  0  0  0
 85 87  1  0  0  0  0
 12  2  1  0  0  0  0
 60 18  1  0  0  0  0
 75 66  1  0  0  0  0
 87 81  1  0  0  0  0
 11  5  1  0  0  0  0
 25 20  1  0  0  0  0
 59 28  2  0  0  0  0
 74 69  1  0  0  0  0
 86 82  1  0  0  0  0
 58 30  2  0  0  0  0
 87 71  1  0  0  0  0
 56 31  2  0  0  0  0
 36 32  2  0  0  0  0
 55 37  2  0  0  0  0
 53 38  2  0  0  0  0
 52 40  2  0  0  0  0
 49 42  1  0  0  0  0
  1 88  1  0  0  0  0
  8 89  1  0  0  0  0
  9 90  1  0  0  0  0
 10 91  1  0  0  0  0
 21 92  1  0  0  0  0
 22 93  1  0  0  0  0
 23 94  1  0  0  0  0
 24 95  1  0  0  0  0
 26 96  1  0  0  0  0
 26 97  1  0  0  0  0
 27 98  1  0  0  0  0
 27 99  1  0  0  0  0
 27100  1  0  0  0  0
 44101  1  0  0  0  0
 44102  1  0  0  0  0
 45103  1  0  0  0  0
 45104  1  0  0  0  0
 45105  1  0  0  0  0
 46106  1  0  0  0  0
 47107  1  0  0  0  0
 48108  1  0  0  0  0
 49109  1  0  0  0  0
 61110  1  0  0  0  0
 61111  1  0  0  0  0
 62112  1  0  0  0  0
 62113  1  0  0  0  0
 62114  1  0  0  0  0
 63115  1  0  0  0  0
 63116  1  0  0  0  0
 64117  1  0  0  0  0
 64118  1  0  0  0  0
 64119  1  0  0  0  0
 65120  1  0  0  0  0
 70121  1  0  0  0  0
 73122  1  0  0  0  0
 81123  1  0  0  0  0
 82124  1  0  0  0  0
 83125  1  0  0  0  0
 84126  1  0  0  0  0
 85127  1  0  0  0  0
 86128  1  0  0  0  0
 86129  1  0  0  0  0
 87130  1  0  0  0  0
M  END
