112

C          6.64070       -4.27680        6.16690
C          7.61840       -5.13900        6.57620
C          7.74920       -5.41950        8.03250
O          7.22330       -4.80580        8.93170
C          8.59650       -6.62770        8.11540
C          8.94530       -7.39690        9.21390
Cl         8.41340       -6.97740       10.79040
C          9.73760       -8.52660        9.01800
C         10.16190       -8.86790        7.74620
C          9.82780       -8.10050        6.63590
C          9.04570       -6.97580        6.82600
C          8.55930       -5.97420        5.87480
C          9.07760       -5.74300        4.62660
C          8.77390       -4.58980        3.87790
N          8.56130       -3.63500        3.27760
C         10.03130       -6.56930        4.00050
N         10.79590       -7.22020        3.44450
C          6.02920       -4.10820        4.90990
C          5.97310       -4.93590        3.78290
O          6.54880       -6.16120        3.67370
C          5.97110       -7.20280        4.45500
C          4.58670       -7.58670        3.94950
C          5.22280       -4.36390        2.74690
S          4.78770       -4.93780        1.15700
C          3.86920       -3.49140        0.92470
C          3.04190       -2.90410       -0.04270
C          2.70580       -3.33540       -1.34440
C          1.83940       -2.51880       -2.13960
N          1.62850       -3.02570       -3.34440
S          2.45270       -4.41400       -3.46540
N          3.10470       -4.42330       -1.98480
C          1.28400       -1.35700       -1.56130
C          0.29520       -0.48900       -2.04260
S         -0.69520       -0.28460       -3.44020
C         -1.54290        1.02930       -2.63310
C         -2.63470        1.85350       -2.97940
O         -3.43190        1.79580       -4.04120
C         -3.22690        0.82090       -5.05000
C         -3.87760       -0.51020       -4.69300
C         -2.92230        2.77810       -1.96100
S         -1.88050        2.55790       -0.56250
C         -1.03070        1.28770       -1.35540
C          0.01480        0.41910       -1.01940
N          0.81390        0.16540        0.06140
C          1.60200       -0.93400       -0.23710
C          2.56460       -1.67560        0.50220
N          3.13070       -1.51190        1.75760
C          3.90830       -2.61060        2.01100
C          4.68690       -3.10820        3.05970
S          5.09580       -2.63750        4.66600
C          3.33380       -0.31590        2.54770
C          4.07200        0.75800        1.75280
C          0.51860        0.79850        1.32640
C         -0.17810       -0.16500        2.28410
C         -3.95830        3.72010       -1.85040
C         -4.65000        4.33020       -2.86260
C         -4.18750        4.47240       -4.25830
O         -3.10670        4.16150       -4.71590
C         -5.25650        5.21160       -4.96130
C         -5.30440        5.52830       -6.31610
C         -6.43400        6.21510       -6.69230
C         -7.43400        6.58090       -5.78210
C         -7.39140        6.28970       -4.43970
C         -6.25810        5.57550       -4.03980
C         -5.88900        5.06430       -2.72120
C         -6.63280        5.20870       -1.57650
C         -7.83810        5.93510       -1.48970
N         -8.81960        6.51140       -1.33540
C         -6.31790        4.65540       -0.31840
N         -6.14950        4.22910        0.73550
C         -8.27890        7.23200       -6.84820
C         -9.51650        6.45330       -7.35870
C         -9.21990        4.98960       -7.14640
C         -8.27550        4.63890       -8.00900
C         -7.91630        5.85930       -8.82000
C         -9.28360        6.55950       -8.87420
C         -7.16680        6.82050       -7.86370
H          6.22760       -3.66390        6.96400
H         10.01310       -9.13080        9.86750
H         10.76840       -9.75060        7.61270
H         10.16790       -8.38960        5.65500
H          6.66660       -8.03820        4.34640
H          5.92280       -6.91200        5.51210
H          4.63160       -7.82750        2.89030
H          3.88630       -6.76580        4.09090
H          4.22670       -8.45250        4.49760
H         -2.15980        0.69490       -5.25540
H         -3.70410        1.25000       -5.93500
H         -4.94000       -0.36720       -4.51110
H         -3.42510       -0.93690       -3.80150
H         -3.74870       -1.20750       -5.51510
H          2.38810        0.05220        2.94450
H          3.94500       -0.61240        3.40350
H          3.52900        1.02430        0.84870
H          5.05490        0.39460        1.46260
H          4.19930        1.64810        2.36280
H         -0.15170        1.63320        1.10800
H          1.42430        1.22030        1.76050
H          0.42150       -1.05660        2.45310
H         -0.36020        0.32540        3.23630
H         -1.13410       -0.47290        1.86760
H         -4.21720        3.97800       -0.83010
H         -4.50850        5.23350       -6.98230
H         -8.16660        6.58380       -3.75220
H         -8.48180        8.29290       -6.71630
H        -10.46660        6.81120       -6.97110
H         -9.67170        4.39280       -6.37580
H         -7.78040        3.69000       -8.10310
H         -7.41020        5.67610       -9.76440
H         -9.23160        7.58600       -9.23430
H        -10.01910        6.00320       -9.45360
H         -6.64530        7.61260       -8.39770
