
  xtb     02012223143D
 energy: -186.819998873557 gnorm: 0.000728323825 xtb: 6.4.1 (unknown)
 97108  0     0  0            999 V2000
    3.0986    2.7676   -6.3535 C   0  0  0  0  0  0  0  0  0  0  0  0
    4.1249    3.6051   -6.6987 C   0  0  0  0  0  0  0  0  0  0  0  0
    4.7268    4.6065   -5.7867 C   0  0  0  0  0  0  0  0  0  0  0  0
    4.3369    4.9291   -4.6857 O   0  0  0  0  0  0  0  0  0  0  0  0
    5.9762    5.0346   -6.4510 C   0  0  0  0  0  0  0  0  0  0  0  0
    6.9360    5.9384   -6.0253 C   0  0  0  0  0  0  0  0  0  0  0  0
    6.7627    6.7790   -4.5392 Cl  0  0  0  0  0  0  0  0  0  0  0  0
    8.0507    6.1634   -6.8308 C   0  0  0  0  0  0  0  0  0  0  0  0
    8.1923    5.4850   -8.0282 C   0  0  0  0  0  0  0  0  0  0  0  0
    7.2377    4.5749   -8.4673 C   0  0  0  0  0  0  0  0  0  0  0  0
    6.1248    4.3537   -7.6745 C   0  0  0  0  0  0  0  0  0  0  0  0
    4.9691    3.4795   -7.8653 C   0  0  0  0  0  0  0  0  0  0  0  0
    4.6940    2.7419   -8.9871 C   0  0  0  0  0  0  0  0  0  0  0  0
    3.5135    1.9926   -9.1780 C   0  0  0  0  0  0  0  0  0  0  0  0
    2.5657    1.3867   -9.4088 N   0  0  0  0  0  0  0  0  0  0  0  0
    5.5388    2.6596  -10.1132 C   0  0  0  0  0  0  0  0  0  0  0  0
    6.1876    2.5415  -11.0528 N   0  0  0  0  0  0  0  0  0  0  0  0
    2.1858    2.9486   -5.2937 C   0  0  0  0  0  0  0  0  0  0  0  0
    1.5923    4.0977   -4.7800 C   0  0  0  0  0  0  0  0  0  0  0  0
    1.7010    5.4535   -5.3910 C   0  0  0  0  0  0  0  0  0  0  0  0
    0.3344    6.0880   -5.6442 C   0  0  0  0  0  0  0  0  0  0  0  0
    0.7715    3.7888   -3.6856 C   0  0  0  0  0  0  0  0  0  0  0  0
   -0.1528    4.7744   -2.5726 S   0  0  0  0  0  0  0  0  0  0  0  0
   -0.5856    3.3535   -1.6906 C   0  0  0  0  0  0  0  0  0  0  0  0
   -1.3349    2.9871   -0.5594 C   0  0  0  0  0  0  0  0  0  0  0  0
   -2.1989    3.7001    0.3045 C   0  0  0  0  0  0  0  0  0  0  0  0
   -2.9370    2.9816    1.3107 C   0  0  0  0  0  0  0  0  0  0  0  0
   -3.7575    3.7678    1.9883 N   0  0  0  0  0  0  0  0  0  0  0  0
   -3.6130    5.2771    1.4236 S   0  0  0  0  0  0  0  0  0  0  0  0
   -2.4982    4.9889    0.2873 N   0  0  0  0  0  0  0  0  0  0  0  0
   -2.6689    1.6075    1.5150 C   0  0  0  0  0  0  0  0  0  0  0  0
   -3.0783    0.6834    2.4886 C   0  0  0  0  0  0  0  0  0  0  0  0
   -4.1719    0.5892    3.8246 S   0  0  0  0  0  0  0  0  0  0  0  0
   -3.6134   -1.0459    4.1296 C   0  0  0  0  0  0  0  0  0  0  0  0
   -3.9466   -1.9835    5.0944 C   0  0  0  0  0  0  0  0  0  0  0  0
   -4.9988   -1.7460    6.1271 C   0  0  0  0  0  0  0  0  0  0  0  0
   -6.3418   -2.3312    5.6806 C   0  0  0  0  0  0  0  0  0  0  0  0
   -3.2099   -3.1739    4.9282 C   0  0  0  0  0  0  0  0  0  0  0  0
   -2.1044   -3.0869    3.5524 S   0  0  0  0  0  0  0  0  0  0  0  0
   -2.6266   -1.4799    3.2240 C   0  0  0  0  0  0  0  0  0  0  0  0
   -2.3310   -0.4884    2.2885 C   0  0  0  0  0  0  0  0  0  0  0  0
   -1.4921   -0.3332    1.2125 N   0  0  0  0  0  0  0  0  0  0  0  0
   -1.7109    0.9323    0.7094 C   0  0  0  0  0  0  0  0  0  0  0  0
   -1.1807    1.5821   -0.4245 C   0  0  0  0  0  0  0  0  0  0  0  0
   -0.4300    1.0932   -1.4772 N   0  0  0  0  0  0  0  0  0  0  0  0
   -0.0562    2.1753   -2.2354 C   0  0  0  0  0  0  0  0  0  0  0  0
    0.7134    2.4224   -3.3737 C   0  0  0  0  0  0  0  0  0  0  0  0
    1.6428    1.4817   -4.4742 S   0  0  0  0  0  0  0  0  0  0  0  0
   -0.5558   -0.2202   -2.0795 C   0  0  0  0  0  0  0  0  0  0  0  0
   -1.4870   -0.1859   -3.2909 C   0  0  0  0  0  0  0  0  0  0  0  0
   -0.2685   -1.1058    1.1220 C   0  0  0  0  0  0  0  0  0  0  0  0
    0.6141   -0.8871    2.3502 C   0  0  0  0  0  0  0  0  0  0  0  0
   -3.3498   -4.2734    5.7746 C   0  0  0  0  0  0  0  0  0  0  0  0
   -2.7373   -5.5073    5.7672 C   0  0  0  0  0  0  0  0  0  0  0  0
   -1.7536   -5.9780    4.7940 C   0  0  0  0  0  0  0  0  0  0  0  0
   -1.2841   -5.3729    3.8461 O   0  0  0  0  0  0  0  0  0  0  0  0
   -1.4217   -7.3638    5.1874 C   0  0  0  0  0  0  0  0  0  0  0  0
   -0.5493   -8.2430    4.5784 C   0  0  0  0  0  0  0  0  0  0  0  0
   -0.4088   -9.5013    5.1416 C   0  0  0  0  0  0  0  0  0  0  0  0
    0.4255  -10.3877    4.5839 F   0  0  0  0  0  0  0  0  0  0  0  0
   -1.1287   -9.8524    6.2832 C   0  0  0  0  0  0  0  0  0  0  0  0
   -0.9744  -11.0743    6.8058 F   0  0  0  0  0  0  0  0  0  0  0  0
   -2.0047   -8.9672    6.8949 C   0  0  0  0  0  0  0  0  0  0  0  0
   -2.1515   -7.7070    6.3376 C   0  0  0  0  0  0  0  0  0  0  0  0
   -2.9776   -6.5623    6.7290 C   0  0  0  0  0  0  0  0  0  0  0  0
   -3.8059   -6.5301    7.8222 C   0  0  0  0  0  0  0  0  0  0  0  0
   -3.9752   -7.6075    8.7175 C   0  0  0  0  0  0  0  0  0  0  0  0
   -4.1598   -8.4430    9.4825 N   0  0  0  0  0  0  0  0  0  0  0  0
   -4.6021   -5.4373    8.2238 C   0  0  0  0  0  0  0  0  0  0  0  0
   -5.2745   -4.5940    8.6209 N   0  0  0  0  0  0  0  0  0  0  0  0
    3.0061    1.8273   -6.8853 H   0  0  0  0  0  0  0  0  0  0  0  0
    8.8000    6.8691   -6.5095 H   0  0  0  0  0  0  0  0  0  0  0  0
    9.0653    5.6661   -8.6364 H   0  0  0  0  0  0  0  0  0  0  0  0
    7.3765    4.0569   -9.4017 H   0  0  0  0  0  0  0  0  0  0  0  0
    2.2868    6.0895   -4.7215 H   0  0  0  0  0  0  0  0  0  0  0  0
    2.2438    5.3785   -6.3348 H   0  0  0  0  0  0  0  0  0  0  0  0
   -0.2760    5.4382   -6.2679 H   0  0  0  0  0  0  0  0  0  0  0  0
   -0.1936    6.2749   -4.7136 H   0  0  0  0  0  0  0  0  0  0  0  0
    0.4646    7.0363   -6.1592 H   0  0  0  0  0  0  0  0  0  0  0  0
   -5.1077   -0.6680    6.2607 H   0  0  0  0  0  0  0  0  0  0  0  0
   -4.7149   -2.1823    7.0858 H   0  0  0  0  0  0  0  0  0  0  0  0
   -6.6612   -1.8757    4.7462 H   0  0  0  0  0  0  0  0  0  0  0  0
   -6.2654   -3.4061    5.5352 H   0  0  0  0  0  0  0  0  0  0  0  0
   -7.0954   -2.1394    6.4388 H   0  0  0  0  0  0  0  0  0  0  0  0
   -0.9736   -0.9080   -1.3466 H   0  0  0  0  0  0  0  0  0  0  0  0
    0.4377   -0.5641   -2.3843 H   0  0  0  0  0  0  0  0  0  0  0  0
   -2.4635    0.1981   -3.0033 H   0  0  0  0  0  0  0  0  0  0  0  0
   -1.0826    0.4419   -4.0796 H   0  0  0  0  0  0  0  0  0  0  0  0
   -1.6088   -1.1921   -3.6815 H   0  0  0  0  0  0  0  0  0  0  0  0
   -0.5309   -2.1648    1.0392 H   0  0  0  0  0  0  0  0  0  0  0  0
    0.2882   -0.7940    0.2408 H   0  0  0  0  0  0  0  0  0  0  0  0
    0.8439    0.1702    2.4657 H   0  0  0  0  0  0  0  0  0  0  0  0
    1.5436   -1.4356    2.2276 H   0  0  0  0  0  0  0  0  0  0  0  0
    0.1238   -1.2411    3.2522 H   0  0  0  0  0  0  0  0  0  0  0  0
   -4.0685   -4.1131    6.5663 H   0  0  0  0  0  0  0  0  0  0  0  0
    0.0051   -7.9666    3.6958 H   0  0  0  0  0  0  0  0  0  0  0  0
   -2.5362   -9.2896    7.7749 H   0  0  0  0  0  0  0  0  0  0  0  0
  1  2  2  0  0  0  0
  2  3  1  0  0  0  0
  3  4  2  0  0  0  0
  3  5  1  0  0  0  0
  5  6  2  0  0  0  0
  6  7  1  0  0  0  0
  6  8  1  0  0  0  0
  8  9  2  0  0  0  0
  9 10  1  0  0  0  0
 10 11  2  0  0  0  0
 11 12  1  0  0  0  0
 12 13  2  0  0  0  0
 13 14  1  0  0  0  0
 14 15  3  0  0  0  0
 13 16  1  0  0  0  0
 16 17  3  0  0  0  0
  1 18  1  0  0  0  0
 18 19  2  0  0  0  0
 19 20  1  0  0  0  0
 20 21  1  0  0  0  0
 19 22  1  0  0  0  0
 22 23  1  0  0  0  0
 23 24  1  0  0  0  0
 24 25  1  0  0  0  0
 25 26  1  0  0  0  0
 26 27  1  0  0  0  0
 27 28  2  0  0  0  0
 28 29  1  0  0  0  0
 29 30  1  0  0  0  0
 27 31  1  0  0  0  0
 31 32  1  0  0  0  0
 32 33  1  0  0  0  0
 33 34  1  0  0  0  0
 34 35  1  0  0  0  0
 35 36  1  0  0  0  0
 36 37  1  0  0  0  0
 35 38  2  0  0  0  0
 38 39  1  0  0  0  0
 39 40  1  0  0  0  0
 40 41  1  0  0  0  0
 41 42  1  0  0  0  0
 42 43  1  0  0  0  0
 43 44  1  0  0  0  0
 44 45  1  0  0  0  0
 45 46  1  0  0  0  0
 46 47  1  0  0  0  0
 47 48  1  0  0  0  0
 45 49  1  0  0  0  0
 49 50  1  0  0  0  0
 42 51  1  0  0  0  0
 51 52  1  0  0  0  0
 38 53  1  0  0  0  0
 53 54  2  0  0  0  0
 54 55  1  0  0  0  0
 55 56  2  0  0  0  0
 55 57  1  0  0  0  0
 57 58  2  0  0  0  0
 58 59  1  0  0  0  0
 59 60  1  0  0  0  0
 59 61  2  0  0  0  0
 61 62  1  0  0  0  0
 61 63  1  0  0  0  0
 63 64  2  0  0  0  0
 64 65  1  0  0  0  0
 65 66  2  0  0  0  0
 66 67  1  0  0  0  0
 67 68  3  0  0  0  0
 66 69  1  0  0  0  0
 69 70  3  0  0  0  0
 12  2  1  0  0  0  0
 48 18  1  0  0  0  0
 65 54  1  0  0  0  0
 11  5  1  0  0  0  0
 47 22  2  0  0  0  0
 64 57  1  0  0  0  0
 46 24  2  0  0  0  0
 44 25  2  0  0  0  0
 30 26  2  0  0  0  0
 43 31  2  0  0  0  0
 41 32  2  0  0  0  0
 40 34  2  0  0  0  0
  1 71  1  0  0  0  0
  8 72  1  0  0  0  0
  9 73  1  0  0  0  0
 10 74  1  0  0  0  0
 20 75  1  0  0  0  0
 20 76  1  0  0  0  0
 21 77  1  0  0  0  0
 21 78  1  0  0  0  0
 21 79  1  0  0  0  0
 36 80  1  0  0  0  0
 36 81  1  0  0  0  0
 37 82  1  0  0  0  0
 37 83  1  0  0  0  0
 37 84  1  0  0  0  0
 49 85  1  0  0  0  0
 49 86  1  0  0  0  0
 50 87  1  0  0  0  0
 50 88  1  0  0  0  0
 50 89  1  0  0  0  0
 51 90  1  0  0  0  0
 51 91  1  0  0  0  0
 52 92  1  0  0  0  0
 52 93  1  0  0  0  0
 52 94  1  0  0  0  0
 53 95  1  0  0  0  0
 58 96  1  0  0  0  0
 63 97  1  0  0  0  0
M  END
