90

C          4.06270        4.69210       -1.44160
C          5.00390        5.09680       -2.34530
C          5.49740        4.37990       -3.54840
O          5.32070        3.22280       -3.85940
C          6.26220        5.38170       -4.31740
C          6.87140        5.26060       -5.55700
Cl         6.81900        3.78600       -6.43120
C          7.53060        6.36640       -6.09000
C          7.56860        7.55860       -5.38880
C          6.96590        7.69180       -4.14350
C          6.31340        6.59490       -3.60620
C          5.60280        6.42260       -2.34080
C          5.58400        7.33320       -1.31890
C          4.99120        7.14360       -0.05060
N          4.55980        7.06980        1.01090
C          6.20750        8.59920       -1.37200
N          6.68500        9.64230       -1.34460
C          3.36650        3.47300       -1.29410
C          3.49110        2.23440       -1.89820
C          2.55180        1.32950       -1.41480
S          2.22780       -0.33940       -1.77030
C          0.93020       -0.34540       -0.59360
C          0.13780       -1.44980       -0.31430
C          0.32860       -2.72200       -0.99220
C         -0.58840       -3.44210       -1.69820
C         -0.05070       -4.64350       -2.21040
Cl        -0.98860       -5.74600       -3.13930
C          1.25940       -4.85450       -1.89170
C          2.14320       -5.98610       -2.28290
C          3.00800       -5.61430       -3.48980
S          1.86680       -3.53160       -0.95880
C         -0.86190       -1.28720        0.65910
C         -1.03730       -0.03580        1.30570
C         -0.26320        1.07660        1.00600
C         -0.47970        2.35770        1.65840
S         -0.44270        2.49780        3.39100
C         -0.74660        4.19830        3.32100
C         -0.88170        5.00440        4.56460
C         -2.27560        4.83910        5.17490
C         -0.88160        4.59950        2.02350
C         -0.72360        3.56520        1.07490
Cl        -1.19960        6.22590        1.56370
C          0.74270        0.91150        0.03910
C          1.69200        1.84680       -0.44160
S          2.06670        3.48470       -0.09700
S         -2.34000       -0.04190        2.47720
C         -2.65100       -1.71610        2.13430
C         -3.57410       -2.62950        2.63350
C         -3.43140       -3.87390        2.04560
S         -2.10900       -3.89230        0.87400
C         -1.79020       -2.23190        1.16150
C         -4.11970       -5.09740        2.19550
C         -5.27040       -5.41530        2.85900
C         -6.22080       -4.50440        3.54590
O         -6.06430       -3.34130        3.84430
C         -7.42950       -5.31450        3.79700
C         -8.64760       -4.93240        4.33780
Cl        -8.92610       -3.31740        4.84340
C         -9.65440       -5.88760        4.46190
C         -9.43330       -7.18960        4.04890
C         -8.21560       -7.58670        3.50940
C         -7.20970       -6.64290        3.38690
C         -5.84690       -6.75090        2.87080
C         -5.22260       -7.92150        2.53370
C         -3.87490       -8.05460        2.13140
N         -2.78910       -8.26000        1.81960
C         -5.83650       -9.19230        2.58560
N         -6.27020      -10.25470        2.59790
H          3.75040        5.43610       -0.71740
H          8.00720        6.28270       -7.05370
H          8.07870        8.40680       -5.81890
H          7.00890        8.63450       -3.62450
H          4.22400        2.01480       -2.65160
H         -1.59710       -3.12040       -1.88020
H          2.78860       -6.25160       -1.44330
H          1.52000       -6.84800       -2.52810
H          3.64880       -6.44890       -3.76110
H          3.63270       -4.75500       -3.25670
H          2.38010       -5.36580       -4.34200
H         -0.70830        6.05430        4.32160
H         -0.12930        4.68660        5.28910
H         -2.36000        5.43460        6.07990
H         -3.03710        5.16550        4.47090
H         -2.45760        3.79610        5.42420
H         -0.82450        3.71360        0.01560
H         -4.31600       -2.40810        3.37740
H         -3.65450       -5.90380        1.63970
H        -10.60580       -5.60020        4.88030
H        -10.22600       -7.91530        4.14750
H         -8.07570       -8.60640        3.19230
