
  xtb     01262217093D
 energy: -179.947613675672 gnorm: 0.000261729782 xtb: 6.4.1 (unknown)
 90100  0     0  0            999 V2000
    4.0627    4.6921   -1.4416 C   0  0  0  0  0  0  0  0  0  0  0  0
    5.0039    5.0968   -2.3453 C   0  0  0  0  0  0  0  0  0  0  0  0
    5.4974    4.3799   -3.5484 C   0  0  0  0  0  0  0  0  0  0  0  0
    5.3207    3.2228   -3.8594 O   0  0  0  0  0  0  0  0  0  0  0  0
    6.2622    5.3817   -4.3174 C   0  0  0  0  0  0  0  0  0  0  0  0
    6.8714    5.2606   -5.5570 C   0  0  0  0  0  0  0  0  0  0  0  0
    6.8190    3.7860   -6.4312 Cl  0  0  0  0  0  0  0  0  0  0  0  0
    7.5306    6.3664   -6.0900 C   0  0  0  0  0  0  0  0  0  0  0  0
    7.5686    7.5586   -5.3888 C   0  0  0  0  0  0  0  0  0  0  0  0
    6.9659    7.6918   -4.1435 C   0  0  0  0  0  0  0  0  0  0  0  0
    6.3134    6.5949   -3.6062 C   0  0  0  0  0  0  0  0  0  0  0  0
    5.6028    6.4226   -2.3408 C   0  0  0  0  0  0  0  0  0  0  0  0
    5.5840    7.3332   -1.3189 C   0  0  0  0  0  0  0  0  0  0  0  0
    4.9912    7.1436   -0.0506 C   0  0  0  0  0  0  0  0  0  0  0  0
    4.5598    7.0698    1.0109 N   0  0  0  0  0  0  0  0  0  0  0  0
    6.2075    8.5992   -1.3720 C   0  0  0  0  0  0  0  0  0  0  0  0
    6.6850    9.6423   -1.3446 N   0  0  0  0  0  0  0  0  0  0  0  0
    3.3665    3.4730   -1.2941 C   0  0  0  0  0  0  0  0  0  0  0  0
    3.4911    2.2344   -1.8982 C   0  0  0  0  0  0  0  0  0  0  0  0
    2.5518    1.3295   -1.4148 C   0  0  0  0  0  0  0  0  0  0  0  0
    2.2278   -0.3394   -1.7703 S   0  0  0  0  0  0  0  0  0  0  0  0
    0.9302   -0.3454   -0.5936 C   0  0  0  0  0  0  0  0  0  0  0  0
    0.1378   -1.4498   -0.3143 C   0  0  0  0  0  0  0  0  0  0  0  0
    0.3286   -2.7220   -0.9922 C   0  0  0  0  0  0  0  0  0  0  0  0
   -0.5884   -3.4421   -1.6982 C   0  0  0  0  0  0  0  0  0  0  0  0
   -0.0507   -4.6435   -2.2104 C   0  0  0  0  0  0  0  0  0  0  0  0
   -0.9886   -5.7460   -3.1393 Cl  0  0  0  0  0  0  0  0  0  0  0  0
    1.2594   -4.8545   -1.8917 C   0  0  0  0  0  0  0  0  0  0  0  0
    2.1432   -5.9861   -2.2829 C   0  0  0  0  0  0  0  0  0  0  0  0
    3.0080   -5.6143   -3.4898 C   0  0  0  0  0  0  0  0  0  0  0  0
    1.8668   -3.5316   -0.9588 S   0  0  0  0  0  0  0  0  0  0  0  0
   -0.8619   -1.2872    0.6591 C   0  0  0  0  0  0  0  0  0  0  0  0
   -1.0373   -0.0358    1.3057 C   0  0  0  0  0  0  0  0  0  0  0  0
   -0.2632    1.0766    1.0060 C   0  0  0  0  0  0  0  0  0  0  0  0
   -0.4797    2.3577    1.6584 C   0  0  0  0  0  0  0  0  0  0  0  0
   -0.4427    2.4978    3.3910 S   0  0  0  0  0  0  0  0  0  0  0  0
   -0.7466    4.1983    3.3210 C   0  0  0  0  0  0  0  0  0  0  0  0
   -0.8817    5.0044    4.5646 C   0  0  0  0  0  0  0  0  0  0  0  0
   -2.2756    4.8391    5.1749 C   0  0  0  0  0  0  0  0  0  0  0  0
   -0.8816    4.5995    2.0235 C   0  0  0  0  0  0  0  0  0  0  0  0
   -0.7236    3.5652    1.0749 C   0  0  0  0  0  0  0  0  0  0  0  0
   -1.1996    6.2259    1.5637 Cl  0  0  0  0  0  0  0  0  0  0  0  0
    0.7427    0.9115    0.0391 C   0  0  0  0  0  0  0  0  0  0  0  0
    1.6920    1.8468   -0.4416 C   0  0  0  0  0  0  0  0  0  0  0  0
    2.0667    3.4847   -0.0970 S   0  0  0  0  0  0  0  0  0  0  0  0
   -2.3400   -0.0419    2.4772 S   0  0  0  0  0  0  0  0  0  0  0  0
   -2.6510   -1.7161    2.1343 C   0  0  0  0  0  0  0  0  0  0  0  0
   -3.5741   -2.6295    2.6335 C   0  0  0  0  0  0  0  0  0  0  0  0
   -3.4314   -3.8739    2.0456 C   0  0  0  0  0  0  0  0  0  0  0  0
   -2.1090   -3.8923    0.8740 S   0  0  0  0  0  0  0  0  0  0  0  0
   -1.7902   -2.2319    1.1615 C   0  0  0  0  0  0  0  0  0  0  0  0
   -4.1197   -5.0974    2.1955 C   0  0  0  0  0  0  0  0  0  0  0  0
   -5.2704   -5.4153    2.8590 C   0  0  0  0  0  0  0  0  0  0  0  0
   -6.2208   -4.5044    3.5459 C   0  0  0  0  0  0  0  0  0  0  0  0
   -6.0643   -3.3413    3.8443 O   0  0  0  0  0  0  0  0  0  0  0  0
   -7.4295   -5.3145    3.7970 C   0  0  0  0  0  0  0  0  0  0  0  0
   -8.6476   -4.9324    4.3378 C   0  0  0  0  0  0  0  0  0  0  0  0
   -8.9261   -3.3174    4.8434 Cl  0  0  0  0  0  0  0  0  0  0  0  0
   -9.6544   -5.8876    4.4619 C   0  0  0  0  0  0  0  0  0  0  0  0
   -9.4333   -7.1896    4.0489 C   0  0  0  0  0  0  0  0  0  0  0  0
   -8.2156   -7.5867    3.5094 C   0  0  0  0  0  0  0  0  0  0  0  0
   -7.2097   -6.6429    3.3869 C   0  0  0  0  0  0  0  0  0  0  0  0
   -5.8469   -6.7509    2.8708 C   0  0  0  0  0  0  0  0  0  0  0  0
   -5.2226   -7.9215    2.5337 C   0  0  0  0  0  0  0  0  0  0  0  0
   -3.8749   -8.0546    2.1314 C   0  0  0  0  0  0  0  0  0  0  0  0
   -2.7891   -8.2600    1.8196 N   0  0  0  0  0  0  0  0  0  0  0  0
   -5.8365   -9.1923    2.5856 C   0  0  0  0  0  0  0  0  0  0  0  0
   -6.2702  -10.2547    2.5979 N   0  0  0  0  0  0  0  0  0  0  0  0
    3.7504    5.4361   -0.7174 H   0  0  0  0  0  0  0  0  0  0  0  0
    8.0072    6.2827   -7.0537 H   0  0  0  0  0  0  0  0  0  0  0  0
    8.0787    8.4068   -5.8189 H   0  0  0  0  0  0  0  0  0  0  0  0
    7.0089    8.6345   -3.6245 H   0  0  0  0  0  0  0  0  0  0  0  0
    4.2240    2.0148   -2.6516 H   0  0  0  0  0  0  0  0  0  0  0  0
   -1.5971   -3.1204   -1.8802 H   0  0  0  0  0  0  0  0  0  0  0  0
    2.7886   -6.2516   -1.4433 H   0  0  0  0  0  0  0  0  0  0  0  0
    1.5200   -6.8480   -2.5281 H   0  0  0  0  0  0  0  0  0  0  0  0
    3.6488   -6.4489   -3.7611 H   0  0  0  0  0  0  0  0  0  0  0  0
    3.6327   -4.7550   -3.2567 H   0  0  0  0  0  0  0  0  0  0  0  0
    2.3801   -5.3658   -4.3420 H   0  0  0  0  0  0  0  0  0  0  0  0
   -0.7083    6.0543    4.3216 H   0  0  0  0  0  0  0  0  0  0  0  0
   -0.1293    4.6866    5.2891 H   0  0  0  0  0  0  0  0  0  0  0  0
   -2.3600    5.4346    6.0799 H   0  0  0  0  0  0  0  0  0  0  0  0
   -3.0371    5.1655    4.4709 H   0  0  0  0  0  0  0  0  0  0  0  0
   -2.4576    3.7961    5.4242 H   0  0  0  0  0  0  0  0  0  0  0  0
   -0.8245    3.7136    0.0156 H   0  0  0  0  0  0  0  0  0  0  0  0
   -4.3160   -2.4081    3.3774 H   0  0  0  0  0  0  0  0  0  0  0  0
   -3.6545   -5.9038    1.6397 H   0  0  0  0  0  0  0  0  0  0  0  0
  -10.6058   -5.6002    4.8803 H   0  0  0  0  0  0  0  0  0  0  0  0
  -10.2260   -7.9153    4.1475 H   0  0  0  0  0  0  0  0  0  0  0  0
   -8.0757   -8.6064    3.1923 H   0  0  0  0  0  0  0  0  0  0  0  0
  1  2  2  0  0  0  0
  2  3  1  0  0  0  0
  3  4  2  0  0  0  0
  3  5  1  0  0  0  0
  5  6  2  0  0  0  0
  6  7  1  0  0  0  0
  6  8  1  0  0  0  0
  8  9  2  0  0  0  0
  9 10  1  0  0  0  0
 10 11  2  0  0  0  0
 11 12  1  0  0  0  0
 12 13  2  0  0  0  0
 13 14  1  0  0  0  0
 14 15  3  0  0  0  0
 13 16  1  0  0  0  0
 16 17  3  0  0  0  0
  1 18  1  0  0  0  0
 18 19  2  0  0  0  0
 19 20  1  0  0  0  0
 20 21  1  0  0  0  0
 21 22  1  0  0  0  0
 22 23  2  0  0  0  0
 23 24  1  0  0  0  0
 24 25  2  0  0  0  0
 25 26  1  0  0  0  0
 26 27  1  0  0  0  0
 26 28  2  0  0  0  0
 28 29  1  0  0  0  0
 29 30  1  0  0  0  0
 28 31  1  0  0  0  0
 23 32  1  0  0  0  0
 32 33  2  0  0  0  0
 33 34  1  0  0  0  0
 34 35  1  0  0  0  0
 35 36  1  0  0  0  0
 36 37  1  0  0  0  0
 37 38  1  0  0  0  0
 38 39  1  0  0  0  0
 37 40  2  0  0  0  0
 40 41  1  0  0  0  0
 40 42  1  0  0  0  0
 34 43  2  0  0  0  0
 43 44  1  0  0  0  0
 44 45  1  0  0  0  0
 33 46  1  0  0  0  0
 46 47  1  0  0  0  0
 47 48  1  0  0  0  0
 48 49  2  0  0  0  0
 49 50  1  0  0  0  0
 50 51  1  0  0  0  0
 49 52  1  0  0  0  0
 52 53  2  0  0  0  0
 53 54  1  0  0  0  0
 54 55  2  0  0  0  0
 54 56  1  0  0  0  0
 56 57  2  0  0  0  0
 57 58  1  0  0  0  0
 57 59  1  0  0  0  0
 59 60  2  0  0  0  0
 60 61  1  0  0  0  0
 61 62  2  0  0  0  0
 62 63  1  0  0  0  0
 63 64  2  0  0  0  0
 64 65  1  0  0  0  0
 65 66  3  0  0  0  0
 64 67  1  0  0  0  0
 67 68  3  0  0  0  0
 12  2  1  0  0  0  0
 45 18  1  0  0  0  0
 51 47  2  0  0  0  0
 63 53  1  0  0  0  0
 11  5  1  0  0  0  0
 44 20  2  0  0  0  0
 62 56  1  0  0  0  0
 43 22  1  0  0  0  0
 31 24  1  0  0  0  0
 51 32  1  0  0  0  0
 41 35  2  0  0  0  0
  1 69  1  0  0  0  0
  8 70  1  0  0  0  0
  9 71  1  0  0  0  0
 10 72  1  0  0  0  0
 19 73  1  0  0  0  0
 25 74  1  0  0  0  0
 29 75  1  0  0  0  0
 29 76  1  0  0  0  0
 30 77  1  0  0  0  0
 30 78  1  0  0  0  0
 30 79  1  0  0  0  0
 38 80  1  0  0  0  0
 38 81  1  0  0  0  0
 39 82  1  0  0  0  0
 39 83  1  0  0  0  0
 39 84  1  0  0  0  0
 41 85  1  0  0  0  0
 48 86  1  0  0  0  0
 52 87  1  0  0  0  0
 59 88  1  0  0  0  0
 60 89  1  0  0  0  0
 61 90  1  0  0  0  0
M  END
