
  xtb     02022212343D
 energy: -177.187017348181 gnorm: 0.000648311810 xtb: 6.4.1 (unknown)
 89100  0     0  0            999 V2000
   -3.0824    4.1696   -4.9807 C   0  0  0  0  0  0  0  0  0  0  0  0
   -2.9477    5.4093   -4.4055 C   0  0  0  0  0  0  0  0  0  0  0  0
   -2.2456    5.6904   -3.1546 C   0  0  0  0  0  0  0  0  0  0  0  0
   -1.6957    4.8740   -2.4217 O   0  0  0  0  0  0  0  0  0  0  0  0
   -2.3233    7.1356   -2.9462 C   0  0  0  0  0  0  0  0  0  0  0  0
   -1.8098    7.9115   -1.9192 C   0  0  0  0  0  0  0  0  0  0  0  0
   -2.0188    9.2739   -1.9543 C   0  0  0  0  0  0  0  0  0  0  0  0
   -2.7349    9.8677   -3.0046 C   0  0  0  0  0  0  0  0  0  0  0  0
   -2.8733   11.2052   -2.9292 O   0  0  0  0  0  0  0  0  0  0  0  0
   -3.5870   11.8853   -3.9404 C   0  0  0  0  0  0  0  0  0  0  0  0
   -3.2527    9.0835   -4.0409 C   0  0  0  0  0  0  0  0  0  0  0  0
   -3.0434    7.7172   -4.0043 C   0  0  0  0  0  0  0  0  0  0  0  0
   -3.4581    6.6602   -4.9301 C   0  0  0  0  0  0  0  0  0  0  0  0
   -4.2029    6.8503   -6.0649 C   0  0  0  0  0  0  0  0  0  0  0  0
   -4.6208    5.8407   -6.9577 C   0  0  0  0  0  0  0  0  0  0  0  0
   -5.0047    5.0846   -7.7325 N   0  0  0  0  0  0  0  0  0  0  0  0
   -4.6708    8.1075   -6.5012 C   0  0  0  0  0  0  0  0  0  0  0  0
   -5.0787    9.1013   -6.9072 N   0  0  0  0  0  0  0  0  0  0  0  0
   -2.6331    2.9119   -4.5541 C   0  0  0  0  0  0  0  0  0  0  0  0
   -2.8815    1.7675   -5.3161 C   0  0  0  0  0  0  0  0  0  0  0  0
   -2.3916    0.5897   -4.7845 C   0  0  0  0  0  0  0  0  0  0  0  0
   -2.4602   -1.0532   -5.3986 S   0  0  0  0  0  0  0  0  0  0  0  0
   -1.5875   -1.5766   -4.0020 C   0  0  0  0  0  0  0  0  0  0  0  0
   -1.0373   -2.7470   -3.4694 C   0  0  0  0  0  0  0  0  0  0  0  0
   -0.9794   -4.0523   -4.0053 C   0  0  0  0  0  0  0  0  0  0  0  0
   -0.2640   -5.0612   -3.2864 C   0  0  0  0  0  0  0  0  0  0  0  0
   -0.2534   -6.2243   -3.9184 N   0  0  0  0  0  0  0  0  0  0  0  0
   -1.0797   -6.0616   -5.3009 S   0  0  0  0  0  0  0  0  0  0  0  0
   -1.4795   -4.5014   -5.1457 N   0  0  0  0  0  0  0  0  0  0  0  0
    0.2859   -4.7364   -2.0268 C   0  0  0  0  0  0  0  0  0  0  0  0
    0.9212   -5.5529   -1.0849 C   0  0  0  0  0  0  0  0  0  0  0  0
    1.1701   -4.7570    0.0412 C   0  0  0  0  0  0  0  0  0  0  0  0
    0.7221   -3.4833   -0.1828 N   0  0  0  0  0  0  0  0  0  0  0  0
    0.7263   -2.5516    0.9191 C   0  0  0  0  0  0  0  0  0  0  0  0
    2.1083   -1.9374    1.1408 C   0  0  0  0  0  0  0  0  0  0  0  0
    0.1824   -3.4301   -1.4561 C   0  0  0  0  0  0  0  0  0  0  0  0
   -0.4204   -2.3981   -2.2266 C   0  0  0  0  0  0  0  0  0  0  0  0
   -0.5701   -1.0345   -2.0525 N   0  0  0  0  0  0  0  0  0  0  0  0
   -1.2780   -0.5404   -3.1136 C   0  0  0  0  0  0  0  0  0  0  0  0
   -1.7225    0.7114   -3.5487 C   0  0  0  0  0  0  0  0  0  0  0  0
   -1.6706    2.4888   -2.9751 Se  0  0  0  0  0  2  0  0  0  0  0  0
   -0.0194   -0.0993   -1.1011 C   0  0  0  0  0  0  0  0  0  0  0  0
   -1.0634    0.3682   -0.0869 C   0  0  0  0  0  0  0  0  0  0  0  0
    1.7336   -5.4816    1.0924 C   0  0  0  0  0  0  0  0  0  0  0  0
    1.9147   -6.8345    0.7397 C   0  0  0  0  0  0  0  0  0  0  0  0
    1.3941   -7.2010   -0.8908 S   0  0  0  0  0  0  0  0  0  0  0  0
    2.4555   -7.6504    1.7235 C   0  0  0  0  0  0  0  0  0  0  0  0
    2.6906   -7.0225    2.9387 C   0  0  0  0  0  0  0  0  0  0  0  0
    2.2804   -5.1695    2.8440 Se  0  0  0  0  0  2  0  0  0  0  0  0
    3.2745   -7.6478    4.0550 C   0  0  0  0  0  0  0  0  0  0  0  0
    3.3701   -7.2192    5.3506 C   0  0  0  0  0  0  0  0  0  0  0  0
    4.4329   -7.7683    6.2260 C   0  0  0  0  0  0  0  0  0  0  0  0
    5.1278   -8.7353    6.0171 O   0  0  0  0  0  0  0  0  0  0  0  0
    4.4972   -6.8384    7.3800 C   0  0  0  0  0  0  0  0  0  0  0  0
    5.3901   -6.8297    8.4328 C   0  0  0  0  0  0  0  0  0  0  0  0
    5.2567   -5.8279    9.3816 C   0  0  0  0  0  0  0  0  0  0  0  0
    6.1030   -5.7802   10.4177 F   0  0  0  0  0  0  0  0  0  0  0  0
    4.2525   -4.8663    9.2678 C   0  0  0  0  0  0  0  0  0  0  0  0
    4.1584   -3.9025   10.1909 F   0  0  0  0  0  0  0  0  0  0  0  0
    3.3470   -4.8808    8.2170 C   0  0  0  0  0  0  0  0  0  0  0  0
    3.4748   -5.8798    7.2666 C   0  0  0  0  0  0  0  0  0  0  0  0
    2.6682   -6.1960    6.0871 C   0  0  0  0  0  0  0  0  0  0  0  0
    1.3610   -5.8146    5.9052 C   0  0  0  0  0  0  0  0  0  0  0  0
    0.5116   -6.4240    4.9583 C   0  0  0  0  0  0  0  0  0  0  0  0
   -0.2183   -6.9254    4.2270 N   0  0  0  0  0  0  0  0  0  0  0  0
    0.7007   -4.8584    6.7008 C   0  0  0  0  0  0  0  0  0  0  0  0
    0.1294   -4.0621    7.2985 N   0  0  0  0  0  0  0  0  0  0  0  0
   -3.6183    4.1280   -5.9224 H   0  0  0  0  0  0  0  0  0  0  0  0
   -1.2602    7.4488   -1.1146 H   0  0  0  0  0  0  0  0  0  0  0  0
   -1.6388    9.9186   -1.1780 H   0  0  0  0  0  0  0  0  0  0  0  0
   -3.1117   11.7639   -4.9178 H   0  0  0  0  0  0  0  0  0  0  0  0
   -3.5647   12.9355   -3.6556 H   0  0  0  0  0  0  0  0  0  0  0  0
   -4.6250   11.5458   -3.9960 H   0  0  0  0  0  0  0  0  0  0  0  0
   -3.8004    9.5369   -4.8481 H   0  0  0  0  0  0  0  0  0  0  0  0
   -3.4173    1.8145   -6.2492 H   0  0  0  0  0  0  0  0  0  0  0  0
   -0.0336   -1.7924    0.7615 H   0  0  0  0  0  0  0  0  0  0  0  0
    0.4475   -3.1149    1.8207 H   0  0  0  0  0  0  0  0  0  0  0  0
    2.8103   -2.7027    1.4704 H   0  0  0  0  0  0  0  0  0  0  0  0
    2.0522   -1.1704    1.9080 H   0  0  0  0  0  0  0  0  0  0  0  0
    2.5025   -1.4969    0.2272 H   0  0  0  0  0  0  0  0  0  0  0  0
    0.8508   -0.5364   -0.6194 H   0  0  0  0  0  0  0  0  0  0  0  0
    0.3210    0.7773   -1.6696 H   0  0  0  0  0  0  0  0  0  0  0  0
   -1.5818   -0.4704    0.3737 H   0  0  0  0  0  0  0  0  0  0  0  0
   -0.5850    0.9600    0.6882 H   0  0  0  0  0  0  0  0  0  0  0  0
   -1.8087    0.9916   -0.5796 H   0  0  0  0  0  0  0  0  0  0  0  0
    2.6388   -8.7015    1.5820 H   0  0  0  0  0  0  0  0  0  0  0  0
    3.8059   -8.5720    3.8441 H   0  0  0  0  0  0  0  0  0  0  0  0
    6.1653   -7.5740    8.5211 H   0  0  0  0  0  0  0  0  0  0  0  0
    2.5874   -4.1176    8.1680 H   0  0  0  0  0  0  0  0  0  0  0  0
  1  2  2  0  0  0  0
  2  3  1  0  0  0  0
  3  4  2  0  0  0  0
  3  5  1  0  0  0  0
  5  6  2  0  0  0  0
  6  7  1  0  0  0  0
  7  8  2  0  0  0  0
  8  9  1  0  0  0  0
  9 10  1  0  0  0  0
  8 11  1  0  0  0  0
 11 12  2  0  0  0  0
 12 13  1  0  0  0  0
 13 14  2  0  0  0  0
 14 15  1  0  0  0  0
 15 16  3  0  0  0  0
 14 17  1  0  0  0  0
 17 18  3  0  0  0  0
  1 19  1  0  0  0  0
 19 20  2  0  0  0  0
 20 21  1  0  0  0  0
 21 22  1  0  0  0  0
 22 23  1  0  0  0  0
 23 24  1  0  0  0  0
 24 25  1  0  0  0  0
 25 26  1  0  0  0  0
 26 27  2  0  0  0  0
 27 28  1  0  0  0  0
 28 29  1  0  0  0  0
 26 30  1  0  0  0  0
 30 31  1  0  0  0  0
 31 32  2  0  0  0  0
 32 33  1  0  0  0  0
 33 34  1  0  0  0  0
 34 35  1  0  0  0  0
 33 36  1  0  0  0  0
 36 37  1  0  0  0  0
 37 38  1  0  0  0  0
 38 39  1  0  0  0  0
 39 40  1  0  0  0  0
 40 41  1  0  0  0  0
 38 42  1  0  0  0  0
 42 43  1  0  0  0  0
 32 44  1  0  0  0  0
 44 45  2  0  0  0  0
 45 46  1  0  0  0  0
 45 47  1  0  0  0  0
 47 48  2  0  0  0  0
 48 49  1  0  0  0  0
 48 50  1  0  0  0  0
 50 51  2  0  0  0  0
 51 52  1  0  0  0  0
 52 53  2  0  0  0  0
 52 54  1  0  0  0  0
 54 55  2  0  0  0  0
 55 56  1  0  0  0  0
 56 57  1  0  0  0  0
 56 58  2  0  0  0  0
 58 59  1  0  0  0  0
 58 60  1  0  0  0  0
 60 61  2  0  0  0  0
 61 62  1  0  0  0  0
 62 63  2  0  0  0  0
 63 64  1  0  0  0  0
 64 65  3  0  0  0  0
 63 66  1  0  0  0  0
 66 67  3  0  0  0  0
 13  2  1  0  0  0  0
 41 19  1  0  0  0  0
 49 44  1  0  0  0  0
 62 51  1  0  0  0  0
 12  5  1  0  0  0  0
 40 21  2  0  0  0  0
 61 54  1  0  0  0  0
 39 23  2  0  0  0  0
 37 24  2  0  0  0  0
 29 25  2  0  0  0  0
 36 30  2  0  0  0  0
 46 31  1  0  0  0  0
  1 68  1  0  0  0  0
  6 69  1  0  0  0  0
  7 70  1  0  0  0  0
 10 71  1  0  0  0  0
 10 72  1  0  0  0  0
 10 73  1  0  0  0  0
 11 74  1  0  0  0  0
 20 75  1  0  0  0  0
 34 76  1  0  0  0  0
 34 77  1  0  0  0  0
 35 78  1  0  0  0  0
 35 79  1  0  0  0  0
 35 80  1  0  0  0  0
 42 81  1  0  0  0  0
 42 82  1  0  0  0  0
 43 83  1  0  0  0  0
 43 84  1  0  0  0  0
 43 85  1  0  0  0  0
 47 86  1  0  0  0  0
 50 87  1  0  0  0  0
 55 88  1  0  0  0  0
 60 89  1  0  0  0  0
M  END
