83

C         -1.32110        6.07580        1.78080
C         -2.50020        6.66630        1.43680
C         -2.58420        8.15850        1.48170
O         -1.77720        8.90470        1.98720
C         -3.81080        8.49900        0.74820
C         -4.31620        9.74120        0.39890
C         -5.49520        9.79870       -0.31410
C         -6.17180        8.62810       -0.68990
O         -7.31050        8.81380       -1.38680
C         -8.06850        7.69010       -1.78140
C         -5.66170        7.37480       -0.34030
C         -4.48600        7.32080        0.38670
C         -3.76080        6.17350        0.93600
C         -4.31340        4.93580        1.15150
C         -5.58830        4.55260        0.68970
N         -6.60400        4.17350        0.30960
C         -3.71840        3.91530        1.91850
N         -3.30720        3.04710        2.54740
C         -0.83540        4.77710        1.51960
S          0.54520        4.21030        2.46180
C          0.51450        2.71890        1.62710
C          1.17930        1.48280        1.59520
C          2.33720        0.98460        2.23600
C          2.83510       -0.31790        1.87490
N          3.96370       -0.61290        2.49920
S          4.36320        0.62320        3.46080
N          3.11440        1.59210        3.11860
C          2.07370       -1.13150        1.00330
C          2.19630       -2.46750        0.58420
C          1.02910       -2.77860       -0.14710
N          0.20700       -1.67460       -0.21590
C         -1.23090       -1.83100       -0.32700
C         -1.78050       -2.73690        0.77450
C          0.85320       -0.65250        0.45640
C          0.50370        0.70180        0.61900
N         -0.48230        1.46090        0.01630
C         -0.49040        2.68420        0.64290
C         -1.24870        3.84830        0.57560
C         -0.96220        1.31270       -1.34210
C         -0.24180        2.27150       -2.29060
C          1.00440       -4.08230       -0.60190
C          2.15610       -4.78520       -0.22480
S          3.27520       -3.79010        0.71220
C          2.34070       -6.12220       -0.60090
C          3.35230       -7.00470       -0.31760
C          4.50300       -6.74870        0.55180
O          4.83010       -5.69620        1.06000
C          5.17870       -8.05640        0.71980
C          6.25060       -8.37470        1.53460
Cl         7.09530       -7.17480        2.40470
C          6.62500       -9.72260        1.63810
Cl         7.96470      -10.16290        2.60350
C          5.87870      -10.70690        0.99240
Cl         6.29130      -12.35140        1.21750
C          4.78600      -10.37640        0.17370
Cl         3.81230      -11.65030       -0.43460
C          4.48370       -9.03460       -0.02070
C          3.45920       -8.36280       -0.81830
C          2.87230       -8.84180       -1.96100
C          1.88550       -8.15620       -2.70300
N          1.06800       -7.67740       -3.35260
C          3.26930       -9.99370       -2.67470
N          3.58100      -10.83870       -3.38590
H         -0.62540        6.73880        2.28760
H         -3.79290       10.63860        0.68920
H         -5.92940       10.74310       -0.60120
H         -8.94430        8.09260       -2.28680
H         -7.51020        7.05460       -2.47510
H         -8.38650        7.09680       -0.91940
H         -6.16790        6.47210       -0.63600
H         -1.46360       -2.25130       -1.31060
H         -1.70320       -0.85530       -0.22910
H         -1.36380       -3.73770        0.70510
H         -2.86120       -2.80180        0.68460
H         -1.53730       -2.32630        1.75180
H         -2.03790        4.03480       -0.13000
H         -0.77230        0.29460       -1.67770
H         -2.03990        1.50530       -1.35860
H          0.82970        2.08550       -2.26760
H         -0.59970        2.11810       -3.30500
H         -0.41810        3.30670       -2.01170
H          0.22530       -4.53180       -1.19110
H          1.52090       -6.50980       -1.19420
