77

C          0.46440        2.18550        4.00950
C          1.39780        1.43760        4.66640
C          2.14030        0.29170        4.10310
O          2.08940       -0.12660        2.96130
C          2.94530       -0.24680        5.20180
C          3.79420       -1.33630        5.20840
C          4.44710       -1.67330        6.38220
C          4.24790       -0.92080        7.54280
O          4.83090       -1.17630        8.73040
C          5.70590       -2.27510        8.85150
C          3.38890        0.19030        7.53300
C          2.74090        0.52440        6.36370
C          1.80090        1.60160        6.05360
C          1.41060        2.58500        6.92180
C          1.85830        2.68950        8.25720
N          2.17460        2.84170        9.34960
C          0.52560        3.64470        6.62760
N         -0.17970        4.53810        6.47360
C         -0.00180        2.10700        2.67880
S          0.54850        1.00640        1.43110
C         -0.56130        1.69990        0.30260
C         -0.74400        1.33430       -1.03330
C         -1.70440        1.98790       -1.83640
C         -2.49390        3.03530       -1.27320
C         -3.49770        3.81700       -1.87920
C         -4.04940        4.74280       -1.03300
C         -5.10760        5.69060       -1.38880
O         -5.52640        5.75370       -2.52460
C         -5.65910        6.53890       -0.26550
C         -6.67080        5.72350        0.54380
S         -3.33070        4.67690        0.55370
C         -2.29080        3.39170        0.06440
C         -1.33240        2.73900        0.87310
C         -0.99660        2.95350        2.21150
C         -1.72090        1.47040       -3.13140
C         -0.80140        0.44950       -3.33940
S          0.11850        0.10540       -1.89110
C         -0.67960       -0.18720       -4.59340
C          0.15630       -1.18630       -5.00210
C          1.18160       -1.85280       -4.17320
O          1.43870       -1.63190       -3.00450
C          1.83100       -2.83530       -5.04490
C          2.86000       -3.71790       -4.75660
C          3.30700       -4.55790       -5.75380
C          2.73610       -4.52420       -7.03580
O          3.25640       -5.39200       -7.92480
C          2.74440       -5.42460       -9.24060
C          1.69880       -3.63310       -7.32560
C          1.25060       -2.79000       -6.32340
C          0.19960       -1.77260       -6.33100
C         -0.58500       -1.45470       -7.40810
C         -0.47820       -2.07160       -8.67310
N         -0.44050       -2.53400       -9.72340
C         -1.60770       -0.48220       -7.43300
N         -2.45550        0.28440       -7.54430
H         -0.02420        2.96990        4.57510
H          3.93930       -1.91200        4.30730
H          5.10920       -2.52430        6.38840
H          6.03170       -2.27490        9.89000
H          6.57730       -2.16710        8.19880
H          5.19700       -3.21840        8.63200
H          3.26680        0.73980        8.45110
H         -3.82080        3.71840       -2.89950
H         -6.15770        7.40460       -0.70340
H         -4.85080        6.87740        0.38500
H         -7.10850        6.34360        1.32200
H         -7.46770        5.36540       -0.10400
H         -6.19220        4.86700        1.01340
H         -1.46200        3.70290        2.82800
H         -2.37650        1.81900       -3.90970
H         -1.37310        0.20400       -5.32830
H          3.29300       -3.73730       -3.76880
H          4.10470       -5.26190       -5.57780
H          2.88370       -4.46620       -9.74860
H          3.31660       -6.19360       -9.75610
H          1.68410       -5.69200       -9.25210
H          1.26040       -3.60570       -8.30740
