
  xtb     01262218023D
 energy: -279.328289158936 gnorm: 0.000948411471 xtb: 6.4.1 (unknown)
178194  0     0  0            999 V2000
   -6.1928   -2.8977   -6.2766 C   0  0  0  0  0  0  0  0  0  0  0  0
   -7.4871   -3.1945   -6.6141 C   0  0  0  0  0  0  0  0  0  0  0  0
   -8.7212   -3.0111   -5.8110 C   0  0  0  0  0  0  0  0  0  0  0  0
   -8.8289   -2.6957   -4.6418 O   0  0  0  0  0  0  0  0  0  0  0  0
   -9.8350   -3.2795   -6.7303 C   0  0  0  0  0  0  0  0  0  0  0  0
  -11.1923   -3.1964   -6.4924 C   0  0  0  0  0  0  0  0  0  0  0  0
  -12.0753   -3.4883   -7.5191 C   0  0  0  0  0  0  0  0  0  0  0  0
  -11.5956   -3.8597   -8.7769 C   0  0  0  0  0  0  0  0  0  0  0  0
  -12.3755   -4.1572   -9.8379 O   0  0  0  0  0  0  0  0  0  0  0  0
  -13.7768   -4.1051   -9.7017 C   0  0  0  0  0  0  0  0  0  0  0  0
  -10.2151   -3.9466   -9.0163 C   0  0  0  0  0  0  0  0  0  0  0  0
   -9.3398   -3.6580   -7.9918 C   0  0  0  0  0  0  0  0  0  0  0  0
   -7.8789   -3.6667   -7.9315 C   0  0  0  0  0  0  0  0  0  0  0  0
   -7.0582   -4.1117   -8.9351 C   0  0  0  0  0  0  0  0  0  0  0  0
   -5.6525   -4.2224   -8.8794 C   0  0  0  0  0  0  0  0  0  0  0  0
   -4.5135   -4.3664   -8.9265 N   0  0  0  0  0  0  0  0  0  0  0  0
   -7.5171   -4.5697  -10.1888 C   0  0  0  0  0  0  0  0  0  0  0  0
   -7.8071   -4.9586  -11.2294 N   0  0  0  0  0  0  0  0  0  0  0  0
   -5.6148   -2.4608   -5.0715 C   0  0  0  0  0  0  0  0  0  0  0  0
   -6.1238   -2.2779   -3.7941 C   0  0  0  0  0  0  0  0  0  0  0  0
   -5.1531   -1.8451   -2.9060 C   0  0  0  0  0  0  0  0  0  0  0  0
   -5.1810   -1.4591   -1.2059 S   0  0  0  0  0  0  0  0  0  0  0  0
   -3.4940   -1.0855   -1.2866 C   0  0  0  0  0  0  0  0  0  0  0  0
   -2.4892   -0.6434   -0.3986 C   0  0  0  0  0  0  0  0  0  0  0  0
   -2.3958   -0.2876    1.2851 S   0  0  0  0  0  0  0  0  0  0  0  0
   -0.7235    0.0815    1.0703 C   0  0  0  0  0  0  0  0  0  0  0  0
    0.3242    0.4854    1.9483 C   0  0  0  0  0  0  0  0  0  0  0  0
    0.3313    0.7263    3.3205 C   0  0  0  0  0  0  0  0  0  0  0  0
    1.5221    1.1241    3.8807 C   0  0  0  0  0  0  0  0  0  0  0  0
    1.8086    1.4601    5.3357 C   0  0  0  0  0  0  0  0  0  0  0  0
    1.0884    2.7005    5.8334 C   0  0  0  0  0  0  0  0  0  0  0  0
    0.5130    3.6132    4.9616 C   0  0  0  0  0  0  0  0  0  0  0  0
   -0.0940    4.7576    5.4467 C   0  0  0  0  0  0  0  0  0  0  0  0
   -0.1344    5.0248    6.8081 C   0  0  0  0  0  0  0  0  0  0  0  0
   -0.7584    6.2884    7.3254 C   0  0  0  0  0  0  0  0  0  0  0  0
    0.2706    7.4204    7.3542 C   0  0  0  0  0  0  0  0  0  0  0  0
    0.4599    4.1168    7.6756 C   0  0  0  0  0  0  0  0  0  0  0  0
    1.0649    2.9712    7.1965 C   0  0  0  0  0  0  0  0  0  0  0  0
    1.4883    0.2419    6.1813 C   0  0  0  0  0  0  0  0  0  0  0  0
    0.1936    0.0377    6.6423 C   0  0  0  0  0  0  0  0  0  0  0  0
   -0.1196   -1.0893    7.3776 C   0  0  0  0  0  0  0  0  0  0  0  0
    0.8465   -2.0445    7.6673 C   0  0  0  0  0  0  0  0  0  0  0  0
    0.5146   -3.2413    8.5105 C   0  0  0  0  0  0  0  0  0  0  0  0
    0.7126   -2.9210    9.9936 C   0  0  0  0  0  0  0  0  0  0  0  0
    2.1363   -1.8401    7.1966 C   0  0  0  0  0  0  0  0  0  0  0  0
    2.4542   -0.7154    6.4574 C   0  0  0  0  0  0  0  0  0  0  0  0
    3.2787    1.7867    5.2680 C   0  0  0  0  0  0  0  0  0  0  0  0
    3.7404    1.6677    3.9609 C   0  0  0  0  0  0  0  0  0  0  0  0
    2.6891    1.2534    3.0897 C   0  0  0  0  0  0  0  0  0  0  0  0
    2.6820    1.0082    1.7181 C   0  0  0  0  0  0  0  0  0  0  0  0
    1.4860    0.6334    1.1563 C   0  0  0  0  0  0  0  0  0  0  0  0
    1.1909    0.3366   -0.3089 C   0  0  0  0  0  0  0  0  0  0  0  0
    2.1114   -0.7944   -0.7212 C   0  0  0  0  0  0  0  0  0  0  0  0
    3.3962   -0.5358   -1.1821 C   0  0  0  0  0  0  0  0  0  0  0  0
    4.2576   -1.5745   -1.4799 C   0  0  0  0  0  0  0  0  0  0  0  0
    3.8714   -2.8966   -1.3062 C   0  0  0  0  0  0  0  0  0  0  0  0
    4.8301   -4.0183   -1.5829 C   0  0  0  0  0  0  0  0  0  0  0  0
    5.6241   -4.3661   -0.3222 C   0  0  0  0  0  0  0  0  0  0  0  0
    2.5993   -3.1486   -0.8124 C   0  0  0  0  0  0  0  0  0  0  0  0
    1.7304   -2.1143   -0.5229 C   0  0  0  0  0  0  0  0  0  0  0  0
    1.3313    1.6035   -1.1403 C   0  0  0  0  0  0  0  0  0  0  0  0
    1.6735    1.5670   -2.4836 C   0  0  0  0  0  0  0  0  0  0  0  0
    1.8340    2.7362   -3.2058 C   0  0  0  0  0  0  0  0  0  0  0  0
    1.6536    3.9760   -2.6105 C   0  0  0  0  0  0  0  0  0  0  0  0
    1.8908    5.2562   -3.3614 C   0  0  0  0  0  0  0  0  0  0  0  0
    0.5947    6.0216   -3.6277 C   0  0  0  0  0  0  0  0  0  0  0  0
    1.2577    4.0079   -1.2787 C   0  0  0  0  0  0  0  0  0  0  0  0
    1.0917    2.8430   -0.5565 C   0  0  0  0  0  0  0  0  0  0  0  0
   -0.2675   -0.0553   -0.2394 C   0  0  0  0  0  0  0  0  0  0  0  0
   -1.2819   -0.4820   -1.0928 C   0  0  0  0  0  0  0  0  0  0  0  0
   -1.4627   -0.8729   -2.5459 C   0  0  0  0  0  0  0  0  0  0  0  0
   -0.5880   -2.0723   -2.8723 C   0  0  0  0  0  0  0  0  0  0  0  0
    0.6086   -1.9455   -3.5612 C   0  0  0  0  0  0  0  0  0  0  0  0
    1.3769   -3.0576   -3.8477 C   0  0  0  0  0  0  0  0  0  0  0  0
    0.9764   -4.3309   -3.4630 C   0  0  0  0  0  0  0  0  0  0  0  0
    1.8029   -5.5264   -3.8526 C   0  0  0  0  0  0  0  0  0  0  0  0
    1.8524   -6.6343   -2.8041 C   0  0  0  0  0  0  0  0  0  0  0  0
   -0.2124   -4.4506   -2.7552 C   0  0  0  0  0  0  0  0  0  0  0  0
   -0.9773   -3.3392   -2.4563 C   0  0  0  0  0  0  0  0  0  0  0  0
   -1.3381    0.2763   -3.5270 C   0  0  0  0  0  0  0  0  0  0  0  0
   -1.2961    0.0094   -4.8910 C   0  0  0  0  0  0  0  0  0  0  0  0
   -1.2940    1.0422   -5.8064 C   0  0  0  0  0  0  0  0  0  0  0  0
   -1.3505    2.3670   -5.3898 C   0  0  0  0  0  0  0  0  0  0  0  0
   -1.3235    3.4777   -6.4004 C   0  0  0  0  0  0  0  0  0  0  0  0
    0.0999    3.7143   -6.9084 C   0  0  0  0  0  0  0  0  0  0  0  0
   -1.4089    2.6257   -4.0285 C   0  0  0  0  0  0  0  0  0  0  0  0
   -1.4079    1.5952   -3.1059 C   0  0  0  0  0  0  0  0  0  0  0  0
   -2.9297   -1.2481   -2.5495 C   0  0  0  0  0  0  0  0  0  0  0  0
   -3.8705   -1.6805   -3.4751 C   0  0  0  0  0  0  0  0  0  0  0  0
   -3.8837   -2.0856   -5.1431 S   0  0  0  0  0  0  0  0  0  0  0  0
    5.3946    2.0652    3.8055 S   0  0  0  0  0  0  0  0  0  0  0  0
    5.4834    2.4162    5.5320 C   0  0  0  0  0  0  0  0  0  0  0  0
    4.2515    2.2134    6.1532 C   0  0  0  0  0  0  0  0  0  0  0  0
    6.6932    2.8497    6.1072 C   0  0  0  0  0  0  0  0  0  0  0  0
    7.9129    3.0314    5.4899 C   0  0  0  0  0  0  0  0  0  0  0  0
    8.2279    2.8099    4.1426 C   0  0  0  0  0  0  0  0  0  0  0  0
    8.4623    2.6130    3.0365 N   0  0  0  0  0  0  0  0  0  0  0  0
    8.8506    3.4984    6.4790 C   0  0  0  0  0  0  0  0  0  0  0  0
   10.1747    3.8106    6.3226 C   0  0  0  0  0  0  0  0  0  0  0  0
   10.8547    3.7114    5.0958 C   0  0  0  0  0  0  0  0  0  0  0  0
   11.4639    3.6542    4.1253 N   0  0  0  0  0  0  0  0  0  0  0  0
   10.9382    4.2573    7.4198 C   0  0  0  0  0  0  0  0  0  0  0  0
   11.5617    4.6234    8.3102 N   0  0  0  0  0  0  0  0  0  0  0  0
    8.2462    3.6077    7.6709 O   0  0  0  0  0  0  0  0  0  0  0  0
    6.8688    3.2195    7.5690 C   0  0  0  0  0  0  0  0  0  0  0  0
    6.0283    4.4323    7.9777 C   0  0  0  0  0  0  0  0  0  0  0  0
    6.6697    2.0314    8.5142 C   0  0  0  0  0  0  0  0  0  0  0  0
   -5.4645   -2.9947   -7.0736 H   0  0  0  0  0  0  0  0  0  0  0  0
  -11.5520   -2.9065   -5.5171 H   0  0  0  0  0  0  0  0  0  0  0  0
  -13.1354   -3.4232   -7.3337 H   0  0  0  0  0  0  0  0  0  0  0  0
  -14.1750   -4.3863  -10.6750 H   0  0  0  0  0  0  0  0  0  0  0  0
  -14.1181   -3.0967   -9.4488 H   0  0  0  0  0  0  0  0  0  0  0  0
  -14.1333   -4.8129   -8.9471 H   0  0  0  0  0  0  0  0  0  0  0  0
   -9.8930   -4.2342  -10.0028 H   0  0  0  0  0  0  0  0  0  0  0  0
   -7.1552   -2.4515   -3.5488 H   0  0  0  0  0  0  0  0  0  0  0  0
   -0.5675    0.6120    3.9065 H   0  0  0  0  0  0  0  0  0  0  0  0
    0.5338    3.4298    3.8974 H   0  0  0  0  0  0  0  0  0  0  0  0
   -0.5459    5.4531    4.7539 H   0  0  0  0  0  0  0  0  0  0  0  0
   -1.1427    6.1257    8.3343 H   0  0  0  0  0  0  0  0  0  0  0  0
   -1.5931    6.5780    6.6840 H   0  0  0  0  0  0  0  0  0  0  0  0
    1.1051    7.1575    8.0007 H   0  0  0  0  0  0  0  0  0  0  0  0
    0.6578    7.6056    6.3548 H   0  0  0  0  0  0  0  0  0  0  0  0
   -0.1820    8.3361    7.7269 H   0  0  0  0  0  0  0  0  0  0  0  0
    0.4445    4.3072    8.7393 H   0  0  0  0  0  0  0  0  0  0  0  0
    1.5108    2.2699    7.8875 H   0  0  0  0  0  0  0  0  0  0  0  0
   -0.5715    0.7720    6.4354 H   0  0  0  0  0  0  0  0  0  0  0  0
   -1.1313   -1.2306    7.7303 H   0  0  0  0  0  0  0  0  0  0  0  0
   -0.5229   -3.5364    8.3421 H   0  0  0  0  0  0  0  0  0  0  0  0
    1.1579   -4.0790    8.2343 H   0  0  0  0  0  0  0  0  0  0  0  0
    0.0711   -2.0944   10.2912 H   0  0  0  0  0  0  0  0  0  0  0  0
    0.4702   -3.7865   10.6054 H   0  0  0  0  0  0  0  0  0  0  0  0
    1.7456   -2.6387   10.1851 H   0  0  0  0  0  0  0  0  0  0  0  0
    2.9030   -2.5723    7.4063 H   0  0  0  0  0  0  0  0  0  0  0  0
    3.4633   -0.5846    6.0939 H   0  0  0  0  0  0  0  0  0  0  0  0
    3.5811    1.1186    1.1325 H   0  0  0  0  0  0  0  0  0  0  0  0
    3.7285    0.4834   -1.3154 H   0  0  0  0  0  0  0  0  0  0  0  0
    5.2495   -1.3521   -1.8469 H   0  0  0  0  0  0  0  0  0  0  0  0
    4.2821   -4.9011   -1.9160 H   0  0  0  0  0  0  0  0  0  0  0  0
    5.5235   -3.7258   -2.3740 H   0  0  0  0  0  0  0  0  0  0  0  0
    4.9511   -4.6721    0.4759 H   0  0  0  0  0  0  0  0  0  0  0  0
    6.1886   -3.5019    0.0203 H   0  0  0  0  0  0  0  0  0  0  0  0
    6.3191   -5.1783   -0.5219 H   0  0  0  0  0  0  0  0  0  0  0  0
    2.2790   -4.1669   -0.6487 H   0  0  0  0  0  0  0  0  0  0  0  0
    0.7474   -2.3415   -0.1376 H   0  0  0  0  0  0  0  0  0  0  0  0
    1.8429    0.6183   -2.9668 H   0  0  0  0  0  0  0  0  0  0  0  0
    2.1208    2.6759   -4.2460 H   0  0  0  0  0  0  0  0  0  0  0  0
    2.5606    5.8906   -2.7746 H   0  0  0  0  0  0  0  0  0  0  0  0
    2.3839    5.0385   -4.3109 H   0  0  0  0  0  0  0  0  0  0  0  0
    0.0820    6.2459   -2.6952 H   0  0  0  0  0  0  0  0  0  0  0  0
   -0.0710    5.4337   -4.2538 H   0  0  0  0  0  0  0  0  0  0  0  0
    0.8086    6.9582   -4.1377 H   0  0  0  0  0  0  0  0  0  0  0  0
    1.0966    4.9594   -0.7922 H   0  0  0  0  0  0  0  0  0  0  0  0
    0.7909    2.9026    0.4798 H   0  0  0  0  0  0  0  0  0  0  0  0
    0.9368   -0.9741   -3.8955 H   0  0  0  0  0  0  0  0  0  0  0  0
    2.3041   -2.9312   -4.3880 H   0  0  0  0  0  0  0  0  0  0  0  0
    1.3946   -5.9388   -4.7809 H   0  0  0  0  0  0  0  0  0  0  0  0
    2.8190   -5.1892   -4.0697 H   0  0  0  0  0  0  0  0  0  0  0  0
    0.8854   -7.1165   -2.6908 H   0  0  0  0  0  0  0  0  0  0  0  0
    2.1532   -6.2365   -1.8378 H   0  0  0  0  0  0  0  0  0  0  0  0
    2.5716   -7.3941   -3.1019 H   0  0  0  0  0  0  0  0  0  0  0  0
   -0.5589   -5.4212   -2.4354 H   0  0  0  0  0  0  0  0  0  0  0  0
   -1.8962   -3.4653   -1.9010 H   0  0  0  0  0  0  0  0  0  0  0  0
   -1.2692   -1.0132   -5.2380 H   0  0  0  0  0  0  0  0  0  0  0  0
   -1.2644    0.8148   -6.8622 H   0  0  0  0  0  0  0  0  0  0  0  0
   -1.7080    4.3967   -5.9532 H   0  0  0  0  0  0  0  0  0  0  0  0
   -1.9651    3.2187   -7.2457 H   0  0  0  0  0  0  0  0  0  0  0  0
    0.1144    4.5210   -7.6376 H   0  0  0  0  0  0  0  0  0  0  0  0
    0.4887    2.8141   -7.3787 H   0  0  0  0  0  0  0  0  0  0  0  0
    0.7558    3.9800   -6.0832 H   0  0  0  0  0  0  0  0  0  0  0  0
   -1.4693    3.6443   -3.6747 H   0  0  0  0  0  0  0  0  0  0  0  0
   -1.4665    1.8274   -2.0530 H   0  0  0  0  0  0  0  0  0  0  0  0
    4.0779    2.3674    7.2010 H   0  0  0  0  0  0  0  0  0  0  0  0
    4.9687    4.2008    7.9635 H   0  0  0  0  0  0  0  0  0  0  0  0
    6.2154    5.2586    7.2948 H   0  0  0  0  0  0  0  0  0  0  0  0
    6.3180    4.7386    8.9795 H   0  0  0  0  0  0  0  0  0  0  0  0
    5.6327    1.7155    8.5393 H   0  0  0  0  0  0  0  0  0  0  0  0
    7.2851    1.1941    8.1911 H   0  0  0  0  0  0  0  0  0  0  0  0
    6.9809    2.3241    9.5137 H   0  0  0  0  0  0  0  0  0  0  0  0
  1  2  2  0  0  0  0
  2  3  1  0  0  0  0
  3  4  2  0  0  0  0
  3  5  1  0  0  0  0
  5  6  2  0  0  0  0
  6  7  1  0  0  0  0
  7  8  2  0  0  0  0
  8  9  1  0  0  0  0
  9 10  1  0  0  0  0
  8 11  1  0  0  0  0
 11 12  2  0  0  0  0
 12 13  1  0  0  0  0
 13 14  2  0  0  0  0
 14 15  1  0  0  0  0
 15 16  3  0  0  0  0
 14 17  1  0  0  0  0
 17 18  3  0  0  0  0
  1 19  1  0  0  0  0
 19 20  2  0  0  0  0
 20 21  1  0  0  0  0
 21 22  1  0  0  0  0
 22 23  1  0  0  0  0
 23 24  1  0  0  0  0
 24 25  1  0  0  0  0
 25 26  1  0  0  0  0
 26 27  1  0  0  0  0
 27 28  2  0  0  0  0
 28 29  1  0  0  0  0
 29 30  1  0  0  0  0
 30 31  1  0  0  0  0
 31 32  2  0  0  0  0
 32 33  1  0  0  0  0
 33 34  2  0  0  0  0
 34 35  1  0  0  0  0
 35 36  1  0  0  0  0
 34 37  1  0  0  0  0
 37 38  2  0  0  0  0
 30 39  1  0  0  0  0
 39 40  2  0  0  0  0
 40 41  1  0  0  0  0
 41 42  2  0  0  0  0
 42 43  1  0  0  0  0
 43 44  1  0  0  0  0
 42 45  1  0  0  0  0
 45 46  2  0  0  0  0
 30 47  1  0  0  0  0
 47 48  2  0  0  0  0
 48 49  1  0  0  0  0
 49 50  1  0  0  0  0
 50 51  2  0  0  0  0
 51 52  1  0  0  0  0
 52 53  1  0  0  0  0
 53 54  2  0  0  0  0
 54 55  1  0  0  0  0
 55 56  2  0  0  0  0
 56 57  1  0  0  0  0
 57 58  1  0  0  0  0
 56 59  1  0  0  0  0
 59 60  2  0  0  0  0
 52 61  1  0  0  0  0
 61 62  2  0  0  0  0
 62 63  1  0  0  0  0
 63 64  2  0  0  0  0
 64 65  1  0  0  0  0
 65 66  1  0  0  0  0
 64 67  1  0  0  0  0
 67 68  2  0  0  0  0
 52 69  1  0  0  0  0
 69 70  1  0  0  0  0
 70 71  1  0  0  0  0
 71 72  1  0  0  0  0
 72 73  2  0  0  0  0
 73 74  1  0  0  0  0
 74 75  2  0  0  0  0
 75 76  1  0  0  0  0
 76 77  1  0  0  0  0
 75 78  1  0  0  0  0
 78 79  2  0  0  0  0
 71 80  1  0  0  0  0
 80 81  2  0  0  0  0
 81 82  1  0  0  0  0
 82 83  2  0  0  0  0
 83 84  1  0  0  0  0
 84 85  1  0  0  0  0
 83 86  1  0  0  0  0
 86 87  2  0  0  0  0
 71 88  1  0  0  0  0
 88 89  1  0  0  0  0
 89 90  1  0  0  0  0
 48 91  1  0  0  0  0
 91 92  1  0  0  0  0
 92 93  2  0  0  0  0
 92 94  1  0  0  0  0
 94 95  2  0  0  0  0
 95 96  1  0  0  0  0
 96 97  3  0  0  0  0
 95 98  1  0  0  0  0
 98 99  2  0  0  0  0
 99100  1  0  0  0  0
100101  3  0  0  0  0
 99102  1  0  0  0  0
102103  3  0  0  0  0
 98104  1  0  0  0  0
104105  1  0  0  0  0
105106  1  0  0  0  0
105107  1  0  0  0  0
 13  2  1  0  0  0  0
 90 19  1  0  0  0  0
105 94  1  0  0  0  0
 12  5  1  0  0  0  0
 89 21  2  0  0  0  0
 88 23  2  0  0  0  0
 70 24  2  0  0  0  0
 79 72  1  0  0  0  0
 87 80  1  0  0  0  0
 69 26  2  0  0  0  0
 51 27  1  0  0  0  0
 60 53  1  0  0  0  0
 68 61  1  0  0  0  0
 49 29  2  0  0  0  0
 38 31  1  0  0  0  0
 46 39  1  0  0  0  0
 93 47  1  0  0  0  0
  1108  1  0  0  0  0
  6109  1  0  0  0  0
  7110  1  0  0  0  0
 10111  1  0  0  0  0
 10112  1  0  0  0  0
 10113  1  0  0  0  0
 11114  1  0  0  0  0
 20115  1  0  0  0  0
 28116  1  0  0  0  0
 32117  1  0  0  0  0
 33118  1  0  0  0  0
 35119  1  0  0  0  0
 35120  1  0  0  0  0
 36121  1  0  0  0  0
 36122  1  0  0  0  0
 36123  1  0  0  0  0
 37124  1  0  0  0  0
 38125  1  0  0  0  0
 40126  1  0  0  0  0
 41127  1  0  0  0  0
 43128  1  0  0  0  0
 43129  1  0  0  0  0
 44130  1  0  0  0  0
 44131  1  0  0  0  0
 44132  1  0  0  0  0
 45133  1  0  0  0  0
 46134  1  0  0  0  0
 50135  1  0  0  0  0
 54136  1  0  0  0  0
 55137  1  0  0  0  0
 57138  1  0  0  0  0
 57139  1  0  0  0  0
 58140  1  0  0  0  0
 58141  1  0  0  0  0
 58142  1  0  0  0  0
 59143  1  0  0  0  0
 60144  1  0  0  0  0
 62145  1  0  0  0  0
 63146  1  0  0  0  0
 65147  1  0  0  0  0
 65148  1  0  0  0  0
 66149  1  0  0  0  0
 66150  1  0  0  0  0
 66151  1  0  0  0  0
 67152  1  0  0  0  0
 68153  1  0  0  0  0
 73154  1  0  0  0  0
 74155  1  0  0  0  0
 76156  1  0  0  0  0
 76157  1  0  0  0  0
 77158  1  0  0  0  0
 77159  1  0  0  0  0
 77160  1  0  0  0  0
 78161  1  0  0  0  0
 79162  1  0  0  0  0
 81163  1  0  0  0  0
 82164  1  0  0  0  0
 84165  1  0  0  0  0
 84166  1  0  0  0  0
 85167  1  0  0  0  0
 85168  1  0  0  0  0
 85169  1  0  0  0  0
 86170  1  0  0  0  0
 87171  1  0  0  0  0
 93172  1  0  0  0  0
106173  1  0  0  0  0
106174  1  0  0  0  0
106175  1  0  0  0  0
107176  1  0  0  0  0
107177  1  0  0  0  0
107178  1  0  0  0  0
M  END
