
  xtb     02102221193D
 energy: -197.480357032650 gnorm: 0.000600584820 xtb: 6.4.1 (unknown)
101112  0     0  0            999 V2000
   -4.5302   -4.0446   -3.3152 C   0  0  0  0  0  0  0  0  0  0  0  0
   -5.3635   -3.2923   -4.0637 C   0  0  0  0  0  0  0  0  0  0  0  0
   -4.9389   -1.9983   -4.6730 C   0  0  0  0  0  0  0  0  0  0  0  0
   -3.8080   -1.5636   -4.7144 O   0  0  0  0  0  0  0  0  0  0  0  0
   -6.1730   -1.3833   -5.1722 C   0  0  0  0  0  0  0  0  0  0  0  0
   -6.3598   -0.1457   -5.7691 C   0  0  0  0  0  0  0  0  0  0  0  0
   -7.6348    0.2250   -6.1383 C   0  0  0  0  0  0  0  0  0  0  0  0
   -8.7301   -0.6255   -5.9154 C   0  0  0  0  0  0  0  0  0  0  0  0
   -9.9245   -0.1488   -6.3139 O   0  0  0  0  0  0  0  0  0  0  0  0
  -11.0806   -0.9378   -6.1257 C   0  0  0  0  0  0  0  0  0  0  0  0
   -8.5436   -1.8739   -5.3160 C   0  0  0  0  0  0  0  0  0  0  0  0
   -7.2615   -2.2468   -4.9500 C   0  0  0  0  0  0  0  0  0  0  0  0
   -6.7825   -3.4729   -4.3200 C   0  0  0  0  0  0  0  0  0  0  0  0
   -7.5103   -4.6065   -4.0848 C   0  0  0  0  0  0  0  0  0  0  0  0
   -6.9641   -5.7972   -3.5592 C   0  0  0  0  0  0  0  0  0  0  0  0
   -6.5597   -6.7954   -3.1624 N   0  0  0  0  0  0  0  0  0  0  0  0
   -8.8836   -4.7409   -4.3772 C   0  0  0  0  0  0  0  0  0  0  0  0
   -9.9997   -4.8980   -4.5954 N   0  0  0  0  0  0  0  0  0  0  0  0
   -3.1601   -3.6441   -3.0140 C   0  0  0  0  0  0  0  0  0  0  0  0
   -2.0721   -3.8291   -3.8793 C   0  0  0  0  0  0  0  0  0  0  0  0
   -2.2285   -4.5591   -5.1817 C   0  0  0  0  0  0  0  0  0  0  0  0
   -2.4629   -6.0543   -4.9595 C   0  0  0  0  0  0  0  0  0  0  0  0
   -0.8608   -3.3337   -3.5226 C   0  0  0  0  0  0  0  0  0  0  0  0
    2.9165   -3.0531   -5.1081 Se  0  0  0  0  0  2  0  0  0  0  0  0
    2.5790   -2.1835   -3.5593 C   0  0  0  0  0  0  0  0  0  0  0  0
    3.4338   -1.3272   -2.8250 C   0  0  0  0  0  0  0  0  0  0  0  0
    4.7113   -0.8434   -3.1799 C   0  0  0  0  0  0  0  0  0  0  0  0
    5.3195    0.1516   -2.3502 C   0  0  0  0  0  0  0  0  0  0  0  0
    6.4828    0.5735   -2.8228 N   0  0  0  0  0  0  0  0  0  0  0  0
    6.7859   -0.2242   -4.2002 S   0  0  0  0  0  0  0  0  0  0  0  0
    5.4486   -1.1297   -4.2406 N   0  0  0  0  0  0  0  0  0  0  0  0
    4.6772    0.5245   -1.1534 C   0  0  0  0  0  0  0  0  0  0  0  0
    5.0927    1.4014   -0.1472 C   0  0  0  0  0  0  0  0  0  0  0  0
    6.5006    2.5617    0.1999 Se  0  0  0  0  0  2  0  0  0  0  0  0
    5.6063    2.8754    1.8364 C   0  0  0  0  0  0  0  0  0  0  0  0
    5.8968    3.6996    2.9262 C   0  0  0  0  0  0  0  0  0  0  0  0
    7.1233    4.5479    2.9922 C   0  0  0  0  0  0  0  0  0  0  0  0
    8.2959    3.7452    3.5619 C   0  0  0  0  0  0  0  0  0  0  0  0
    4.9207    3.6136    3.9124 C   0  0  0  0  0  0  0  0  0  0  0  0
    3.6519    2.4682    3.4816 S   0  0  0  0  0  0  0  0  0  0  0  0
    4.4237    2.1329    1.9764 C   0  0  0  0  0  0  0  0  0  0  0  0
    4.1352    1.3229    0.8733 C   0  0  0  0  0  0  0  0  0  0  0  0
    3.1358    0.4533    0.5192 N   0  0  0  0  0  0  0  0  0  0  0  0
    3.4367   -0.0457   -0.7406 C   0  0  0  0  0  0  0  0  0  0  0  0
    2.7626   -0.8956   -1.6546 C   0  0  0  0  0  0  0  0  0  0  0  0
    1.4900   -1.4311   -1.6912 N   0  0  0  0  0  0  0  0  0  0  0  0
    1.3550   -2.2037   -2.8158 C   0  0  0  0  0  0  0  0  0  0  0  0
    0.1923   -2.8101   -3.1608 C   0  0  0  0  0  0  0  0  0  0  0  0
   -3.0751   -2.9515   -1.4964 S   0  0  0  0  0  0  0  0  0  0  0  0
    0.3215   -1.1425   -0.8914 C   0  0  0  0  0  0  0  0  0  0  0  0
    0.0206   -2.2682    0.0970 C   0  0  0  0  0  0  0  0  0  0  0  0
    2.3356   -0.1182    1.5817 C   0  0  0  0  0  0  0  0  0  0  0  0
    3.0913   -1.2455    2.2832 C   0  0  0  0  0  0  0  0  0  0  0  0
    4.9268    4.2659    5.1618 C   0  0  0  0  0  0  0  0  0  0  0  0
    3.9003    4.4138    6.0452 C   0  0  0  0  0  0  0  0  0  0  0  0
    4.1735    4.7232    7.4680 C   0  0  0  0  0  0  0  0  0  0  0  0
    5.2192    5.0980    7.9408 O   0  0  0  0  0  0  0  0  0  0  0  0
    2.9093    4.3991    8.1767 C   0  0  0  0  0  0  0  0  0  0  0  0
    2.6602    4.3547    9.5377 C   0  0  0  0  0  0  0  0  0  0  0  0
    3.8374    4.8408   10.6723 Cl  0  0  0  0  0  0  0  0  0  0  0  0
    1.4084    3.8898    9.9687 C   0  0  0  0  0  0  0  0  0  0  0  0
    1.0484    3.8430   11.6393 Cl  0  0  0  0  0  0  0  0  0  0  0  0
    0.4706    3.4320    9.0435 C   0  0  0  0  0  0  0  0  0  0  0  0
   -1.0128    2.7880    9.5991 Cl  0  0  0  0  0  0  0  0  0  0  0  0
    0.7278    3.4815    7.6643 C   0  0  0  0  0  0  0  0  0  0  0  0
   -0.3967    2.7701    6.5823 Cl  0  0  0  0  0  0  0  0  0  0  0  0
    1.9302    4.0212    7.2340 C   0  0  0  0  0  0  0  0  0  0  0  0
    2.4657    4.2721    5.8974 C   0  0  0  0  0  0  0  0  0  0  0  0
    1.7611    4.6906    4.8009 C   0  0  0  0  0  0  0  0  0  0  0  0
    2.4031    5.1762    3.6387 C   0  0  0  0  0  0  0  0  0  0  0  0
    2.8882    5.6094    2.6933 N   0  0  0  0  0  0  0  0  0  0  0  0
    0.3658    4.8839    4.7277 C   0  0  0  0  0  0  0  0  0  0  0  0
   -0.7458    5.1306    4.5874 N   0  0  0  0  0  0  0  0  0  0  0  0
   -4.8981   -4.9046   -2.7694 H   0  0  0  0  0  0  0  0  0  0  0  0
   -5.5162    0.5062   -5.9344 H   0  0  0  0  0  0  0  0  0  0  0  0
   -7.8273    1.1782   -6.6046 H   0  0  0  0  0  0  0  0  0  0  0  0
  -11.2613   -1.1367   -5.0655 H   0  0  0  0  0  0  0  0  0  0  0  0
  -11.0126   -1.8853   -6.6677 H   0  0  0  0  0  0  0  0  0  0  0  0
  -11.9030   -0.3491   -6.5279 H   0  0  0  0  0  0  0  0  0  0  0  0
   -9.3783   -2.5290   -5.1355 H   0  0  0  0  0  0  0  0  0  0  0  0
   -3.0743   -4.1333   -5.7267 H   0  0  0  0  0  0  0  0  0  0  0  0
   -1.3267   -4.4140   -5.7782 H   0  0  0  0  0  0  0  0  0  0  0  0
   -1.6336   -6.4893   -4.4060 H   0  0  0  0  0  0  0  0  0  0  0  0
   -2.5416   -6.5619   -5.9175 H   0  0  0  0  0  0  0  0  0  0  0  0
   -3.3812   -6.2287   -4.4030 H   0  0  0  0  0  0  0  0  0  0  0  0
    6.9438    5.4347    3.5995 H   0  0  0  0  0  0  0  0  0  0  0  0
    7.3704    4.8687    1.9759 H   0  0  0  0  0  0  0  0  0  0  0  0
    8.0779    3.4091    4.5733 H   0  0  0  0  0  0  0  0  0  0  0  0
    8.4907    2.8728    2.9405 H   0  0  0  0  0  0  0  0  0  0  0  0
    9.1909    4.3607    3.5858 H   0  0  0  0  0  0  0  0  0  0  0  0
    0.4538   -0.1740   -0.4071 H   0  0  0  0  0  0  0  0  0  0  0  0
   -0.5315   -1.0540   -1.5739 H   0  0  0  0  0  0  0  0  0  0  0  0
   -0.7981   -1.9766    0.7484 H   0  0  0  0  0  0  0  0  0  0  0  0
   -0.2873   -3.1564   -0.4481 H   0  0  0  0  0  0  0  0  0  0  0  0
    0.8885   -2.5223    0.7007 H   0  0  0  0  0  0  0  0  0  0  0  0
    1.3905   -0.4892    1.2057 H   0  0  0  0  0  0  0  0  0  0  0  0
    2.1259    0.6858    2.2925 H   0  0  0  0  0  0  0  0  0  0  0  0
    3.3329   -2.0390    1.5784 H   0  0  0  0  0  0  0  0  0  0  0  0
    2.4792   -1.6582    3.0801 H   0  0  0  0  0  0  0  0  0  0  0  0
    4.0181   -0.8745    2.7144 H   0  0  0  0  0  0  0  0  0  0  0  0
    5.8908    4.6191    5.5117 H   0  0  0  0  0  0  0  0  0  0  0  0
  1  2  2  0  0  0  0
  2  3  1  0  0  0  0
  3  4  2  0  0  0  0
  3  5  1  0  0  0  0
  5  6  2  0  0  0  0
  6  7  1  0  0  0  0
  7  8  2  0  0  0  0
  8  9  1  0  0  0  0
  9 10  1  0  0  0  0
  8 11  1  0  0  0  0
 11 12  2  0  0  0  0
 12 13  1  0  0  0  0
 13 14  2  0  0  0  0
 14 15  1  0  0  0  0
 15 16  3  0  0  0  0
 14 17  1  0  0  0  0
 17 18  3  0  0  0  0
  1 19  1  0  0  0  0
 19 20  2  0  0  0  0
 20 21  1  0  0  0  0
 21 22  1  0  0  0  0
 20 23  1  0  0  0  0
 23 24  1  0  0  0  0
 24 25  1  0  0  0  0
 25 26  1  0  0  0  0
 26 27  1  0  0  0  0
 27 28  1  0  0  0  0
 28 29  2  0  0  0  0
 29 30  1  0  0  0  0
 30 31  1  0  0  0  0
 28 32  1  0  0  0  0
 32 33  1  0  0  0  0
 33 34  1  0  0  0  0
 34 35  1  0  0  0  0
 35 36  1  0  0  0  0
 36 37  1  0  0  0  0
 37 38  1  0  0  0  0
 36 39  2  0  0  0  0
 39 40  1  0  0  0  0
 40 41  1  0  0  0  0
 41 42  1  0  0  0  0
 42 43  1  0  0  0  0
 43 44  1  0  0  0  0
 44 45  1  0  0  0  0
 45 46  1  0  0  0  0
 46 47  1  0  0  0  0
 47 48  1  0  0  0  0
 48 49  1  0  0  0  0
 46 50  1  0  0  0  0
 50 51  1  0  0  0  0
 43 52  1  0  0  0  0
 52 53  1  0  0  0  0
 39 54  1  0  0  0  0
 54 55  2  0  0  0  0
 55 56  1  0  0  0  0
 56 57  2  0  0  0  0
 56 58  1  0  0  0  0
 58 59  2  0  0  0  0
 59 60  1  0  0  0  0
 59 61  1  0  0  0  0
 61 62  1  0  0  0  0
 61 63  2  0  0  0  0
 63 64  1  0  0  0  0
 63 65  1  0  0  0  0
 65 66  1  0  0  0  0
 65 67  2  0  0  0  0
 67 68  1  0  0  0  0
 68 69  2  0  0  0  0
 69 70  1  0  0  0  0
 70 71  3  0  0  0  0
 69 72  1  0  0  0  0
 72 73  3  0  0  0  0
 13  2  1  0  0  0  0
 49 19  1  0  0  0  0
 68 55  1  0  0  0  0
 12  5  1  0  0  0  0
 48 23  2  0  0  0  0
 67 58  1  0  0  0  0
 47 25  2  0  0  0  0
 45 26  2  0  0  0  0
 31 27  2  0  0  0  0
 44 32  2  0  0  0  0
 42 33  2  0  0  0  0
 41 35  2  0  0  0  0
  1 74  1  0  0  0  0
  6 75  1  0  0  0  0
  7 76  1  0  0  0  0
 10 77  1  0  0  0  0
 10 78  1  0  0  0  0
 10 79  1  0  0  0  0
 11 80  1  0  0  0  0
 21 81  1  0  0  0  0
 21 82  1  0  0  0  0
 22 83  1  0  0  0  0
 22 84  1  0  0  0  0
 22 85  1  0  0  0  0
 37 86  1  0  0  0  0
 37 87  1  0  0  0  0
 38 88  1  0  0  0  0
 38 89  1  0  0  0  0
 38 90  1  0  0  0  0
 50 91  1  0  0  0  0
 50 92  1  0  0  0  0
 51 93  1  0  0  0  0
 51 94  1  0  0  0  0
 51 95  1  0  0  0  0
 52 96  1  0  0  0  0
 52 97  1  0  0  0  0
 53 98  1  0  0  0  0
 53 99  1  0  0  0  0
 53100  1  0  0  0  0
 54101  1  0  0  0  0
M  END
