134

C          3.69970        7.44500        1.69040
C          4.98100        7.14760        1.30030
C          5.45730        5.84450        0.82190
O          4.79120        4.84070        0.61950
C          6.90610        5.98430        0.64060
C          7.83240        5.04620        0.23250
C          9.16680        5.41020        0.14580
C          9.56580        6.70840        0.46840
O         10.83890        7.15420        0.41990
C         11.86350        6.27700        0.01280
C          8.62160        7.66330        0.88010
C          7.29590        7.29950        0.96370
C          6.10400        8.05960        1.34620
C          6.07830        9.39680        1.64810
C          4.92620       10.15630        1.94330
N          4.04550       10.85710        2.17540
C          7.22230       10.22180        1.67830
N          8.10680       10.95230        1.72670
C          2.54130        6.66050        1.68410
C          1.30780        7.16220        2.13550
C          1.16290        8.49460        2.74070
C          1.73220        8.71810        3.99140
C          1.63210        9.95430        4.59870
C          0.96630       10.98120        3.95320
C          0.40540       10.76320        2.70890
C          0.48930        9.52640        2.08430
C         -0.05200        9.34800        0.69460
C          1.06620        9.51280       -0.33720
C          0.28860        6.23100        1.98110
S         -1.41760        6.25760        2.38710
C         -1.54580        4.63220        1.80580
C         -2.49820        3.60700        1.73150
C         -3.81290        3.51100        2.24210
C         -4.47850        2.23880        2.21470
N         -5.66440        2.27730        2.80050
S         -5.92730        3.78330        3.33240
N         -4.53390        4.44540        2.84020
C         -3.85690        1.15370        1.55620
C         -4.28980       -0.15590        1.29760
S         -5.63120       -1.19190        1.65290
C         -4.86810       -2.45210        0.69970
C         -5.23860       -3.75190        0.37800
C         -6.49480       -4.40670        0.77350
C         -6.72500       -4.81930        2.08680
C         -5.66630       -4.69260        3.14470
C         -4.67310       -5.85270        3.04280
C         -7.93080       -5.44030        2.38270
C         -8.89080       -5.64860        1.41040
C         -8.65490       -5.24000        0.10950
C         -7.45940       -4.62530       -0.20620
C         -4.27550       -4.38030       -0.43050
S         -2.92020       -3.32150       -0.80460
C         -3.63750       -2.06760        0.13810
C         -3.31570       -0.75510        0.49020
N         -2.28840        0.12340        0.25430
C         -2.58810        1.29690        0.92380
C         -1.84790        2.48670        1.13640
N         -0.52800        2.81540        0.90810
C         -0.34220        4.11120        1.31060
C          0.71770        5.01590        1.41710
S          2.40950        5.01520        1.07540
C          0.61120        1.96140        0.65470
C          1.23670        2.22350       -0.71600
C         -1.50490       -0.06030       -0.94980
C         -2.35810        0.17650       -2.19570
C         -4.39200       -5.72810       -0.78870
C         -3.55550       -6.53130       -1.52040
C         -2.34120       -6.10330       -2.21840
O         -1.84320       -4.98870       -2.22690
C         -1.83510       -7.28810       -2.93150
C         -0.70740       -7.35980       -3.74540
C         -0.48430       -8.60450       -4.28340
C         -1.32080       -9.69880       -4.02820
C         -2.43420       -9.64230       -3.22340
C         -2.68160       -8.38440       -2.66760
C         -3.74850       -7.94480       -1.76860
C         -4.71900       -8.75140       -1.23010
C         -4.85570      -10.12740       -1.50790
N         -5.03310      -11.24720       -1.69070
C         -5.70490       -8.35540       -0.30140
N         -6.53020       -8.13430        0.46730
C         -0.50890      -10.62460       -4.89880
C         -1.06580      -10.96720       -6.30270
C         -1.93900       -9.80730       -6.71210
C         -1.14790       -8.77080       -6.95480
C          0.27480       -9.21100       -6.71340
C          0.18160      -10.68070       -7.15380
C          0.42310       -9.40490       -5.18380
H          3.52620        8.44330        2.07470
H          7.51500        4.04460       -0.01400
H          9.89050        4.67690       -0.17230
H         12.78050        6.86230        0.05050
H         11.70370        5.92040       -1.00930
H         11.95220        5.42180        0.68990
H          8.97630        8.65160        1.11910
H          2.25070        7.90800        4.48540
H          2.07870       10.11600        5.56810
H          0.89210       11.95370        4.41560
H         -0.10330       11.57070        2.20230
H         -0.82300       10.09790        0.50920
H         -0.50640        8.36260        0.58230
H          1.81900        8.73690       -0.21510
H          0.66420        9.44810       -1.34580
H          1.55170       10.47830       -0.21440
H         -5.13140       -3.74700        3.04370
H         -6.13710       -4.71090        4.12910
H         -3.96190       -5.81700        3.86490
H         -5.20090       -6.80310        3.07610
H         -4.12070       -5.80480        2.10670
H         -8.11240       -5.77350        3.39410
H         -9.81870       -6.13780        1.66460
H         -9.39530       -5.40460       -0.65860
H         -7.26220       -4.30280       -1.21920
H          1.36300        2.17530        1.42240
H          0.30400        0.92160        0.77480
H          1.75550        3.17780       -0.71350
H          1.95900        1.44500       -0.94470
H          0.48470        2.25160       -1.50180
H         -1.13050       -1.08810       -0.94900
H         -0.66790        0.62650       -0.96180
H         -3.17690       -0.53610       -2.24400
H         -2.77170        1.18320       -2.18510
H         -1.74580        0.05750       -3.08500
H         -5.29240       -6.18720       -0.39800
H         -0.08840       -6.49220       -3.91280
H         -3.06600      -10.49450       -3.03780
H         -0.07760      -11.49080       -4.40100
H         -1.51130      -11.95510       -6.38260
H         -3.01260       -9.84230       -6.72690
H         -1.42860       -7.76630       -7.21250
H          1.05030       -8.60020       -7.16850
H          1.04810      -11.27530       -6.86760
H         -0.00290      -10.78950       -8.22140
H          1.46400       -9.47550       -4.87360
