101

C          6.33750       -1.68120        2.63130
C          6.30600       -0.96870        3.80330
C          5.23910       -0.05660        4.23640
O          4.22480        0.23900        3.62450
C          5.63070        0.42750        5.56310
C          4.96600        1.29080        6.41070
C          5.52920        1.59420        7.63960
C          6.75220        1.03300        8.01310
O          7.37360        1.26210        9.18810
C          6.76570        2.10570       10.13920
C          7.43000        0.15920        7.14700
C          6.86760       -0.14130        5.92600
C          7.32020       -1.01020        4.83800
C          8.49500       -1.71700        4.83000
C          8.94730       -2.55750        3.79190
N          9.38730       -3.25860        2.99430
C          9.43960       -1.69920        5.87840
N         10.25620       -1.73650        6.68440
C          5.42520       -1.74610        1.57070
C          5.62610       -2.56390        0.44510
C          6.83000       -3.40700        0.17830
C          7.95610       -2.56680       -0.43050
C          4.57070       -2.45610       -0.45140
S          4.24560       -3.22440       -1.99470
C          2.75330       -2.35410       -2.08100
C          1.64060       -2.23350       -2.92870
C          1.22050       -2.93630       -4.08250
C         -0.08670       -2.67610       -4.62750
N         -0.37150       -3.46570       -5.65000
S          0.89000       -4.44500       -5.91410
N          1.85070       -3.90160       -4.73160
C         -0.85600       -1.61370       -4.09720
C         -2.06760       -1.01820       -4.48300
S         -3.34880       -1.27900       -5.61130
C         -4.13450        0.16690       -5.01920
C         -5.32370        0.80390       -5.37210
C         -6.28620        0.26650       -6.37500
C         -7.40880       -0.50200       -5.67240
C         -5.54690        1.93690       -4.59020
S         -4.23060        2.22040       -3.44580
C         -3.41530        0.80670       -3.99700
C         -2.24000        0.12580       -3.68620
N         -1.19510        0.24580       -2.80320
C         -0.36000       -0.83320       -3.01920
C          0.79620       -1.25740       -2.33240
N          1.33560       -0.85160       -1.12860
C          2.52920       -1.51230       -0.98110
C          3.56030       -1.57140       -0.04030
S          3.90920       -0.84820        1.48440
C          0.60600       -0.38940        0.03640
C          0.30930       -1.54270        0.99400
C         -0.80380        1.54470       -2.29220
C         -0.51200        2.52120       -3.43120
C         -6.61510        2.83950       -4.72450
C         -7.04370        3.80790       -3.85900
C         -7.81260        4.96590       -4.36890
O         -8.31900        5.08750       -5.46070
C         -7.77300        5.96340       -3.27130
C         -8.24350        7.26120       -3.26660
C         -8.05860        8.00890       -2.11410
F         -8.49620        9.27360       -2.06810
C         -7.41940        7.46030       -1.00210
F         -7.24310        8.21180        0.09120
C         -6.95710        6.15250       -1.00060
C         -7.13770        5.40120       -2.14960
C         -6.80980        4.00770       -2.44950
C         -6.60790        3.02090       -1.51820
C         -6.65190        1.64940       -1.84470
N         -6.74650        0.52870       -2.07540
C         -6.42970        3.25930       -0.14230
N         -6.24440        3.40590        0.98100
H          7.20230       -2.31380        2.48660
H          4.02040        1.71790        6.11420
H          5.00980        2.26750        8.30250
H          7.43970        2.11520       10.99370
H          6.65170        3.12480        9.75720
H          5.79060        1.71990       10.45170
H          8.37030       -0.24830        7.47800
H          6.54790       -4.19030       -0.52810
H          7.18820       -3.88380        1.09180
H          7.62960       -2.11720       -1.36540
H          8.81940       -3.19590       -0.62690
H          8.25660       -1.77420        0.25070
H         -6.71460        1.08100       -6.96250
H         -5.75070       -0.40550       -7.04830
H         -6.99760       -1.32930       -5.10000
H         -7.94730        0.15020       -4.98920
H         -8.10580       -0.89680       -6.40660
H         -0.34020        0.04420       -0.28100
H          1.20880        0.36780        0.54660
H         -0.24490       -2.32590        0.48070
H         -0.28930       -1.17690        1.82310
H          1.22720       -1.96430        1.39310
H         -1.61220        1.93380       -1.66490
H          0.10040        1.43420       -1.69660
H          0.26060        2.11790       -4.08250
H         -0.16360        3.46380       -3.01880
H         -1.40270        2.71300       -4.02280
H         -7.11810        2.83510       -5.68710
H         -8.73900        7.68490       -4.12550
H         -6.46830        5.76840       -0.11990
