
  xtb     02012223123D
 energy: -190.008834521868 gnorm: 0.000725352721 xtb: 6.4.1 (unknown)
101112  0     0  0            999 V2000
    6.3375   -1.6812    2.6313 C   0  0  0  0  0  0  0  0  0  0  0  0
    6.3060   -0.9687    3.8033 C   0  0  0  0  0  0  0  0  0  0  0  0
    5.2391   -0.0566    4.2364 C   0  0  0  0  0  0  0  0  0  0  0  0
    4.2248    0.2390    3.6245 O   0  0  0  0  0  0  0  0  0  0  0  0
    5.6307    0.4275    5.5631 C   0  0  0  0  0  0  0  0  0  0  0  0
    4.9660    1.2908    6.4107 C   0  0  0  0  0  0  0  0  0  0  0  0
    5.5292    1.5942    7.6396 C   0  0  0  0  0  0  0  0  0  0  0  0
    6.7522    1.0330    8.0131 C   0  0  0  0  0  0  0  0  0  0  0  0
    7.3736    1.2621    9.1881 O   0  0  0  0  0  0  0  0  0  0  0  0
    6.7657    2.1057   10.1392 C   0  0  0  0  0  0  0  0  0  0  0  0
    7.4300    0.1592    7.1470 C   0  0  0  0  0  0  0  0  0  0  0  0
    6.8676   -0.1413    5.9260 C   0  0  0  0  0  0  0  0  0  0  0  0
    7.3202   -1.0102    4.8380 C   0  0  0  0  0  0  0  0  0  0  0  0
    8.4950   -1.7170    4.8300 C   0  0  0  0  0  0  0  0  0  0  0  0
    8.9473   -2.5575    3.7919 C   0  0  0  0  0  0  0  0  0  0  0  0
    9.3873   -3.2586    2.9943 N   0  0  0  0  0  0  0  0  0  0  0  0
    9.4396   -1.6992    5.8784 C   0  0  0  0  0  0  0  0  0  0  0  0
   10.2562   -1.7365    6.6844 N   0  0  0  0  0  0  0  0  0  0  0  0
    5.4252   -1.7461    1.5707 C   0  0  0  0  0  0  0  0  0  0  0  0
    5.6261   -2.5639    0.4451 C   0  0  0  0  0  0  0  0  0  0  0  0
    6.8300   -3.4070    0.1783 C   0  0  0  0  0  0  0  0  0  0  0  0
    7.9561   -2.5668   -0.4305 C   0  0  0  0  0  0  0  0  0  0  0  0
    4.5707   -2.4561   -0.4514 C   0  0  0  0  0  0  0  0  0  0  0  0
    4.2456   -3.2244   -1.9947 S   0  0  0  0  0  0  0  0  0  0  0  0
    2.7533   -2.3541   -2.0810 C   0  0  0  0  0  0  0  0  0  0  0  0
    1.6406   -2.2335   -2.9287 C   0  0  0  0  0  0  0  0  0  0  0  0
    1.2205   -2.9363   -4.0825 C   0  0  0  0  0  0  0  0  0  0  0  0
   -0.0867   -2.6761   -4.6275 C   0  0  0  0  0  0  0  0  0  0  0  0
   -0.3715   -3.4657   -5.6500 N   0  0  0  0  0  0  0  0  0  0  0  0
    0.8900   -4.4450   -5.9141 S   0  0  0  0  0  0  0  0  0  0  0  0
    1.8507   -3.9016   -4.7316 N   0  0  0  0  0  0  0  0  0  0  0  0
   -0.8560   -1.6137   -4.0972 C   0  0  0  0  0  0  0  0  0  0  0  0
   -2.0676   -1.0182   -4.4830 C   0  0  0  0  0  0  0  0  0  0  0  0
   -3.3488   -1.2790   -5.6113 S   0  0  0  0  0  0  0  0  0  0  0  0
   -4.1345    0.1669   -5.0192 C   0  0  0  0  0  0  0  0  0  0  0  0
   -5.3237    0.8039   -5.3721 C   0  0  0  0  0  0  0  0  0  0  0  0
   -6.2862    0.2665   -6.3750 C   0  0  0  0  0  0  0  0  0  0  0  0
   -7.4088   -0.5020   -5.6724 C   0  0  0  0  0  0  0  0  0  0  0  0
   -5.5469    1.9369   -4.5902 C   0  0  0  0  0  0  0  0  0  0  0  0
   -4.2306    2.2204   -3.4458 S   0  0  0  0  0  0  0  0  0  0  0  0
   -3.4153    0.8067   -3.9970 C   0  0  0  0  0  0  0  0  0  0  0  0
   -2.2400    0.1258   -3.6862 C   0  0  0  0  0  0  0  0  0  0  0  0
   -1.1951    0.2458   -2.8032 N   0  0  0  0  0  0  0  0  0  0  0  0
   -0.3600   -0.8332   -3.0192 C   0  0  0  0  0  0  0  0  0  0  0  0
    0.7962   -1.2574   -2.3324 C   0  0  0  0  0  0  0  0  0  0  0  0
    1.3356   -0.8516   -1.1286 N   0  0  0  0  0  0  0  0  0  0  0  0
    2.5292   -1.5123   -0.9811 C   0  0  0  0  0  0  0  0  0  0  0  0
    3.5603   -1.5714   -0.0403 C   0  0  0  0  0  0  0  0  0  0  0  0
    3.9092   -0.8482    1.4844 S   0  0  0  0  0  0  0  0  0  0  0  0
    0.6060   -0.3894    0.0364 C   0  0  0  0  0  0  0  0  0  0  0  0
    0.3093   -1.5427    0.9940 C   0  0  0  0  0  0  0  0  0  0  0  0
   -0.8038    1.5447   -2.2922 C   0  0  0  0  0  0  0  0  0  0  0  0
   -0.5120    2.5212   -3.4312 C   0  0  0  0  0  0  0  0  0  0  0  0
   -6.6151    2.8395   -4.7245 C   0  0  0  0  0  0  0  0  0  0  0  0
   -7.0437    3.8079   -3.8590 C   0  0  0  0  0  0  0  0  0  0  0  0
   -7.8126    4.9659   -4.3689 C   0  0  0  0  0  0  0  0  0  0  0  0
   -8.3190    5.0875   -5.4607 O   0  0  0  0  0  0  0  0  0  0  0  0
   -7.7730    5.9634   -3.2713 C   0  0  0  0  0  0  0  0  0  0  0  0
   -8.2435    7.2612   -3.2666 C   0  0  0  0  0  0  0  0  0  0  0  0
   -8.0586    8.0089   -2.1141 C   0  0  0  0  0  0  0  0  0  0  0  0
   -8.4962    9.2736   -2.0681 F   0  0  0  0  0  0  0  0  0  0  0  0
   -7.4194    7.4603   -1.0021 C   0  0  0  0  0  0  0  0  0  0  0  0
   -7.2431    8.2118    0.0912 F   0  0  0  0  0  0  0  0  0  0  0  0
   -6.9571    6.1525   -1.0006 C   0  0  0  0  0  0  0  0  0  0  0  0
   -7.1377    5.4012   -2.1496 C   0  0  0  0  0  0  0  0  0  0  0  0
   -6.8098    4.0077   -2.4495 C   0  0  0  0  0  0  0  0  0  0  0  0
   -6.6079    3.0209   -1.5182 C   0  0  0  0  0  0  0  0  0  0  0  0
   -6.6519    1.6494   -1.8447 C   0  0  0  0  0  0  0  0  0  0  0  0
   -6.7465    0.5287   -2.0754 N   0  0  0  0  0  0  0  0  0  0  0  0
   -6.4297    3.2593   -0.1423 C   0  0  0  0  0  0  0  0  0  0  0  0
   -6.2444    3.4059    0.9810 N   0  0  0  0  0  0  0  0  0  0  0  0
    7.2023   -2.3138    2.4866 H   0  0  0  0  0  0  0  0  0  0  0  0
    4.0204    1.7179    6.1142 H   0  0  0  0  0  0  0  0  0  0  0  0
    5.0098    2.2675    8.3025 H   0  0  0  0  0  0  0  0  0  0  0  0
    7.4397    2.1152   10.9937 H   0  0  0  0  0  0  0  0  0  0  0  0
    6.6517    3.1248    9.7572 H   0  0  0  0  0  0  0  0  0  0  0  0
    5.7906    1.7199   10.4517 H   0  0  0  0  0  0  0  0  0  0  0  0
    8.3703   -0.2483    7.4780 H   0  0  0  0  0  0  0  0  0  0  0  0
    6.5479   -4.1903   -0.5281 H   0  0  0  0  0  0  0  0  0  0  0  0
    7.1882   -3.8838    1.0918 H   0  0  0  0  0  0  0  0  0  0  0  0
    7.6296   -2.1172   -1.3654 H   0  0  0  0  0  0  0  0  0  0  0  0
    8.8194   -3.1959   -0.6269 H   0  0  0  0  0  0  0  0  0  0  0  0
    8.2566   -1.7742    0.2507 H   0  0  0  0  0  0  0  0  0  0  0  0
   -6.7146    1.0810   -6.9625 H   0  0  0  0  0  0  0  0  0  0  0  0
   -5.7507   -0.4055   -7.0483 H   0  0  0  0  0  0  0  0  0  0  0  0
   -6.9976   -1.3293   -5.1000 H   0  0  0  0  0  0  0  0  0  0  0  0
   -7.9473    0.1502   -4.9892 H   0  0  0  0  0  0  0  0  0  0  0  0
   -8.1058   -0.8968   -6.4066 H   0  0  0  0  0  0  0  0  0  0  0  0
   -0.3402    0.0442   -0.2810 H   0  0  0  0  0  0  0  0  0  0  0  0
    1.2088    0.3678    0.5466 H   0  0  0  0  0  0  0  0  0  0  0  0
   -0.2449   -2.3259    0.4807 H   0  0  0  0  0  0  0  0  0  0  0  0
   -0.2893   -1.1769    1.8231 H   0  0  0  0  0  0  0  0  0  0  0  0
    1.2272   -1.9643    1.3931 H   0  0  0  0  0  0  0  0  0  0  0  0
   -1.6122    1.9338   -1.6649 H   0  0  0  0  0  0  0  0  0  0  0  0
    0.1004    1.4342   -1.6966 H   0  0  0  0  0  0  0  0  0  0  0  0
    0.2606    2.1179   -4.0825 H   0  0  0  0  0  0  0  0  0  0  0  0
   -0.1636    3.4638   -3.0188 H   0  0  0  0  0  0  0  0  0  0  0  0
   -1.4027    2.7130   -4.0228 H   0  0  0  0  0  0  0  0  0  0  0  0
   -7.1181    2.8351   -5.6871 H   0  0  0  0  0  0  0  0  0  0  0  0
   -8.7390    7.6849   -4.1255 H   0  0  0  0  0  0  0  0  0  0  0  0
   -6.4683    5.7684   -0.1199 H   0  0  0  0  0  0  0  0  0  0  0  0
  1  2  2  0  0  0  0
  2  3  1  0  0  0  0
  3  4  2  0  0  0  0
  3  5  1  0  0  0  0
  5  6  2  0  0  0  0
  6  7  1  0  0  0  0
  7  8  2  0  0  0  0
  8  9  1  0  0  0  0
  9 10  1  0  0  0  0
  8 11  1  0  0  0  0
 11 12  2  0  0  0  0
 12 13  1  0  0  0  0
 13 14  2  0  0  0  0
 14 15  1  0  0  0  0
 15 16  3  0  0  0  0
 14 17  1  0  0  0  0
 17 18  3  0  0  0  0
  1 19  1  0  0  0  0
 19 20  2  0  0  0  0
 20 21  1  0  0  0  0
 21 22  1  0  0  0  0
 20 23  1  0  0  0  0
 23 24  1  0  0  0  0
 24 25  1  0  0  0  0
 25 26  1  0  0  0  0
 26 27  1  0  0  0  0
 27 28  1  0  0  0  0
 28 29  2  0  0  0  0
 29 30  1  0  0  0  0
 30 31  1  0  0  0  0
 28 32  1  0  0  0  0
 32 33  1  0  0  0  0
 33 34  1  0  0  0  0
 34 35  1  0  0  0  0
 35 36  1  0  0  0  0
 36 37  1  0  0  0  0
 37 38  1  0  0  0  0
 36 39  2  0  0  0  0
 39 40  1  0  0  0  0
 40 41  1  0  0  0  0
 41 42  1  0  0  0  0
 42 43  1  0  0  0  0
 43 44  1  0  0  0  0
 44 45  1  0  0  0  0
 45 46  1  0  0  0  0
 46 47  1  0  0  0  0
 47 48  1  0  0  0  0
 48 49  1  0  0  0  0
 46 50  1  0  0  0  0
 50 51  1  0  0  0  0
 43 52  1  0  0  0  0
 52 53  1  0  0  0  0
 39 54  1  0  0  0  0
 54 55  2  0  0  0  0
 55 56  1  0  0  0  0
 56 57  2  0  0  0  0
 56 58  1  0  0  0  0
 58 59  2  0  0  0  0
 59 60  1  0  0  0  0
 60 61  1  0  0  0  0
 60 62  2  0  0  0  0
 62 63  1  0  0  0  0
 62 64  1  0  0  0  0
 64 65  2  0  0  0  0
 65 66  1  0  0  0  0
 66 67  2  0  0  0  0
 67 68  1  0  0  0  0
 68 69  3  0  0  0  0
 67 70  1  0  0  0  0
 70 71  3  0  0  0  0
 13  2  1  0  0  0  0
 49 19  1  0  0  0  0
 66 55  1  0  0  0  0
 12  5  1  0  0  0  0
 48 23  2  0  0  0  0
 65 58  1  0  0  0  0
 47 25  2  0  0  0  0
 45 26  2  0  0  0  0
 31 27  2  0  0  0  0
 44 32  2  0  0  0  0
 42 33  2  0  0  0  0
 41 35  2  0  0  0  0
  1 72  1  0  0  0  0
  6 73  1  0  0  0  0
  7 74  1  0  0  0  0
 10 75  1  0  0  0  0
 10 76  1  0  0  0  0
 10 77  1  0  0  0  0
 11 78  1  0  0  0  0
 21 79  1  0  0  0  0
 21 80  1  0  0  0  0
 22 81  1  0  0  0  0
 22 82  1  0  0  0  0
 22 83  1  0  0  0  0
 37 84  1  0  0  0  0
 37 85  1  0  0  0  0
 38 86  1  0  0  0  0
 38 87  1  0  0  0  0
 38 88  1  0  0  0  0
 50 89  1  0  0  0  0
 50 90  1  0  0  0  0
 51 91  1  0  0  0  0
 51 92  1  0  0  0  0
 51 93  1  0  0  0  0
 52 94  1  0  0  0  0
 52 95  1  0  0  0  0
 53 96  1  0  0  0  0
 53 97  1  0  0  0  0
 53 98  1  0  0  0  0
 54 99  1  0  0  0  0
 59100  1  0  0  0  0
 64101  1  0  0  0  0
M  END
