114

C         -5.08840       -5.79870       -4.57400
C         -5.43160       -5.18040       -5.75040
C         -4.73370       -4.05450       -6.36990
O         -3.82290       -3.38860       -5.90500
C         -5.32740       -3.89240       -7.71050
C         -4.96730       -3.00730       -8.70540
C         -5.64370       -3.08730       -9.91430
C         -6.61570       -4.04940      -10.12460
C         -6.97750       -4.95870       -9.12410
O         -7.85240       -5.96590       -9.28930
C         -8.60720       -6.06270      -10.47550
C         -6.34860       -4.84160       -7.87780
C         -6.52140       -5.57680       -6.63000
C         -7.58950       -6.36130       -6.27800
C         -7.74130       -6.99130       -5.02350
N         -7.95370       -7.53080       -4.03100
C         -8.76950       -6.58830       -7.02080
N         -9.80620       -6.80990       -7.46250
C         -4.11990       -5.47070       -3.61800
C         -3.89780       -6.22260       -2.45400
C         -4.61890       -7.46840       -2.05420
C         -5.90650       -7.13170       -1.29890
C         -2.94200       -5.63470       -1.63490
Se        -2.23210       -6.12740        0.05600
C         -1.23090       -4.56930       -0.11290
C         -0.27030       -3.85600        0.60980
C          0.35650       -4.18070        1.83080
C          1.36470       -3.30420        2.33610
N          1.89750       -3.73540        3.46830
S          1.18080       -5.13630        3.86350
N          0.16560       -5.23890        2.60240
C          1.63240       -2.11000        1.63580
C          2.46950       -1.04590        1.98660
Se         3.64610       -0.58370        3.34540
C          3.80260        1.06910        2.43050
C          4.46980        2.27000        2.72220
C          5.42930        2.44880        3.85190
C          6.47260        1.33640        3.91960
C          4.20670        3.23930        1.76470
S          3.19280        2.62930        0.45980
C          3.03090        1.11050        1.26010
C          2.29360       -0.05640        1.01480
N          1.40120       -0.48920        0.06840
C          0.96840       -1.75570        0.42710
C          0.05450       -2.68860       -0.14100
N         -0.68470       -2.72440       -1.31100
C         -1.45910       -3.85550       -1.29510
C         -2.40850       -4.43930       -2.14480
S         -3.08900       -4.04090       -3.67860
C         -0.50380       -2.00710       -2.55330
C          0.87560       -2.27350       -3.15160
C          0.83700        0.45590       -0.86730
C         -0.57540        0.86720       -0.45700
C          4.63740        4.58140        1.65570
C          4.76110        5.47300        2.68330
C          4.07530        5.34250        3.99060
O          3.47700        4.37970        4.42430
C          4.15920        6.67760        4.61390
C          3.59890        7.06490        5.82860
C          3.81490        8.38350        6.14970
C          4.52610        9.25940        5.31850
C          5.08070        8.89200        4.11560
C          4.87970        7.55140        3.77470
C          5.30520        6.81190        2.59140
C          6.14360        7.26740        1.60720
C          6.68340        8.56850        1.55680
N          7.15110        9.61190        1.45230
C          6.61120        6.47660        0.53670
N          7.04640        5.88380       -0.34560
C          4.34890       10.42390        6.26060
C          5.55820       10.83370        7.13670
C          6.39970        9.59370        7.31050
C          5.73380        8.76010        8.09840
C          4.43050        9.42170        8.47250
C          4.87490       10.89240        8.51230
C          3.56290        9.44580        7.18960
H         -5.64420       -6.69370       -4.32820
H         -4.18520       -2.28480       -8.53580
H         -5.40050       -2.40460      -10.71450
H         -7.09550       -4.10230      -11.08910
H         -9.31260       -6.87180      -10.29460
H         -9.16000       -5.14050      -10.67290
H         -7.97300       -6.30770      -11.33300
H         -4.85300       -8.08790       -2.92070
H         -3.95740       -8.03820       -1.39310
H         -6.38400       -8.04560       -0.95770
H         -5.68190       -6.50930       -0.43490
H         -6.60440       -6.60350       -1.94350
H          4.85900        2.47980        4.78470
H          5.93460        3.40980        3.74120
H          7.00200        1.25240        2.97290
H          7.19420        1.55970        4.70130
H          6.01210        0.37540        4.14810
H         -1.26810       -2.37360       -3.24210
H         -0.68690       -0.94220       -2.41260
H          0.99520       -1.70860       -4.07210
H          0.98070       -3.33140       -3.38050
H          1.66900       -1.99680       -2.46040
H          1.48460        1.33550       -0.85590
H          0.86400        0.05340       -1.87890
H         -1.22780        0.00100       -0.37110
H         -0.54920        1.36860        0.50780
H         -0.99180        1.55190       -1.19080
H          4.80120        4.93550        0.64380
H          3.05070        6.36080        6.43500
H          5.61640        9.57770        3.48020
H          3.81610       11.28360        5.85910
H          6.08000       11.72450        6.79760
H          7.33700        9.43190        6.81130
H          6.00360        7.76160        8.38920
H          3.92640        9.02670        9.35070
H          5.57380       11.09950        9.32130
H          4.04430       11.59570        8.55460
H          2.51880        9.67000        7.40010
