102

C          7.67160        2.70530       -5.29530
C          7.32580        3.91200       -5.85430
C          5.97200        4.43430       -5.94020
O          4.94650        3.92060       -5.50370
C          6.05430        5.70290       -6.67860
C          5.03000        6.55200       -7.04420
C          5.36000        7.67300       -7.79240
C          6.66460        7.90310       -8.19110
C          7.70670        7.03750       -7.83650
O          8.97520        7.16390       -8.25890
C          9.37580        8.30750       -8.97900
C          7.39660        5.94070       -7.02130
C          8.23070        4.89330       -6.43920
C          9.59700        4.89260       -6.33180
C         10.36300        3.85850       -5.74820
N         11.07250        3.07120       -5.30400
C         10.48880        5.93460       -6.67400
N         11.32830        6.70330       -6.82580
C          6.88910        1.74600       -4.63860
C          7.47370        0.60330       -4.08530
C          6.60890       -0.22550       -3.39600
S          6.91810       -1.68400       -2.46800
C          5.24700       -1.72020       -2.02490
C          4.38440       -2.42620       -1.17580
C          4.65210       -3.44180       -0.23090
C          3.61560       -3.82690        0.68140
N          4.02460       -4.72710        1.56140
S          5.57870       -5.06700        1.26210
N          5.79110       -4.07460        0.00130
C          2.32550       -3.27600        0.51820
C          1.12510       -3.53260        1.19550
C          0.11830       -2.82690        0.52600
N          0.65980       -2.12440       -0.51860
C         -0.21230       -1.58040       -1.53290
C         -0.81600       -0.23790       -1.12080
C          2.02470       -2.35350       -0.52620
C          3.09470       -1.82520       -1.29600
N          3.19150       -0.77070       -2.18720
C          4.49580       -0.69040       -2.60090
C          5.26040        0.18750       -3.37330
Se         5.02070        1.79200       -4.29600
C          2.36200        0.39750       -2.37130
C          2.59300        1.41370       -1.25540
C         -1.14440       -3.03540        1.09050
C         -1.06270       -3.86700        2.22460
S          0.55730       -4.43680        2.55210
C         -2.24800       -4.07860        2.92480
C         -3.35040       -3.45300        2.37980
Se        -2.90710       -2.52040        0.77700
C         -4.69170       -3.38820        2.81330
C         -5.18170       -3.49200        4.08340
C         -4.39970       -3.41650        5.34150
O         -3.20980       -3.58490        5.50350
C         -5.37190       -3.02710        6.38180
C         -5.08510       -2.69060        7.70250
C         -6.18720       -2.32780        8.43860
C         -7.48210       -2.30020        7.90240
C         -7.77970       -2.63350        6.60250
C         -6.67120       -3.00570        5.83690
C         -6.58660       -3.38480        4.43130
C         -7.64170       -3.66880        3.60480
C         -8.99550       -3.59650        3.99160
N        -10.11470       -3.55410        4.24430
C         -7.51000       -4.12390        2.27550
N         -7.47250       -4.51260        1.19550
C         -8.09420       -1.83140        9.19840
C         -8.84700       -2.87400       10.06090
C         -8.24330       -4.21720        9.73320
C         -7.01850       -4.24540       10.24130
C         -6.77160       -2.92150       10.92140
C         -8.18940       -2.60630       11.42420
C         -6.65220       -1.86430        9.79610
H          8.71810        2.42840       -5.34740
H          4.01450        6.33850       -6.75230
H          4.59060        8.37030       -8.08760
H          6.87790        8.76750       -8.79980
H          8.90680        8.34160       -9.96700
H          9.15090        9.22460       -8.42800
H         10.45460        8.20810       -9.08520
H          8.52980        0.41070       -4.17250
H         -1.03210       -2.29700       -1.67710
H          0.33350       -1.51920       -2.47600
H         -0.05250        0.46610       -0.80300
H         -1.37010        0.18840       -1.95260
H         -1.50480       -0.38100       -0.28930
H          2.64960        0.84230       -3.33270
H          1.31380        0.12890       -2.42970
H          1.95820        2.28210       -1.40750
H          2.37170        0.97400       -0.28450
H          3.63040        1.74240       -1.25690
H         -2.30370       -4.68290        3.81100
H         -5.40350       -3.13620        2.03190
H         -4.07270       -2.71810        8.07410
H         -8.77760       -2.59680        6.19780
H         -8.60920       -0.87330        9.16190
H         -9.93020       -2.80800       10.00490
H         -8.73260       -4.96290        9.13450
H         -6.27920       -5.01970       10.15200
H         -5.96510       -2.89840       11.64970
H         -8.30910       -1.58030       11.76960
H         -8.52540       -3.29620       12.19670
H         -6.22590       -0.92760       10.15050
