101

C          1.24430        6.21180       -4.54230
C          2.45340        6.67290       -4.09050
C          3.15320        6.28410       -2.86380
O          2.76920        5.51280       -2.00100
C          4.44060        7.00620       -2.87360
C          5.43410        7.00540       -1.92140
C          6.58960        7.73420       -2.19160
C          6.77280        8.32150       -3.42500
C          5.79200        8.27030       -4.43020
O          6.18480        8.68980       -5.65420
C          5.64310        8.06610       -6.79900
C          4.55510        7.71800       -4.08850
C          3.24790        7.70620       -4.73220
C          2.77770        8.70010       -5.55550
C          3.49210        9.89870       -5.77400
N          4.01140       10.91380       -5.90320
C          1.49760        8.72670       -6.14070
N          0.48070        8.78890       -6.67260
C          0.38080        5.24570       -4.01160
C         -0.83120        4.88080       -4.62100
C         -1.37740        5.44840       -5.89060
C         -0.80960        4.70780       -7.10460
C         -1.46450        3.86520       -3.91560
S         -2.96300        2.99080       -4.17990
C         -2.63390        2.05380       -2.76270
C         -3.20350        1.00940       -2.01850
C         -4.44480        0.34010       -2.11720
C         -4.77860       -0.65880       -1.14010
N         -5.98990       -1.15820       -1.32290
S         -6.65390       -0.44040       -2.61340
N         -5.41920        0.53610       -2.99050
C         -3.80100       -1.04700       -0.19470
C         -3.74790       -2.12050        0.70380
S         -4.75580       -3.41300        1.25620
C         -3.40090       -4.03100        2.18490
C         -3.25270       -5.15260        2.98670
C         -4.37450       -6.09360        3.28100
C         -5.04560       -5.74110        4.61150
C         -1.94610       -5.24390        3.50500
S         -0.92630       -3.90590        2.97170
C         -2.23690       -3.24880        2.06870
C         -2.44870       -2.15120        1.23220
N         -1.71340       -1.11630        0.71790
C         -2.52520       -0.41300       -0.14630
C         -2.28970        0.71840       -0.96500
N         -1.23350        1.60800       -1.02840
C         -1.43720        2.40490       -2.12530
C         -0.76620        3.44530       -2.77130
S          0.69250        4.32900       -2.53650
C         -0.41340        2.11150        0.05370
C         -1.02080        3.37710        0.65820
C         -0.27180       -1.10940        0.84400
C          0.18890       -0.66890        2.23350
C         -1.52440       -6.29150        4.32550
C         -0.30490       -6.54830        4.91000
C          0.89020       -5.70830        4.81500
O          1.01030       -4.65640        4.21110
C          1.93330       -6.39030        5.60360
C          3.24820       -6.02580        5.83870
Cl         3.89920       -4.58290        5.17520
C          4.04340       -6.85460        6.62740
C          3.51690       -8.01670        7.16140
C          2.19810       -8.39400        6.93220
C          1.40400       -7.57600        6.14780
C          0.00650       -7.70070        5.72560
C         -0.82250       -8.74450        6.05290
C         -2.16440       -8.89210        5.64520
N         -3.25930       -9.09140        5.35770
C         -0.44300       -9.84170        6.85410
N         -0.20870      -10.76370        7.49700
H          0.89720        6.63340       -5.47650
H          5.30420        6.46380       -0.99810
H          7.37240        7.79690       -1.45150
H          7.70080        8.81300       -3.67130
H          5.30150        7.05090       -6.57650
H          6.45140        8.02580       -7.52990
H          4.81740        8.64130       -7.22550
H         -2.46230        5.32740       -5.87830
H         -1.15390        6.51310       -5.97200
H         -1.06540        3.65190       -7.05600
H          0.27370        4.79970       -7.14110
H         -1.22340        5.12480       -8.01850
H         -4.02290       -7.12590        3.31580
H         -5.10950       -6.00930        2.47820
H         -5.86190       -6.43090        4.80510
H         -5.44240       -4.72910        4.57850
H         -4.33510       -5.80960        5.43190
H          0.57980        2.33450       -0.34720
H         -0.33190        1.36100        0.83090
H         -2.02570        3.17650        1.02460
H         -0.40540        3.71370        1.48770
H         -1.06970        4.17470       -0.07770
H          0.14590       -0.48020        0.05720
H          0.08060       -2.13270        0.67310
H         -0.03390       -1.43980        2.96550
H         -0.30380        0.24810        2.55020
H          1.26310       -0.50780        2.22750
H         -2.30040       -7.01870        4.52120
H          5.06920       -6.58030        6.81550
H          4.14510       -8.64810        7.77080
H          1.81980       -9.30590        7.36270
