
  xtb     02032200113D
 energy: -207.989033538602 gnorm: 0.000488532747 xtb: 6.4.1 (unknown)
123137  0     0  0            999 V2000
    2.0484   -2.1098   -8.3020 C   0  0  0  0  0  0  0  0  0  0  0  0
    1.2462   -1.2756   -9.0395 C   0  0  0  0  0  0  0  0  0  0  0  0
    0.1230   -0.4866   -8.5355 C   0  0  0  0  0  0  0  0  0  0  0  0
   -0.2194   -0.3259   -7.3756 O   0  0  0  0  0  0  0  0  0  0  0  0
   -0.5491    0.0728   -9.7239 C   0  0  0  0  0  0  0  0  0  0  0  0
   -1.7036    0.8257   -9.7801 C   0  0  0  0  0  0  0  0  0  0  0  0
   -2.1793    1.1825  -11.0338 C   0  0  0  0  0  0  0  0  0  0  0  0
   -1.5395    0.7596  -12.1855 C   0  0  0  0  0  0  0  0  0  0  0  0
   -0.3756   -0.0163  -12.1364 C   0  0  0  0  0  0  0  0  0  0  0  0
    0.2426   -0.5315  -13.2136 O   0  0  0  0  0  0  0  0  0  0  0  0
   -0.1686   -0.1637  -14.5102 C   0  0  0  0  0  0  0  0  0  0  0  0
    0.1525   -0.3207  -10.8750 C   0  0  0  0  0  0  0  0  0  0  0  0
    1.3442   -1.0607  -10.4751 C   0  0  0  0  0  0  0  0  0  0  0  0
    2.4272   -1.3637  -11.2610 C   0  0  0  0  0  0  0  0  0  0  0  0
    3.5675   -2.0702  -10.8213 C   0  0  0  0  0  0  0  0  0  0  0  0
    4.5261   -2.6442  -10.5503 N   0  0  0  0  0  0  0  0  0  0  0  0
    2.6588   -0.9406  -12.5885 C   0  0  0  0  0  0  0  0  0  0  0  0
    3.0167   -0.6095  -13.6284 N   0  0  0  0  0  0  0  0  0  0  0  0
    2.0925   -2.3602   -6.9265 C   0  0  0  0  0  0  0  0  0  0  0  0
    2.9679   -3.2931   -6.3454 C   0  0  0  0  0  0  0  0  0  0  0  0
    3.9012   -4.1914   -7.0897 C   0  0  0  0  0  0  0  0  0  0  0  0
    3.1634   -5.4241   -7.6194 C   0  0  0  0  0  0  0  0  0  0  0  0
    2.8346   -3.3218   -4.9636 C   0  0  0  0  0  0  0  0  0  0  0  0
    1.8877   -2.4123   -4.4612 C   0  0  0  0  0  0  0  0  0  0  0  0
    1.1128   -1.5257   -5.7192 S   0  0  0  0  0  0  0  0  0  0  0  0
    1.8213   -2.4753   -3.0667 C   0  0  0  0  0  0  0  0  0  0  0  0
    2.6949   -3.4268   -2.5291 C   0  0  0  0  0  0  0  0  0  0  0  0
    3.6317   -4.2642   -3.7166 S   0  0  0  0  0  0  0  0  0  0  0  0
    2.5176   -3.4093   -1.1391 C   0  0  0  0  0  0  0  0  0  0  0  0
    3.0954   -4.2433   -0.1468 C   0  0  0  0  0  0  0  0  0  0  0  0
    3.9936   -5.1805   -0.4718 N   0  0  0  0  0  0  0  0  0  0  0  0
    4.4614   -5.9457    0.4921 C   0  0  0  0  0  0  0  0  0  0  0  0
    5.4679   -6.9792    0.1080 C   0  0  0  0  0  0  0  0  0  0  0  0
    4.0241   -5.7912    1.8313 C   0  0  0  0  0  0  0  0  0  0  0  0
    4.5399   -6.6586    2.9314 C   0  0  0  0  0  0  0  0  0  0  0  0
    3.1457   -4.8674    2.1608 N   0  0  0  0  0  0  0  0  0  0  0  0
    2.6734   -4.0781    1.1889 C   0  0  0  0  0  0  0  0  0  0  0  0
    1.7760   -3.0178    1.4799 C   0  0  0  0  0  0  0  0  0  0  0  0
    1.3159   -2.5603    2.7218 C   0  0  0  0  0  0  0  0  0  0  0  0
    1.4415   -2.9754    4.3953 S   0  0  0  0  0  0  0  0  0  0  0  0
    0.5037   -1.5447    4.7874 C   0  0  0  0  0  0  0  0  0  0  0  0
    0.1006   -0.9913    5.9951 C   0  0  0  0  0  0  0  0  0  0  0  0
    0.3598   -1.6493    7.3109 C   0  0  0  0  0  0  0  0  0  0  0  0
   -0.8516   -2.4753    7.7522 C   0  0  0  0  0  0  0  0  0  0  0  0
   -0.6045    0.2097    5.8007 C   0  0  0  0  0  0  0  0  0  0  0  0
   -0.7605    0.6183    4.0905 S   0  0  0  0  0  0  0  0  0  0  0  0
    0.1138   -0.8024    3.6590 C   0  0  0  0  0  0  0  0  0  0  0  0
    0.5730   -1.3988    2.4819 C   0  0  0  0  0  0  0  0  0  0  0  0
    0.5201   -1.1466    1.1373 N   0  0  0  0  0  0  0  0  0  0  0  0
    0.0708    0.1454    0.6708 C   0  0  0  0  0  0  0  0  0  0  0  0
    1.2422    1.0107    0.2124 C   0  0  0  0  0  0  0  0  0  0  0  0
    1.2528   -2.1289    0.4956 C   0  0  0  0  0  0  0  0  0  0  0  0
    1.5532   -2.3971   -0.8615 C   0  0  0  0  0  0  0  0  0  0  0  0
    1.1359   -1.8473   -2.0613 N   0  0  0  0  0  0  0  0  0  0  0  0
   -0.0457   -1.0770   -2.3791 C   0  0  0  0  0  0  0  0  0  0  0  0
   -1.3186   -1.8201   -1.9808 C   0  0  0  0  0  0  0  0  0  0  0  0
   -1.0949    0.9862    6.8550 C   0  0  0  0  0  0  0  0  0  0  0  0
   -1.7430    2.1974    6.8554 C   0  0  0  0  0  0  0  0  0  0  0  0
   -2.0742    3.0054    5.6799 C   0  0  0  0  0  0  0  0  0  0  0  0
   -1.9074    2.7173    4.5055 O   0  0  0  0  0  0  0  0  0  0  0  0
   -2.6488    4.2624    6.1871 C   0  0  0  0  0  0  0  0  0  0  0  0
   -3.0709    5.3544    5.4335 C   0  0  0  0  0  0  0  0  0  0  0  0
   -3.5331    6.4070    6.1863 C   0  0  0  0  0  0  0  0  0  0  0  0
   -3.5754    6.3730    7.5860 C   0  0  0  0  0  0  0  0  0  0  0  0
   -3.1712    5.2969    8.3406 C   0  0  0  0  0  0  0  0  0  0  0  0
   -2.6937    4.2161    7.5947 C   0  0  0  0  0  0  0  0  0  0  0  0
   -2.1652    2.9247    8.0350 C   0  0  0  0  0  0  0  0  0  0  0  0
   -2.1089    2.4977    9.3384 C   0  0  0  0  0  0  0  0  0  0  0  0
   -1.6259    1.2483    9.7783 C   0  0  0  0  0  0  0  0  0  0  0  0
   -1.2559    0.2562   10.2263 N   0  0  0  0  0  0  0  0  0  0  0  0
   -2.5479    3.2515   10.4464 C   0  0  0  0  0  0  0  0  0  0  0  0
   -2.8841    3.8015   11.3970 N   0  0  0  0  0  0  0  0  0  0  0  0
   -4.1202    7.7758    7.6831 C   0  0  0  0  0  0  0  0  0  0  0  0
   -3.1342    8.9030    8.0789 C   0  0  0  0  0  0  0  0  0  0  0  0
   -1.7634    8.4490    7.6424 C   0  0  0  0  0  0  0  0  0  0  0  0
   -1.7286    8.4821    6.3170 C   0  0  0  0  0  0  0  0  0  0  0  0
   -3.0760    8.9582    5.8332 C   0  0  0  0  0  0  0  0  0  0  0  0
   -3.4469    9.9221    6.9716 C   0  0  0  0  0  0  0  0  0  0  0  0
   -4.0772    7.8124    6.1228 C   0  0  0  0  0  0  0  0  0  0  0  0
    2.7647   -2.6937   -8.8632 H   0  0  0  0  0  0  0  0  0  0  0  0
   -2.2095    1.1168   -8.8736 H   0  0  0  0  0  0  0  0  0  0  0  0
   -3.0733    1.7815  -11.1210 H   0  0  0  0  0  0  0  0  0  0  0  0
   -1.9593    1.0271  -13.1422 H   0  0  0  0  0  0  0  0  0  0  0  0
   -0.1518    0.9215  -14.6411 H   0  0  0  0  0  0  0  0  0  0  0  0
    0.5636   -0.6161  -15.1766 H   0  0  0  0  0  0  0  0  0  0  0  0
   -1.1665   -0.5510  -14.7375 H   0  0  0  0  0  0  0  0  0  0  0  0
    4.6841   -4.5141   -6.4007 H   0  0  0  0  0  0  0  0  0  0  0  0
    4.3735   -3.6628   -7.9195 H   0  0  0  0  0  0  0  0  0  0  0  0
    3.8579   -6.0733   -8.1453 H   0  0  0  0  0  0  0  0  0  0  0  0
    2.3718   -5.1342   -8.3068 H   0  0  0  0  0  0  0  0  0  0  0  0
    2.7202   -5.9805   -6.7967 H   0  0  0  0  0  0  0  0  0  0  0  0
    5.6541   -6.9147   -0.9602 H   0  0  0  0  0  0  0  0  0  0  0  0
    5.1029   -7.9759    0.3519 H   0  0  0  0  0  0  0  0  0  0  0  0
    6.4004   -6.8211    0.6480 H   0  0  0  0  0  0  0  0  0  0  0  0
    4.3270   -7.7061    2.7233 H   0  0  0  0  0  0  0  0  0  0  0  0
    5.6191   -6.5475    3.0282 H   0  0  0  0  0  0  0  0  0  0  0  0
    4.0636   -6.3712    3.8643 H   0  0  0  0  0  0  0  0  0  0  0  0
    0.5942   -0.9125    8.0805 H   0  0  0  0  0  0  0  0  0  0  0  0
    1.2207   -2.3110    7.1963 H   0  0  0  0  0  0  0  0  0  0  0  0
   -0.6406   -2.9600    8.7010 H   0  0  0  0  0  0  0  0  0  0  0  0
   -1.0790   -3.2379    7.0110 H   0  0  0  0  0  0  0  0  0  0  0  0
   -1.7249   -1.8400    7.8788 H   0  0  0  0  0  0  0  0  0  0  0  0
   -0.6761    0.0300   -0.1145 H   0  0  0  0  0  0  0  0  0  0  0  0
   -0.4230    0.6284    1.5175 H   0  0  0  0  0  0  0  0  0  0  0  0
    1.8050    0.5252   -0.5819 H   0  0  0  0  0  0  0  0  0  0  0  0
    0.8767    1.9684   -0.1477 H   0  0  0  0  0  0  0  0  0  0  0  0
    1.9173    1.1902    1.0459 H   0  0  0  0  0  0  0  0  0  0  0  0
   -0.0390   -0.9297   -3.4618 H   0  0  0  0  0  0  0  0  0  0  0  0
    0.0037   -0.0895   -1.9204 H   0  0  0  0  0  0  0  0  0  0  0  0
   -1.3276   -2.0470   -0.9170 H   0  0  0  0  0  0  0  0  0  0  0  0
   -2.1898   -1.2170   -2.2209 H   0  0  0  0  0  0  0  0  0  0  0  0
   -1.3862   -2.7576   -2.5279 H   0  0  0  0  0  0  0  0  0  0  0  0
   -0.9021    0.5542    7.8276 H   0  0  0  0  0  0  0  0  0  0  0  0
   -3.0175    5.3381    4.3560 H   0  0  0  0  0  0  0  0  0  0  0  0
   -3.2112    5.2899    9.4168 H   0  0  0  0  0  0  0  0  0  0  0  0
   -5.0874    7.8815    8.1703 H   0  0  0  0  0  0  0  0  0  0  0  0
   -3.2228    9.2384    9.1087 H   0  0  0  0  0  0  0  0  0  0  0  0
   -1.0026    8.1063    8.3190 H   0  0  0  0  0  0  0  0  0  0  0  0
   -0.9329    8.1723    5.6649 H   0  0  0  0  0  0  0  0  0  0  0  0
   -3.1128    9.3448    4.8180 H   0  0  0  0  0  0  0  0  0  0  0  0
   -4.4897   10.2358    6.9523 H   0  0  0  0  0  0  0  0  0  0  0  0
   -2.8000   10.7973    7.0096 H   0  0  0  0  0  0  0  0  0  0  0  0
   -5.0180    7.9379    5.5902 H   0  0  0  0  0  0  0  0  0  0  0  0
  1  2  2  0  0  0  0
  2  3  1  0  0  0  0
  3  4  2  0  0  0  0
  3  5  1  0  0  0  0
  5  6  2  0  0  0  0
  6  7  1  0  0  0  0
  7  8  2  0  0  0  0
  8  9  1  0  0  0  0
  9 10  1  0  0  0  0
 10 11  1  0  0  0  0
  9 12  2  0  0  0  0
 12 13  1  0  0  0  0
 13 14  2  0  0  0  0
 14 15  1  0  0  0  0
 15 16  3  0  0  0  0
 14 17  1  0  0  0  0
 17 18  3  0  0  0  0
  1 19  1  0  0  0  0
 19 20  2  0  0  0  0
 20 21  1  0  0  0  0
 21 22  1  0  0  0  0
 20 23  1  0  0  0  0
 23 24  2  0  0  0  0
 24 25  1  0  0  0  0
 24 26  1  0  0  0  0
 26 27  2  0  0  0  0
 27 28  1  0  0  0  0
 27 29  1  0  0  0  0
 29 30  2  0  0  0  0
 30 31  1  0  0  0  0
 31 32  2  0  0  0  0
 32 33  1  0  0  0  0
 32 34  1  0  0  0  0
 34 35  1  0  0  0  0
 34 36  2  0  0  0  0
 36 37  1  0  0  0  0
 37 38  2  0  0  0  0
 38 39  1  0  0  0  0
 39 40  1  0  0  0  0
 40 41  1  0  0  0  0
 41 42  1  0  0  0  0
 42 43  1  0  0  0  0
 43 44  1  0  0  0  0
 42 45  2  0  0  0  0
 45 46  1  0  0  0  0
 46 47  1  0  0  0  0
 47 48  1  0  0  0  0
 48 49  1  0  0  0  0
 49 50  1  0  0  0  0
 50 51  1  0  0  0  0
 49 52  1  0  0  0  0
 52 53  2  0  0  0  0
 53 54  1  0  0  0  0
 54 55  1  0  0  0  0
 55 56  1  0  0  0  0
 45 57  1  0  0  0  0
 57 58  2  0  0  0  0
 58 59  1  0  0  0  0
 59 60  2  0  0  0  0
 59 61  1  0  0  0  0
 61 62  2  0  0  0  0
 62 63  1  0  0  0  0
 63 64  2  0  0  0  0
 64 65  1  0  0  0  0
 65 66  2  0  0  0  0
 66 67  1  0  0  0  0
 67 68  2  0  0  0  0
 68 69  1  0  0  0  0
 69 70  3  0  0  0  0
 68 71  1  0  0  0  0
 71 72  3  0  0  0  0
 64 73  1  0  0  0  0
 73 74  1  0  0  0  0
 74 75  1  0  0  0  0
 75 76  2  0  0  0  0
 76 77  1  0  0  0  0
 77 78  1  0  0  0  0
 77 79  1  0  0  0  0
 13  2  1  0  0  0  0
 25 19  1  0  0  0  0
 54 26  1  0  0  0  0
 67 58  1  0  0  0  0
 79 73  1  0  0  0  0
 12  5  1  0  0  0  0
 28 23  1  0  0  0  0
 53 29  1  0  0  0  0
 66 61  1  0  0  0  0
 78 74  1  0  0  0  0
 37 30  1  0  0  0  0
 52 38  1  0  0  0  0
 79 63  1  0  0  0  0
 48 39  2  0  0  0  0
 47 41  2  0  0  0  0
  1 80  1  0  0  0  0
  6 81  1  0  0  0  0
  7 82  1  0  0  0  0
  8 83  1  0  0  0  0
 11 84  1  0  0  0  0
 11 85  1  0  0  0  0
 11 86  1  0  0  0  0
 21 87  1  0  0  0  0
 21 88  1  0  0  0  0
 22 89  1  0  0  0  0
 22 90  1  0  0  0  0
 22 91  1  0  0  0  0
 33 92  1  0  0  0  0
 33 93  1  0  0  0  0
 33 94  1  0  0  0  0
 35 95  1  0  0  0  0
 35 96  1  0  0  0  0
 35 97  1  0  0  0  0
 43 98  1  0  0  0  0
 43 99  1  0  0  0  0
 44100  1  0  0  0  0
 44101  1  0  0  0  0
 44102  1  0  0  0  0
 50103  1  0  0  0  0
 50104  1  0  0  0  0
 51105  1  0  0  0  0
 51106  1  0  0  0  0
 51107  1  0  0  0  0
 55108  1  0  0  0  0
 55109  1  0  0  0  0
 56110  1  0  0  0  0
 56111  1  0  0  0  0
 56112  1  0  0  0  0
 57113  1  0  0  0  0
 62114  1  0  0  0  0
 65115  1  0  0  0  0
 73116  1  0  0  0  0
 74117  1  0  0  0  0
 75118  1  0  0  0  0
 76119  1  0  0  0  0
 77120  1  0  0  0  0
 78121  1  0  0  0  0
 78122  1  0  0  0  0
 79123  1  0  0  0  0
M  END
