
  xtb     02022203103D
 energy: -229.373431749839 gnorm: 0.000711122271 xtb: 6.4.1 (unknown)
134150  0     0  0            999 V2000
    0.3335    2.9984    8.3276 C   0  0  0  0  0  0  0  0  0  0  0  0
   -0.9646    3.2715    8.6734 C   0  0  0  0  0  0  0  0  0  0  0  0
   -2.1596    2.8165    7.9619 C   0  0  0  0  0  0  0  0  0  0  0  0
   -2.2166    2.2382    6.8886 O   0  0  0  0  0  0  0  0  0  0  0  0
   -3.3034    3.1864    8.8180 C   0  0  0  0  0  0  0  0  0  0  0  0
   -4.6415    2.9264    8.6061 C   0  0  0  0  0  0  0  0  0  0  0  0
   -5.5542    3.3664    9.5666 C   0  0  0  0  0  0  0  0  0  0  0  0
   -6.8909    3.1822    9.5009 O   0  0  0  0  0  0  0  0  0  0  0  0
   -7.4269    2.4826    8.4006 C   0  0  0  0  0  0  0  0  0  0  0  0
   -5.0905    4.0526   10.6980 C   0  0  0  0  0  0  0  0  0  0  0  0
   -3.7493    4.3106   10.8990 C   0  0  0  0  0  0  0  0  0  0  0  0
   -2.8333    3.8724    9.9500 C   0  0  0  0  0  0  0  0  0  0  0  0
   -1.3824    3.9811    9.8678 C   0  0  0  0  0  0  0  0  0  0  0  0
   -0.5799    4.6787   10.7346 C   0  0  0  0  0  0  0  0  0  0  0  0
    0.8119    4.8643   10.6000 C   0  0  0  0  0  0  0  0  0  0  0  0
    1.9385    5.0876   10.5569 N   0  0  0  0  0  0  0  0  0  0  0  0
   -1.0606    5.3541   11.8754 C   0  0  0  0  0  0  0  0  0  0  0  0
   -1.3888    5.9156   12.8217 N   0  0  0  0  0  0  0  0  0  0  0  0
    0.8583    2.3580    7.1997 C   0  0  0  0  0  0  0  0  0  0  0  0
    2.2397    2.1553    7.0473 C   0  0  0  0  0  0  0  0  0  0  0  0
    3.2125    2.4873    8.0998 C   0  0  0  0  0  0  0  0  0  0  0  0
    3.2509    1.6914    9.2409 C   0  0  0  0  0  0  0  0  0  0  0  0
    4.1388    1.9701   10.2614 C   0  0  0  0  0  0  0  0  0  0  0  0
    4.9894    3.0561   10.1501 C   0  0  0  0  0  0  0  0  0  0  0  0
    4.9476    3.8513    9.0204 C   0  0  0  0  0  0  0  0  0  0  0  0
    4.0683    3.5833    7.9803 C   0  0  0  0  0  0  0  0  0  0  0  0
    3.9890    4.5150    6.8049 C   0  0  0  0  0  0  0  0  0  0  0  0
    2.8655    5.5346    7.0084 C   0  0  0  0  0  0  0  0  0  0  0  0
    2.5415    1.5782    5.8209 C   0  0  0  0  0  0  0  0  0  0  0  0
    4.0508    1.0616    5.0937 S   0  0  0  0  0  0  0  0  0  0  0  0
    3.1574    0.5276    3.7112 C   0  0  0  0  0  0  0  0  0  0  0  0
    3.3834   -0.1253    2.4941 C   0  0  0  0  0  0  0  0  0  0  0  0
    4.5652   -0.6914    1.9672 C   0  0  0  0  0  0  0  0  0  0  0  0
    4.4885   -1.4341    0.7456 C   0  0  0  0  0  0  0  0  0  0  0  0
    5.6534   -1.9549    0.3945 N   0  0  0  0  0  0  0  0  0  0  0  0
    6.7548   -1.5410    1.5073 S   0  0  0  0  0  0  0  0  0  0  0  0
    5.7853   -0.6824    2.4798 N   0  0  0  0  0  0  0  0  0  0  0  0
    3.2577   -1.4804    0.0543 C   0  0  0  0  0  0  0  0  0  0  0  0
    2.9455   -2.0100   -1.2030 C   0  0  0  0  0  0  0  0  0  0  0  0
    3.7138   -2.8921   -2.4786 S   0  0  0  0  0  0  0  0  0  0  0  0
    2.2346   -2.7558   -3.4097 C   0  0  0  0  0  0  0  0  0  0  0  0
    1.8933   -3.1723   -4.6895 C   0  0  0  0  0  0  0  0  0  0  0  0
    2.7824   -3.9565   -5.5603 C   0  0  0  0  0  0  0  0  0  0  0  0
    3.3629   -3.4170   -6.7102 C   0  0  0  0  0  0  0  0  0  0  0  0
    3.1946   -1.9686   -7.0732 C   0  0  0  0  0  0  0  0  0  0  0  0
    4.2271   -1.1188   -6.3290 C   0  0  0  0  0  0  0  0  0  0  0  0
    4.1836   -4.2296   -7.4803 C   0  0  0  0  0  0  0  0  0  0  0  0
    4.4277   -5.5438   -7.1292 C   0  0  0  0  0  0  0  0  0  0  0  0
    3.8629   -6.0670   -5.9790 C   0  0  0  0  0  0  0  0  0  0  0  0
    3.0470   -5.2735   -5.1969 C   0  0  0  0  0  0  0  0  0  0  0  0
    0.5836   -2.7918   -5.0283 C   0  0  0  0  0  0  0  0  0  0  0  0
   -0.2066   -1.9041   -3.7284 S   0  0  0  0  0  0  0  0  0  0  0  0
    1.2074   -2.0578   -2.7500 C   0  0  0  0  0  0  0  0  0  0  0  0
    1.6202   -1.6518   -1.4774 C   0  0  0  0  0  0  0  0  0  0  0  0
    1.1030   -0.9462   -0.4255 N   0  0  0  0  0  0  0  0  0  0  0  0
    2.0792   -0.8394    0.5462 C   0  0  0  0  0  0  0  0  0  0  0  0
    2.1197   -0.2434    1.8383 C   0  0  0  0  0  0  0  0  0  0  0  0
    1.1570    0.2860    2.6765 N   0  0  0  0  0  0  0  0  0  0  0  0
    1.7789    0.7535    3.8023 C   0  0  0  0  0  0  0  0  0  0  0  0
    1.4115    1.3424    5.0162 C   0  0  0  0  0  0  0  0  0  0  0  0
   -0.0548    1.8090    5.7995 S   0  0  0  0  0  0  0  0  0  0  0  0
   -0.2867    0.2446    2.6432 C   0  0  0  0  0  0  0  0  0  0  0  0
   -0.8935    1.6170    2.3510 C   0  0  0  0  0  0  0  0  0  0  0  0
   -0.1942   -0.3277   -0.5708 C   0  0  0  0  0  0  0  0  0  0  0  0
   -1.3318   -1.3334   -0.3926 C   0  0  0  0  0  0  0  0  0  0  0  0
    0.0240   -3.1091   -6.2716 C   0  0  0  0  0  0  0  0  0  0  0  0
   -1.1963   -2.7850   -6.8085 C   0  0  0  0  0  0  0  0  0  0  0  0
   -2.2618   -2.0390   -6.1354 C   0  0  0  0  0  0  0  0  0  0  0  0
   -2.2499   -1.5853   -5.0017 O   0  0  0  0  0  0  0  0  0  0  0  0
   -3.3735   -1.9441   -7.0953 C   0  0  0  0  0  0  0  0  0  0  0  0
   -4.6001   -1.3145   -6.8991 C   0  0  0  0  0  0  0  0  0  0  0  0
   -5.4413   -1.3788   -7.9838 C   0  0  0  0  0  0  0  0  0  0  0  0
   -5.0904   -2.0298   -9.1736 C   0  0  0  0  0  0  0  0  0  0  0  0
   -3.8852   -2.6591   -9.3778 C   0  0  0  0  0  0  0  0  0  0  0  0
   -3.0102   -2.5981   -8.2900 C   0  0  0  0  0  0  0  0  0  0  0  0
   -1.6523   -3.1224   -8.1415 C   0  0  0  0  0  0  0  0  0  0  0  0
   -0.9477   -3.7811   -9.1168 C   0  0  0  0  0  0  0  0  0  0  0  0
    0.3777   -4.2531   -9.0132 C   0  0  0  0  0  0  0  0  0  0  0  0
    1.4537   -4.6561   -9.0373 N   0  0  0  0  0  0  0  0  0  0  0  0
   -1.4486   -4.0746  -10.4026 C   0  0  0  0  0  0  0  0  0  0  0  0
   -1.7845   -4.3542  -11.4646 N   0  0  0  0  0  0  0  0  0  0  0  0
   -6.4006   -1.6914   -9.8392 C   0  0  0  0  0  0  0  0  0  0  0  0
   -6.4041   -0.5414  -10.8766 C   0  0  0  0  0  0  0  0  0  0  0  0
   -5.2664    0.3763  -10.5035 C   0  0  0  0  0  0  0  0  0  0  0  0
   -5.5977    0.9950   -9.3780 C   0  0  0  0  0  0  0  0  0  0  0  0
   -6.9654    0.5063   -8.9695 C   0  0  0  0  0  0  0  0  0  0  0  0
   -7.5950    0.2771  -10.3529 C   0  0  0  0  0  0  0  0  0  0  0  0
   -6.7911   -0.9640   -8.5140 C   0  0  0  0  0  0  0  0  0  0  0  0
    1.1014    3.3119    9.0253 H   0  0  0  0  0  0  0  0  0  0  0  0
   -4.9402    2.3964    7.7158 H   0  0  0  0  0  0  0  0  0  0  0  0
   -7.2220    3.0002    7.4586 H   0  0  0  0  0  0  0  0  0  0  0  0
   -7.0380    1.4613    8.3486 H   0  0  0  0  0  0  0  0  0  0  0  0
   -8.5020    2.4513    8.5685 H   0  0  0  0  0  0  0  0  0  0  0  0
   -5.8232    4.3771   11.4197 H   0  0  0  0  0  0  0  0  0  0  0  0
   -3.4349    4.8382   11.7845 H   0  0  0  0  0  0  0  0  0  0  0  0
    2.5788    0.8479    9.3169 H   0  0  0  0  0  0  0  0  0  0  0  0
    4.1608    1.3457   11.1419 H   0  0  0  0  0  0  0  0  0  0  0  0
    5.6794    3.2874   10.9473 H   0  0  0  0  0  0  0  0  0  0  0  0
    5.6041    4.7056    8.9426 H   0  0  0  0  0  0  0  0  0  0  0  0
    4.9375    5.0449    6.7023 H   0  0  0  0  0  0  0  0  0  0  0  0
    3.8120    3.9575    5.8837 H   0  0  0  0  0  0  0  0  0  0  0  0
    1.8945    5.0438    7.0032 H   0  0  0  0  0  0  0  0  0  0  0  0
    2.8799    6.2784    6.2150 H   0  0  0  0  0  0  0  0  0  0  0  0
    2.9839    6.0379    7.9651 H   0  0  0  0  0  0  0  0  0  0  0  0
    3.3327   -1.8486   -8.1492 H   0  0  0  0  0  0  0  0  0  0  0  0
    2.1932   -1.6161   -6.8208 H   0  0  0  0  0  0  0  0  0  0  0  0
    5.2344   -1.4424   -6.5802 H   0  0  0  0  0  0  0  0  0  0  0  0
    4.1208   -0.0701   -6.5971 H   0  0  0  0  0  0  0  0  0  0  0  0
    4.0965   -1.2176   -5.2535 H   0  0  0  0  0  0  0  0  0  0  0  0
    4.6310   -3.8221   -8.3746 H   0  0  0  0  0  0  0  0  0  0  0  0
    5.0603   -6.1590   -7.7508 H   0  0  0  0  0  0  0  0  0  0  0  0
    4.0538   -7.0901   -5.6919 H   0  0  0  0  0  0  0  0  0  0  0  0
    2.5946   -5.6722   -4.3001 H   0  0  0  0  0  0  0  0  0  0  0  0
   -0.6269   -0.0768    3.6336 H   0  0  0  0  0  0  0  0  0  0  0  0
   -0.6092   -0.5019    1.9232 H   0  0  0  0  0  0  0  0  0  0  0  0
   -0.4572    2.0685    1.4623 H   0  0  0  0  0  0  0  0  0  0  0  0
   -0.7212    2.2874    3.1881 H   0  0  0  0  0  0  0  0  0  0  0  0
   -1.9658    1.5197    2.2076 H   0  0  0  0  0  0  0  0  0  0  0  0
   -0.2506    0.0766   -1.5872 H   0  0  0  0  0  0  0  0  0  0  0  0
   -0.2763    0.5043    0.1225 H   0  0  0  0  0  0  0  0  0  0  0  0
   -1.2224   -1.9046    0.5272 H   0  0  0  0  0  0  0  0  0  0  0  0
   -2.2835   -0.8102   -0.3727 H   0  0  0  0  0  0  0  0  0  0  0  0
   -1.3454   -2.0327   -1.2237 H   0  0  0  0  0  0  0  0  0  0  0  0
    0.6923   -3.6947   -6.8923 H   0  0  0  0  0  0  0  0  0  0  0  0
   -4.8297   -0.8273   -5.9643 H   0  0  0  0  0  0  0  0  0  0  0  0
   -3.6346   -3.1564  -10.2995 H   0  0  0  0  0  0  0  0  0  0  0  0
   -7.0082   -2.5371  -10.1551 H   0  0  0  0  0  0  0  0  0  0  0  0
   -6.4368   -0.8683  -11.9124 H   0  0  0  0  0  0  0  0  0  0  0  0
   -4.3424    0.4364  -11.0483 H   0  0  0  0  0  0  0  0  0  0  0  0
   -5.0054    1.6753   -8.7943 H   0  0  0  0  0  0  0  0  0  0  0  0
   -7.5104    1.1344   -8.2695 H   0  0  0  0  0  0  0  0  0  0  0  0
   -8.5267   -0.2859  -10.3180 H   0  0  0  0  0  0  0  0  0  0  0  0
   -7.7452    1.2032  -10.9059 H   0  0  0  0  0  0  0  0  0  0  0  0
   -7.6552   -1.3334   -7.9651 H   0  0  0  0  0  0  0  0  0  0  0  0
  1  2  2  0  0  0  0
  2  3  1  0  0  0  0
  3  4  2  0  0  0  0
  3  5  1  0  0  0  0
  5  6  2  0  0  0  0
  6  7  1  0  0  0  0
  7  8  1  0  0  0  0
  8  9  1  0  0  0  0
  7 10  2  0  0  0  0
 10 11  1  0  0  0  0
 11 12  2  0  0  0  0
 12 13  1  0  0  0  0
 13 14  2  0  0  0  0
 14 15  1  0  0  0  0
 15 16  3  0  0  0  0
 14 17  1  0  0  0  0
 17 18  3  0  0  0  0
  1 19  1  0  0  0  0
 19 20  2  0  0  0  0
 20 21  1  0  0  0  0
 21 22  2  0  0  0  0
 22 23  1  0  0  0  0
 23 24  2  0  0  0  0
 24 25  1  0  0  0  0
 25 26  2  0  0  0  0
 26 27  1  0  0  0  0
 27 28  1  0  0  0  0
 20 29  1  0  0  0  0
 29 30  1  0  0  0  0
 30 31  1  0  0  0  0
 31 32  1  0  0  0  0
 32 33  1  0  0  0  0
 33 34  1  0  0  0  0
 34 35  2  0  0  0  0
 35 36  1  0  0  0  0
 36 37  1  0  0  0  0
 34 38  1  0  0  0  0
 38 39  1  0  0  0  0
 39 40  1  0  0  0  0
 40 41  1  0  0  0  0
 41 42  1  0  0  0  0
 42 43  1  0  0  0  0
 43 44  2  0  0  0  0
 44 45  1  0  0  0  0
 45 46  1  0  0  0  0
 44 47  1  0  0  0  0
 47 48  2  0  0  0  0
 48 49  1  0  0  0  0
 49 50  2  0  0  0  0
 42 51  2  0  0  0  0
 51 52  1  0  0  0  0
 52 53  1  0  0  0  0
 53 54  1  0  0  0  0
 54 55  1  0  0  0  0
 55 56  1  0  0  0  0
 56 57  1  0  0  0  0
 57 58  1  0  0  0  0
 58 59  1  0  0  0  0
 59 60  1  0  0  0  0
 60 61  1  0  0  0  0
 58 62  1  0  0  0  0
 62 63  1  0  0  0  0
 55 64  1  0  0  0  0
 64 65  1  0  0  0  0
 51 66  1  0  0  0  0
 66 67  2  0  0  0  0
 67 68  1  0  0  0  0
 68 69  2  0  0  0  0
 68 70  1  0  0  0  0
 70 71  2  0  0  0  0
 71 72  1  0  0  0  0
 72 73  2  0  0  0  0
 73 74  1  0  0  0  0
 74 75  2  0  0  0  0
 75 76  1  0  0  0  0
 76 77  2  0  0  0  0
 77 78  1  0  0  0  0
 78 79  3  0  0  0  0
 77 80  1  0  0  0  0
 80 81  3  0  0  0  0
 73 82  1  0  0  0  0
 82 83  1  0  0  0  0
 83 84  1  0  0  0  0
 84 85  2  0  0  0  0
 85 86  1  0  0  0  0
 86 87  1  0  0  0  0
 86 88  1  0  0  0  0
 13  2  1  0  0  0  0
 61 19  1  0  0  0  0
 76 67  1  0  0  0  0
 88 82  1  0  0  0  0
 12  5  1  0  0  0  0
 26 21  1  0  0  0  0
 60 29  2  0  0  0  0
 75 70  1  0  0  0  0
 87 83  1  0  0  0  0
 59 31  2  0  0  0  0
 88 72  1  0  0  0  0
 57 32  2  0  0  0  0
 37 33  2  0  0  0  0
 56 38  2  0  0  0  0
 54 39  2  0  0  0  0
 53 41  2  0  0  0  0
 50 43  1  0  0  0  0
  1 89  1  0  0  0  0
  6 90  1  0  0  0  0
  9 91  1  0  0  0  0
  9 92  1  0  0  0  0
  9 93  1  0  0  0  0
 10 94  1  0  0  0  0
 11 95  1  0  0  0  0
 22 96  1  0  0  0  0
 23 97  1  0  0  0  0
 24 98  1  0  0  0  0
 25 99  1  0  0  0  0
 27100  1  0  0  0  0
 27101  1  0  0  0  0
 28102  1  0  0  0  0
 28103  1  0  0  0  0
 28104  1  0  0  0  0
 45105  1  0  0  0  0
 45106  1  0  0  0  0
 46107  1  0  0  0  0
 46108  1  0  0  0  0
 46109  1  0  0  0  0
 47110  1  0  0  0  0
 48111  1  0  0  0  0
 49112  1  0  0  0  0
 50113  1  0  0  0  0
 62114  1  0  0  0  0
 62115  1  0  0  0  0
 63116  1  0  0  0  0
 63117  1  0  0  0  0
 63118  1  0  0  0  0
 64119  1  0  0  0  0
 64120  1  0  0  0  0
 65121  1  0  0  0  0
 65122  1  0  0  0  0
 65123  1  0  0  0  0
 66124  1  0  0  0  0
 71125  1  0  0  0  0
 74126  1  0  0  0  0
 82127  1  0  0  0  0
 83128  1  0  0  0  0
 84129  1  0  0  0  0
 85130  1  0  0  0  0
 86131  1  0  0  0  0
 87132  1  0  0  0  0
 87133  1  0  0  0  0
 88134  1  0  0  0  0
M  END
