
  xtb     02112205573D
 energy: -192.045062701029 gnorm: 0.000514329576 xtb: 6.4.1 (unknown)
111124  0     0  0            999 V2000
   -5.9213   -5.3785   -2.0444 C   0  0  0  0  0  0  0  0  0  0  0  0
   -6.2462   -6.4394   -2.8505 C   0  0  0  0  0  0  0  0  0  0  0  0
   -5.3214   -7.4108   -3.4455 C   0  0  0  0  0  0  0  0  0  0  0  0
   -4.1273   -7.5306   -3.2444 O   0  0  0  0  0  0  0  0  0  0  0  0
   -6.1368   -8.2364   -4.3590 C   0  0  0  0  0  0  0  0  0  0  0  0
   -5.7091   -9.2514   -5.1885 C   0  0  0  0  0  0  0  0  0  0  0  0
   -6.6614   -9.8913   -5.9842 C   0  0  0  0  0  0  0  0  0  0  0  0
   -6.3942  -10.8929   -6.8497 O   0  0  0  0  0  0  0  0  0  0  0  0
   -5.0622  -11.3359   -6.9846 C   0  0  0  0  0  0  0  0  0  0  0  0
   -8.0036   -9.4920   -5.9110 C   0  0  0  0  0  0  0  0  0  0  0  0
   -8.4210   -8.4768   -5.0740 C   0  0  0  0  0  0  0  0  0  0  0  0
   -7.4783   -7.8304   -4.2824 C   0  0  0  0  0  0  0  0  0  0  0  0
   -7.5855   -6.7332   -3.3298 C   0  0  0  0  0  0  0  0  0  0  0  0
   -8.7568   -6.1190   -2.9592 C   0  0  0  0  0  0  0  0  0  0  0  0
  -10.0256   -6.4745   -3.4614 C   0  0  0  0  0  0  0  0  0  0  0  0
  -11.0892   -6.7085   -3.8256 N   0  0  0  0  0  0  0  0  0  0  0  0
   -8.8836   -5.0662   -2.0317 C   0  0  0  0  0  0  0  0  0  0  0  0
   -9.0759   -4.2094   -1.2887 N   0  0  0  0  0  0  0  0  0  0  0  0
   -4.6913   -4.9426   -1.5317 C   0  0  0  0  0  0  0  0  0  0  0  0
   -3.1829   -5.8442   -1.6781 S   0  0  0  0  0  0  0  0  0  0  0  0
   -2.3913   -4.6147   -0.8014 C   0  0  0  0  0  0  0  0  0  0  0  0
   -1.1040   -4.3447   -0.3153 C   0  0  0  0  0  0  0  0  0  0  0  0
    0.0547   -5.1501   -0.2394 C   0  0  0  0  0  0  0  0  0  0  0  0
    1.2056   -4.6485    0.4576 C   0  0  0  0  0  0  0  0  0  0  0  0
    2.1891   -5.5320    0.5131 N   0  0  0  0  0  0  0  0  0  0  0  0
    1.7110   -6.8786   -0.2494 S   0  0  0  0  0  0  0  0  0  0  0  0
    0.2319   -6.3850   -0.6797 N   0  0  0  0  0  0  0  0  0  0  0  0
    1.1989   -3.3066    0.9010 C   0  0  0  0  0  0  0  0  0  0  0  0
    2.2273   -2.4819    1.3756 C   0  0  0  0  0  0  0  0  0  0  0  0
    3.9024   -2.5933    1.7929 S   0  0  0  0  0  0  0  0  0  0  0  0
    3.9408   -0.8485    1.9719 C   0  0  0  0  0  0  0  0  0  0  0  0
    4.9701    0.0381    2.2602 C   0  0  0  0  0  0  0  0  0  0  0  0
    6.3721   -0.4069    2.5218 C   0  0  0  0  0  0  0  0  0  0  0  0
    7.2004   -0.3900    1.2342 C   0  0  0  0  0  0  0  0  0  0  0  0
    4.5291    1.3710    2.1989 C   0  0  0  0  0  0  0  0  0  0  0  0
    2.8100    1.4865    1.8232 S   0  0  0  0  0  0  0  0  0  0  0  0
    2.7006   -0.2312    1.7357 C   0  0  0  0  0  0  0  0  0  0  0  0
    1.7195   -1.1761    1.4214 C   0  0  0  0  0  0  0  0  0  0  0  0
    0.4022   -1.1782    1.0497 N   0  0  0  0  0  0  0  0  0  0  0  0
    0.0523   -2.4749    0.7343 C   0  0  0  0  0  0  0  0  0  0  0  0
   -1.1537   -3.0516    0.2636 C   0  0  0  0  0  0  0  0  0  0  0  0
   -2.4562   -2.5740    0.2040 N   0  0  0  0  0  0  0  0  0  0  0  0
   -3.2208   -3.5327   -0.4482 C   0  0  0  0  0  0  0  0  0  0  0  0
   -4.5498   -3.7254   -0.8320 C   0  0  0  0  0  0  0  0  0  0  0  0
   -5.6990   -2.7848   -0.6290 C   0  0  0  0  0  0  0  0  0  0  0  0
   -5.9890   -1.9773   -1.8981 C   0  0  0  0  0  0  0  0  0  0  0  0
   -3.0359   -1.6507    1.1628 C   0  0  0  0  0  0  0  0  0  0  0  0
   -3.6520   -0.3920    0.5358 C   0  0  0  0  0  0  0  0  0  0  0  0
   -0.2575    0.0542    0.6853 C   0  0  0  0  0  0  0  0  0  0  0  0
   -0.6384    0.8947    1.9014 C   0  0  0  0  0  0  0  0  0  0  0  0
    5.3825    2.4652    2.3820 C   0  0  0  0  0  0  0  0  0  0  0  0
    5.1586    3.8117    2.2408 C   0  0  0  0  0  0  0  0  0  0  0  0
    3.9034    4.4456    1.8296 C   0  0  0  0  0  0  0  0  0  0  0  0
    2.8182    3.9111    1.6672 O   0  0  0  0  0  0  0  0  0  0  0  0
    4.2014    5.8749    1.6432 C   0  0  0  0  0  0  0  0  0  0  0  0
    3.3282    6.8613    1.1921 C   0  0  0  0  0  0  0  0  0  0  0  0
    3.8982    8.1074    1.0889 C   0  0  0  0  0  0  0  0  0  0  0  0
    5.2393    8.3537    1.4105 C   0  0  0  0  0  0  0  0  0  0  0  0
    6.1106    7.3890    1.8589 C   0  0  0  0  0  0  0  0  0  0  0  0
    5.5508    6.1137    1.9735 C   0  0  0  0  0  0  0  0  0  0  0  0
    6.1578    4.8510    2.3935 C   0  0  0  0  0  0  0  0  0  0  0  0
    7.4374    4.7059    2.8670 C   0  0  0  0  0  0  0  0  0  0  0  0
    8.3608    5.7626    3.0089 C   0  0  0  0  0  0  0  0  0  0  0  0
    9.1646    6.5701    3.1535 N   0  0  0  0  0  0  0  0  0  0  0  0
    8.0218    3.4983    3.3016 C   0  0  0  0  0  0  0  0  0  0  0  0
    8.5698    2.5601    3.6766 N   0  0  0  0  0  0  0  0  0  0  0  0
    5.1360    9.8182    1.0654 C   0  0  0  0  0  0  0  0  0  0  0  0
    5.0301   10.8310    2.2320 C   0  0  0  0  0  0  0  0  0  0  0  0
    4.4097   10.0885    3.3893 C   0  0  0  0  0  0  0  0  0  0  0  0
    3.1396    9.8554    3.0867 C   0  0  0  0  0  0  0  0  0  0  0  0
    2.8782   10.4357    1.7187 C   0  0  0  0  0  0  0  0  0  0  0  0
    3.8198   11.6500    1.7553 C   0  0  0  0  0  0  0  0  0  0  0  0
    3.6410    9.5437    0.7082 C   0  0  0  0  0  0  0  0  0  0  0  0
   -6.7532   -4.7451   -1.7716 H   0  0  0  0  0  0  0  0  0  0  0  0
   -4.6637   -9.5151   -5.1995 H   0  0  0  0  0  0  0  0  0  0  0  0
   -4.6770  -11.7378   -6.0429 H   0  0  0  0  0  0  0  0  0  0  0  0
   -5.0909  -12.1281   -7.7305 H   0  0  0  0  0  0  0  0  0  0  0  0
   -4.4072  -10.5322   -7.3338 H   0  0  0  0  0  0  0  0  0  0  0  0
   -8.7126  -10.0072   -6.5396 H   0  0  0  0  0  0  0  0  0  0  0  0
   -9.4622   -8.2004   -5.0524 H   0  0  0  0  0  0  0  0  0  0  0  0
    6.8502    0.2262    3.2707 H   0  0  0  0  0  0  0  0  0  0  0  0
    6.3383   -1.4276    2.9080 H   0  0  0  0  0  0  0  0  0  0  0  0
    7.2476    0.6143    0.8191 H   0  0  0  0  0  0  0  0  0  0  0  0
    8.2124   -0.7251    1.4429 H   0  0  0  0  0  0  0  0  0  0  0  0
    6.7591   -1.0518    0.4925 H   0  0  0  0  0  0  0  0  0  0  0  0
   -5.4806   -2.1025    0.1872 H   0  0  0  0  0  0  0  0  0  0  0  0
   -6.5969   -3.3397   -0.3509 H   0  0  0  0  0  0  0  0  0  0  0  0
   -5.1140   -1.4080   -2.2055 H   0  0  0  0  0  0  0  0  0  0  0  0
   -6.8097   -1.2880   -1.7188 H   0  0  0  0  0  0  0  0  0  0  0  0
   -6.2650   -2.6345   -2.7186 H   0  0  0  0  0  0  0  0  0  0  0  0
   -3.8082   -2.2003    1.7126 H   0  0  0  0  0  0  0  0  0  0  0  0
   -2.2592   -1.3889    1.8815 H   0  0  0  0  0  0  0  0  0  0  0  0
   -2.9965    0.4687    0.6141 H   0  0  0  0  0  0  0  0  0  0  0  0
   -3.8664   -0.5601   -0.5152 H   0  0  0  0  0  0  0  0  0  0  0  0
   -4.5807   -0.1361    1.0389 H   0  0  0  0  0  0  0  0  0  0  0  0
   -1.1201   -0.1930    0.0689 H   0  0  0  0  0  0  0  0  0  0  0  0
    0.4410    0.6373    0.0740 H   0  0  0  0  0  0  0  0  0  0  0  0
   -1.1050    1.8194    1.5737 H   0  0  0  0  0  0  0  0  0  0  0  0
    0.2513    1.1535    2.4680 H   0  0  0  0  0  0  0  0  0  0  0  0
   -1.3238    0.3690    2.5617 H   0  0  0  0  0  0  0  0  0  0  0  0
    6.3930    2.1781    2.6386 H   0  0  0  0  0  0  0  0  0  0  0  0
    2.3037    6.6258    0.9494 H   0  0  0  0  0  0  0  0  0  0  0  0
    7.1410    7.5958    2.0945 H   0  0  0  0  0  0  0  0  0  0  0  0
    5.7938   10.1671    0.2718 H   0  0  0  0  0  0  0  0  0  0  0  0
    5.9485   11.3712    2.4452 H   0  0  0  0  0  0  0  0  0  0  0  0
    4.9562    9.7688    4.2571 H   0  0  0  0  0  0  0  0  0  0  0  0
    2.4124    9.3016    3.6512 H   0  0  0  0  0  0  0  0  0  0  0  0
    1.8370   10.6169    1.4646 H   0  0  0  0  0  0  0  0  0  0  0  0
    3.9668   12.1144    0.7811 H   0  0  0  0  0  0  0  0  0  0  0  0
    3.5090   12.4025    2.4784 H   0  0  0  0  0  0  0  0  0  0  0  0
    3.3230    9.7148   -0.3186 H   0  0  0  0  0  0  0  0  0  0  0  0
  1  2  2  0  0  0  0
  2  3  1  0  0  0  0
  3  4  2  0  0  0  0
  3  5  1  0  0  0  0
  5  6  2  0  0  0  0
  6  7  1  0  0  0  0
  7  8  1  0  0  0  0
  8  9  1  0  0  0  0
  7 10  2  0  0  0  0
 10 11  1  0  0  0  0
 11 12  2  0  0  0  0
 12 13  1  0  0  0  0
 13 14  2  0  0  0  0
 14 15  1  0  0  0  0
 15 16  3  0  0  0  0
 14 17  1  0  0  0  0
 17 18  3  0  0  0  0
  1 19  1  0  0  0  0
 19 20  1  0  0  0  0
 20 21  1  0  0  0  0
 21 22  1  0  0  0  0
 22 23  1  0  0  0  0
 23 24  1  0  0  0  0
 24 25  2  0  0  0  0
 25 26  1  0  0  0  0
 26 27  1  0  0  0  0
 24 28  1  0  0  0  0
 28 29  1  0  0  0  0
 29 30  1  0  0  0  0
 30 31  1  0  0  0  0
 31 32  1  0  0  0  0
 32 33  1  0  0  0  0
 33 34  1  0  0  0  0
 32 35  2  0  0  0  0
 35 36  1  0  0  0  0
 36 37  1  0  0  0  0
 37 38  1  0  0  0  0
 38 39  1  0  0  0  0
 39 40  1  0  0  0  0
 40 41  1  0  0  0  0
 41 42  1  0  0  0  0
 42 43  1  0  0  0  0
 43 44  1  0  0  0  0
 44 45  1  0  0  0  0
 45 46  1  0  0  0  0
 42 47  1  0  0  0  0
 47 48  1  0  0  0  0
 39 49  1  0  0  0  0
 49 50  1  0  0  0  0
 35 51  1  0  0  0  0
 51 52  2  0  0  0  0
 52 53  1  0  0  0  0
 53 54  2  0  0  0  0
 53 55  1  0  0  0  0
 55 56  2  0  0  0  0
 56 57  1  0  0  0  0
 57 58  2  0  0  0  0
 58 59  1  0  0  0  0
 59 60  2  0  0  0  0
 60 61  1  0  0  0  0
 61 62  2  0  0  0  0
 62 63  1  0  0  0  0
 63 64  3  0  0  0  0
 62 65  1  0  0  0  0
 65 66  3  0  0  0  0
 58 67  1  0  0  0  0
 67 68  1  0  0  0  0
 68 69  1  0  0  0  0
 69 70  2  0  0  0  0
 70 71  1  0  0  0  0
 71 72  1  0  0  0  0
 71 73  1  0  0  0  0
 13  2  1  0  0  0  0
 44 19  2  0  0  0  0
 61 52  1  0  0  0  0
 73 67  1  0  0  0  0
 12  5  1  0  0  0  0
 43 21  2  0  0  0  0
 60 55  1  0  0  0  0
 72 68  1  0  0  0  0
 41 22  2  0  0  0  0
 73 57  1  0  0  0  0
 27 23  2  0  0  0  0
 40 28  2  0  0  0  0
 38 29  2  0  0  0  0
 37 31  2  0  0  0  0
  1 74  1  0  0  0  0
  6 75  1  0  0  0  0
  9 76  1  0  0  0  0
  9 77  1  0  0  0  0
  9 78  1  0  0  0  0
 10 79  1  0  0  0  0
 11 80  1  0  0  0  0
 33 81  1  0  0  0  0
 33 82  1  0  0  0  0
 34 83  1  0  0  0  0
 34 84  1  0  0  0  0
 34 85  1  0  0  0  0
 45 86  1  0  0  0  0
 45 87  1  0  0  0  0
 46 88  1  0  0  0  0
 46 89  1  0  0  0  0
 46 90  1  0  0  0  0
 47 91  1  0  0  0  0
 47 92  1  0  0  0  0
 48 93  1  0  0  0  0
 48 94  1  0  0  0  0
 48 95  1  0  0  0  0
 49 96  1  0  0  0  0
 49 97  1  0  0  0  0
 50 98  1  0  0  0  0
 50 99  1  0  0  0  0
 50100  1  0  0  0  0
 51101  1  0  0  0  0
 56102  1  0  0  0  0
 59103  1  0  0  0  0
 67104  1  0  0  0  0
 68105  1  0  0  0  0
 69106  1  0  0  0  0
 70107  1  0  0  0  0
 71108  1  0  0  0  0
 72109  1  0  0  0  0
 72110  1  0  0  0  0
 73111  1  0  0  0  0
M  END
