112

C          2.55030       -7.11850       -3.19590
C          2.24740       -8.45480       -3.09540
C          0.94300       -9.08640       -2.81540
O         -0.08880       -8.58450       -2.41250
C          1.11160      -10.51390       -3.16730
C          0.15120      -11.50370       -3.14590
C          0.52840      -12.79070       -3.53300
O         -0.29930      -13.85890       -3.56910
C         -1.65010      -13.68280       -3.20710
C          1.85290      -13.03600       -3.92150
C          2.80750      -12.03900       -3.93450
C          2.43740      -10.75410       -3.55500
C          3.18110       -9.50700       -3.45850
C          4.54130       -9.38560       -3.60440
C          5.39380      -10.45050       -3.95910
N          6.14360      -11.26810       -4.25650
C          5.28610       -8.21320       -3.37180
N          5.96710       -7.30820       -3.17350
C          1.81630       -5.97790       -2.83330
C          0.66310       -5.85870       -2.02940
C          0.39500       -4.50530       -1.94770
C          1.36550       -3.81890       -2.70740
N          2.22720       -4.70810       -3.23610
C          3.40260       -4.34380       -3.99200
C          4.63540       -4.22740       -3.09790
C          1.03700       -2.45230       -2.65620
C          1.56720       -1.33290       -3.33370
C          0.95050       -0.05130       -3.15070
N          1.51200        0.89540       -3.88530
S          2.71880        0.23940       -4.73780
N          2.56800       -1.28590       -4.20260
C         -0.10030        0.07010       -2.21770
C         -0.77630        1.20170       -1.74360
S         -0.82600        2.90580       -2.01870
C         -1.99310        3.06270       -0.72420
C         -2.61840        4.17420       -0.13970
C         -2.54460        5.55950       -0.68750
C         -2.82410        5.60650       -2.18870
C         -3.41260        3.78980        0.93350
S         -3.45180        2.03830        1.14850
C         -2.31740        1.83410       -0.13180
C         -1.62760        0.76960       -0.72140
N         -1.52990       -0.58790       -0.57360
C         -0.59780       -1.04970       -1.48950
C         -0.10360       -2.34330       -1.80070
N         -0.48780       -3.61210       -1.38990
C         -1.77320       -4.09260       -0.93170
C         -2.90680       -3.65540       -1.85600
C         -2.05730       -1.21880        0.61550
C         -0.94170       -1.68100        1.54890
C         -4.20460        4.55390        1.81860
C         -3.90150        5.79370        2.30820
C         -2.53460        6.36370        2.36490
O         -1.51780        5.90660        1.88460
C         -2.63520        7.54840        3.23850
C         -1.59570        8.39600        3.61310
C         -1.98040        9.42030        4.44450
C         -3.30070        9.58210        4.88560
C         -4.33430        8.74820        4.53100
C         -3.96610        7.70640        3.67470
C         -4.77690        6.64470        3.08690
C         -6.13970        6.52410        3.17890
C         -6.97020        7.38580        3.92380
N         -7.70320        8.04590        4.51180
C         -6.90100        5.54110        2.51260
N         -7.58460        4.78600        1.98180
C         -2.96510       10.81240        5.69070
C         -3.36270       12.18890        5.10290
C         -3.40180       12.01970        3.60430
C         -2.15380       11.86860        3.18140
C         -1.24820       11.93300        4.38640
C         -2.02640       12.93280        5.25670
C         -1.49530       10.63500        5.19480
H          3.50760       -6.90090       -3.65130
H         -0.85120      -11.25690       -2.83450
H         -2.14980      -12.96470       -3.86430
H         -1.74640      -13.35490       -2.16770
H         -2.11440      -14.66060       -3.32140
H          2.10870      -14.04140       -4.21620
H          3.81360      -12.26860       -4.24450
H          0.13810       -6.68120       -1.59190
H          3.19780       -3.36970       -4.44440
H          3.57110       -5.07410       -4.78690
H          4.90520       -5.18520       -2.66010
H          4.44640       -3.51390       -2.29940
H          5.47610       -3.87350       -3.68680
H         -3.26840        6.18880       -0.16680
H         -1.54860        5.96140       -0.48210
H         -3.78710        5.15070       -2.40970
H         -2.05480        5.08520       -2.75080
H         -2.84850        6.64110       -2.52140
H         -1.95850       -3.79010        0.10040
H         -1.70480       -5.18260       -0.94090
H         -2.97470       -2.57180       -1.91740
H         -3.85320       -4.04630       -1.49180
H         -2.73540       -4.04230       -2.85790
H         -2.72430       -2.03960        0.35030
H         -2.66310       -0.46460        1.12380
H         -0.34010       -0.82920        1.85770
H         -1.36920       -2.14150        2.43530
H         -0.28900       -2.39910        1.05860
H         -5.10080        4.06190        2.17930
H         -0.59090        8.23080        3.25670
H         -5.34310        8.87860        4.88580
H         -3.15330       10.74770        6.76050
H         -4.24150       12.63720        5.55830
H         -4.30900       11.97150        3.03100
H         -1.80960       11.66860        2.18350
H         -0.20140       12.14950        4.18920
H         -2.05010       13.93400        4.82910
H         -1.67200       12.98030        6.28550
H         -0.72280       10.45840        5.94080
