
  xtb     02022202373D
 energy: -185.774575805581 gnorm: 0.000576590603 xtb: 6.4.1 (unknown)
101112  0     0  0            999 V2000
    5.8738   -0.2472    5.7048 C   0  0  0  0  0  0  0  0  0  0  0  0
    5.5537   -1.4634    6.2271 C   0  0  0  0  0  0  0  0  0  0  0  0
    5.8625   -1.7602    7.6501 C   0  0  0  0  0  0  0  0  0  0  0  0
    6.5816   -1.1227    8.3850 O   0  0  0  0  0  0  0  0  0  0  0  0
    5.0556   -2.9578    7.9749 C   0  0  0  0  0  0  0  0  0  0  0  0
    4.8994   -3.5906    9.1840 C   0  0  0  0  0  0  0  0  0  0  0  0
    4.0656   -4.7168    9.2518 C   0  0  0  0  0  0  0  0  0  0  0  0
    3.9621   -5.2940   10.4678 O   0  0  0  0  0  0  0  0  0  0  0  0
    3.1635   -6.4455   10.6192 C   0  0  0  0  0  0  0  0  0  0  0  0
    3.4125   -5.1628    8.1005 C   0  0  0  0  0  0  0  0  0  0  0  0
    3.5842   -4.5254    6.8812 C   0  0  0  0  0  0  0  0  0  0  0  0
    4.4116   -3.4178    6.8075 C   0  0  0  0  0  0  0  0  0  0  0  0
    4.8299   -2.5938    5.6834 C   0  0  0  0  0  0  0  0  0  0  0  0
    4.7924   -2.9692    4.3640 C   0  0  0  0  0  0  0  0  0  0  0  0
    5.5120   -2.3050    3.3499 C   0  0  0  0  0  0  0  0  0  0  0  0
    6.1313   -1.8273    2.5088 N   0  0  0  0  0  0  0  0  0  0  0  0
    4.1031   -4.1005    3.8892 C   0  0  0  0  0  0  0  0  0  0  0  0
    3.5273   -4.9888    3.4433 N   0  0  0  0  0  0  0  0  0  0  0  0
    5.3450    0.3981    4.5641 C   0  0  0  0  0  0  0  0  0  0  0  0
    5.9189    1.4495    3.8619 C   0  0  0  0  0  0  0  0  0  0  0  0
    7.2441    2.0678    4.1633 C   0  0  0  0  0  0  0  0  0  0  0  0
    7.0680    3.3057    5.0467 C   0  0  0  0  0  0  0  0  0  0  0  0
    5.1011    1.8664    2.8065 C   0  0  0  0  0  0  0  0  0  0  0  0
    5.3114    3.0730    1.5582 S   0  0  0  0  0  0  0  0  0  0  0  0
    3.7860    2.6105    0.8896 C   0  0  0  0  0  0  0  0  0  0  0  0
    2.9886    2.8879   -0.2283 C   0  0  0  0  0  0  0  0  0  0  0  0
    3.2270    3.7398   -1.3288 C   0  0  0  0  0  0  0  0  0  0  0  0
    2.3062    3.7240   -2.4247 C   0  0  0  0  0  0  0  0  0  0  0  0
    2.6750    4.5293   -3.4085 N   0  0  0  0  0  0  0  0  0  0  0  0
    4.0630    5.2479   -2.9879 S   0  0  0  0  0  0  0  0  0  0  0  0
    4.2463    4.5591   -1.5347 N   0  0  0  0  0  0  0  0  0  0  0  0
    1.1442    2.9282   -2.3250 C   0  0  0  0  0  0  0  0  0  0  0  0
    0.0575    2.7984   -3.1990 C   0  0  0  0  0  0  0  0  0  0  0  0
   -0.4488    3.3644   -4.7511 S   0  0  0  0  0  0  0  0  0  0  0  0
   -1.9487    2.4835   -4.5535 C   0  0  0  0  0  0  0  0  0  0  0  0
   -3.0569    2.3366   -5.3962 C   0  0  0  0  0  0  0  0  0  0  0  0
   -3.1492    3.0837   -6.6830 C   0  0  0  0  0  0  0  0  0  0  0  0
   -4.4181    3.9245   -6.8075 C   0  0  0  0  0  0  0  0  0  0  0  0
   -4.0260    1.5266   -4.8052 C   0  0  0  0  0  0  0  0  0  0  0  0
   -3.5581    1.0248   -3.1699 S   0  0  0  0  0  0  0  0  0  0  0  0
   -2.0355    1.8092   -3.3270 C   0  0  0  0  0  0  0  0  0  0  0  0
   -0.8775    1.9744   -2.5632 C   0  0  0  0  0  0  0  0  0  0  0  0
   -0.3994    1.5813   -1.3430 N   0  0  0  0  0  0  0  0  0  0  0  0
    0.8585    2.1309   -1.1752 C   0  0  0  0  0  0  0  0  0  0  0  0
    1.8420    2.0406   -0.1503 C   0  0  0  0  0  0  0  0  0  0  0  0
    1.9735    1.2534    0.9798 N   0  0  0  0  0  0  0  0  0  0  0  0
    3.1397    1.5972    1.6053 C   0  0  0  0  0  0  0  0  0  0  0  0
    3.8922    1.1668    2.7008 C   0  0  0  0  0  0  0  0  0  0  0  0
    3.7535   -0.0282    3.9342 S   0  0  0  0  0  0  0  0  0  0  0  0
    1.2593    0.0875    1.4459 C   0  0  0  0  0  0  0  0  0  0  0  0
    0.4214    0.3910    2.6877 C   0  0  0  0  0  0  0  0  0  0  0  0
   -1.2812    0.8718   -0.4456 C   0  0  0  0  0  0  0  0  0  0  0  0
   -1.4097   -0.6055   -0.8185 C   0  0  0  0  0  0  0  0  0  0  0  0
   -5.3072    1.0904   -5.1931 C   0  0  0  0  0  0  0  0  0  0  0  0
   -5.7729    0.7678   -6.4417 C   0  0  0  0  0  0  0  0  0  0  0  0
   -4.9258    0.4071   -7.5956 C   0  0  0  0  0  0  0  0  0  0  0  0
   -3.7162    0.4502   -7.6643 O   0  0  0  0  0  0  0  0  0  0  0  0
   -5.8581   -0.1425   -8.6057 C   0  0  0  0  0  0  0  0  0  0  0  0
   -5.6115   -0.6623   -9.8629 C   0  0  0  0  0  0  0  0  0  0  0  0
   -4.3738   -0.6876  -10.3679 F   0  0  0  0  0  0  0  0  0  0  0  0
   -6.6598   -1.1618  -10.6266 C   0  0  0  0  0  0  0  0  0  0  0  0
   -7.9465   -1.1429  -10.1178 C   0  0  0  0  0  0  0  0  0  0  0  0
   -8.2205   -0.6236   -8.8582 C   0  0  0  0  0  0  0  0  0  0  0  0
   -7.1731   -0.1202   -8.1052 C   0  0  0  0  0  0  0  0  0  0  0  0
   -7.1505    0.4846   -6.7739 C   0  0  0  0  0  0  0  0  0  0  0  0
   -8.2498    0.8207   -6.0267 C   0  0  0  0  0  0  0  0  0  0  0  0
   -9.5810    0.5509   -6.4045 C   0  0  0  0  0  0  0  0  0  0  0  0
  -10.6847    0.3542   -6.6524 N   0  0  0  0  0  0  0  0  0  0  0  0
   -8.1990    1.5213   -4.8029 C   0  0  0  0  0  0  0  0  0  0  0  0
   -8.2354    2.1125   -3.8189 N   0  0  0  0  0  0  0  0  0  0  0  0
    6.5736    0.3347    6.2966 H   0  0  0  0  0  0  0  0  0  0  0  0
    5.4065   -3.2445   10.0701 H   0  0  0  0  0  0  0  0  0  0  0  0
    3.2543   -6.7284   11.6664 H   0  0  0  0  0  0  0  0  0  0  0  0
    3.5204   -7.2665    9.9902 H   0  0  0  0  0  0  0  0  0  0  0  0
    2.1137   -6.2380   10.3904 H   0  0  0  0  0  0  0  0  0  0  0  0
    2.7600   -6.0203    8.1422 H   0  0  0  0  0  0  0  0  0  0  0  0
    3.0630   -4.8942    6.0122 H   0  0  0  0  0  0  0  0  0  0  0  0
    7.7089    2.3635    3.2208 H   0  0  0  0  0  0  0  0  0  0  0  0
    7.8951    1.3464    4.6566 H   0  0  0  0  0  0  0  0  0  0  0  0
    8.0354    3.7563    5.2511 H   0  0  0  0  0  0  0  0  0  0  0  0
    6.4415    4.0406    4.5468 H   0  0  0  0  0  0  0  0  0  0  0  0
    6.6024    3.0391    5.9929 H   0  0  0  0  0  0  0  0  0  0  0  0
   -2.2747    3.7344   -6.7526 H   0  0  0  0  0  0  0  0  0  0  0  0
   -3.0970    2.3666   -7.5074 H   0  0  0  0  0  0  0  0  0  0  0  0
   -5.3089    3.3022   -6.8138 H   0  0  0  0  0  0  0  0  0  0  0  0
   -4.3905    4.4925   -7.7337 H   0  0  0  0  0  0  0  0  0  0  0  0
   -4.4942    4.6225   -5.9763 H   0  0  0  0  0  0  0  0  0  0  0  0
    2.0073   -0.6694    1.7075 H   0  0  0  0  0  0  0  0  0  0  0  0
    0.6553   -0.3159    0.6394 H   0  0  0  0  0  0  0  0  0  0  0  0
   -0.1641   -0.4833    2.9573 H   0  0  0  0  0  0  0  0  0  0  0  0
    1.0686    0.6416    3.5239 H   0  0  0  0  0  0  0  0  0  0  0  0
   -0.2518    1.2299    2.5226 H   0  0  0  0  0  0  0  0  0  0  0  0
   -0.9393    1.0039    0.5769 H   0  0  0  0  0  0  0  0  0  0  0  0
   -2.2703    1.3364   -0.5269 H   0  0  0  0  0  0  0  0  0  0  0  0
   -1.9218   -0.7083   -1.7711 H   0  0  0  0  0  0  0  0  0  0  0  0
   -1.9876   -1.1265   -0.0607 H   0  0  0  0  0  0  0  0  0  0  0  0
   -0.4366   -1.0833   -0.9110 H   0  0  0  0  0  0  0  0  0  0  0  0
   -5.9848    0.9235   -4.3618 H   0  0  0  0  0  0  0  0  0  0  0  0
   -6.4516   -1.5608  -11.6068 H   0  0  0  0  0  0  0  0  0  0  0  0
   -8.7551   -1.5402  -10.7116 H   0  0  0  0  0  0  0  0  0  0  0  0
   -9.2310   -0.6257   -8.4847 H   0  0  0  0  0  0  0  0  0  0  0  0
  1  2  2  0  0  0  0
  2  3  1  0  0  0  0
  3  4  2  0  0  0  0
  3  5  1  0  0  0  0
  5  6  2  0  0  0  0
  6  7  1  0  0  0  0
  7  8  1  0  0  0  0
  8  9  1  0  0  0  0
  7 10  2  0  0  0  0
 10 11  1  0  0  0  0
 11 12  2  0  0  0  0
 12 13  1  0  0  0  0
 13 14  2  0  0  0  0
 14 15  1  0  0  0  0
 15 16  3  0  0  0  0
 14 17  1  0  0  0  0
 17 18  3  0  0  0  0
  1 19  1  0  0  0  0
 19 20  2  0  0  0  0
 20 21  1  0  0  0  0
 21 22  1  0  0  0  0
 20 23  1  0  0  0  0
 23 24  1  0  0  0  0
 24 25  1  0  0  0  0
 25 26  1  0  0  0  0
 26 27  1  0  0  0  0
 27 28  1  0  0  0  0
 28 29  2  0  0  0  0
 29 30  1  0  0  0  0
 30 31  1  0  0  0  0
 28 32  1  0  0  0  0
 32 33  1  0  0  0  0
 33 34  1  0  0  0  0
 34 35  1  0  0  0  0
 35 36  1  0  0  0  0
 36 37  1  0  0  0  0
 37 38  1  0  0  0  0
 36 39  2  0  0  0  0
 39 40  1  0  0  0  0
 40 41  1  0  0  0  0
 41 42  1  0  0  0  0
 42 43  1  0  0  0  0
 43 44  1  0  0  0  0
 44 45  1  0  0  0  0
 45 46  1  0  0  0  0
 46 47  1  0  0  0  0
 47 48  1  0  0  0  0
 48 49  1  0  0  0  0
 46 50  1  0  0  0  0
 50 51  1  0  0  0  0
 43 52  1  0  0  0  0
 52 53  1  0  0  0  0
 39 54  1  0  0  0  0
 54 55  2  0  0  0  0
 55 56  1  0  0  0  0
 56 57  2  0  0  0  0
 56 58  1  0  0  0  0
 58 59  2  0  0  0  0
 59 60  1  0  0  0  0
 59 61  1  0  0  0  0
 61 62  2  0  0  0  0
 62 63  1  0  0  0  0
 63 64  2  0  0  0  0
 64 65  1  0  0  0  0
 65 66  2  0  0  0  0
 66 67  1  0  0  0  0
 67 68  3  0  0  0  0
 66 69  1  0  0  0  0
 69 70  3  0  0  0  0
 13  2  1  0  0  0  0
 49 19  1  0  0  0  0
 65 55  1  0  0  0  0
 12  5  1  0  0  0  0
 48 23  2  0  0  0  0
 64 58  1  0  0  0  0
 47 25  2  0  0  0  0
 45 26  2  0  0  0  0
 31 27  2  0  0  0  0
 44 32  2  0  0  0  0
 42 33  2  0  0  0  0
 41 35  2  0  0  0  0
  1 71  1  0  0  0  0
  6 72  1  0  0  0  0
  9 73  1  0  0  0  0
  9 74  1  0  0  0  0
  9 75  1  0  0  0  0
 10 76  1  0  0  0  0
 11 77  1  0  0  0  0
 21 78  1  0  0  0  0
 21 79  1  0  0  0  0
 22 80  1  0  0  0  0
 22 81  1  0  0  0  0
 22 82  1  0  0  0  0
 37 83  1  0  0  0  0
 37 84  1  0  0  0  0
 38 85  1  0  0  0  0
 38 86  1  0  0  0  0
 38 87  1  0  0  0  0
 50 88  1  0  0  0  0
 50 89  1  0  0  0  0
 51 90  1  0  0  0  0
 51 91  1  0  0  0  0
 51 92  1  0  0  0  0
 52 93  1  0  0  0  0
 52 94  1  0  0  0  0
 53 95  1  0  0  0  0
 53 96  1  0  0  0  0
 53 97  1  0  0  0  0
 54 98  1  0  0  0  0
 61 99  1  0  0  0  0
 62100  1  0  0  0  0
 63101  1  0  0  0  0
M  END
