107

C          8.04770       -1.82830       -0.44460
C          8.77600       -1.03840        0.40890
C          8.28670        0.13430        1.13590
O          7.15220        0.58340        1.15620
C          9.45250        0.68710        1.85000
C          9.50210        1.81030        2.64910
C         10.72870        2.15260        3.22150
O         10.93500        3.22300        4.01810
C          9.85210        4.08190        4.29660
C         11.85350        1.35250        2.97420
C         11.79230        0.23040        2.17270
C         10.57630       -0.11460        1.59390
C         10.18780       -1.20480        0.70820
C         11.02320       -2.19720        0.26070
C         10.66260       -3.26370       -0.58740
N         10.45420       -4.16260       -1.27320
C         12.38890       -2.29040        0.60120
N         13.50380       -2.43120        0.83700
C          6.70220       -1.77310       -0.82580
C          6.13600       -2.66000       -1.75650
C          6.83720       -3.79840       -2.42260
C          6.84580       -5.03330       -1.51720
C          4.78830       -2.39060       -1.95720
S          3.58410       -3.12380       -3.00000
C          2.42610       -1.98650       -2.40560
C          1.08510       -1.63490       -2.61150
C          0.14180       -2.08070       -3.56440
C         -1.12900       -1.42050       -3.64330
N         -1.88380       -1.89120       -4.62320
S         -1.06890       -3.06910       -5.37770
N          0.27980       -3.02190       -4.48470
C         -1.45140       -0.44700       -2.67150
C         -2.65610        0.21190       -2.39090
S         -4.25560        0.33460       -3.02860
C         -4.71180        1.31330       -1.65080
C         -5.93470        1.85840       -1.23900
C         -7.16500        1.88960       -2.08060
C         -6.88650        2.37610       -3.50180
C         -5.80960        2.47820        0.00220
S         -4.14490        2.47060        0.59200
C         -3.64630        1.53290       -0.76290
C         -2.46940        0.91690       -1.19530
N         -1.18560        0.74410       -0.74920
C         -0.53100       -0.07370       -1.64980
C          0.79710       -0.56880       -1.71080
N          1.95350       -0.25180       -1.01630
C          2.93770       -1.10480       -1.44600
C          4.29620       -1.31900       -1.19320
S          5.52490       -0.60780       -0.21580
C          2.34200        1.01380       -0.42900
C          2.38830        2.11320       -1.48770
C         -0.84330        1.08570        0.61280
C         -0.57640        2.57970        0.78490
C         -6.75940        3.11820        0.82070
C         -8.07510        2.76400        0.97390
C         -8.61810        1.41950        0.67480
O         -8.05040        0.48760        0.14680
C         -9.97130        1.40290        1.27460
C        -10.89030        0.37710        1.29330
C        -12.10990        0.59340        1.93770
C        -13.09930       -0.51640        1.94760
O        -12.91860       -1.58600        1.42170
O        -14.22110       -0.19990        2.60780
C        -15.21260       -1.21520        2.66220
C        -12.37340        1.81710        2.55130
C        -11.44420        2.84660        2.53440
C        -10.23400        2.64100        1.88880
C         -9.07840        3.51460        1.69510
C         -8.99890        4.83500        2.05690
C         -7.90850        5.67910        1.75920
N         -7.06630        6.42580        1.53040
C        -10.01150        5.53020        2.74880
N        -10.79580        6.14610        3.31770
H          8.59140       -2.63150       -0.92290
H          8.60340        2.38540        2.80490
H          9.04960        3.55650        4.82280
H         10.25460        4.86240        4.93960
H          9.45530        4.53370        3.38240
H         12.78440        1.64470        3.43370
H         12.68250       -0.35370        2.00780
H          7.86300       -3.53320       -2.68210
H          6.30140       -4.03580       -3.34390
H          7.33940       -5.85710       -2.02440
H          7.38130       -4.82960       -0.59300
H          5.82860       -5.33050       -1.27300
H         -7.59080        0.88270       -2.11020
H         -7.90140        2.54580       -1.61320
H         -6.23970        1.68650       -4.03630
H         -7.82330        2.45720       -4.04700
H         -6.41290        3.35550       -3.48240
H          1.67550        1.29540        0.38180
H          3.33880        0.86870       -0.00570
H          3.09780        1.85190       -2.26930
H          1.41010        2.25000       -1.94480
H          2.70260        3.04980       -1.03540
H          0.00550        0.47580        0.92410
H         -1.69460        0.80960        1.24550
H          0.19250        2.92990        0.10250
H         -1.48510        3.14340        0.59130
H         -0.26210        2.78050        1.80540
H         -6.37160        3.92050        1.43850
H        -10.68470       -0.57210        0.82260
H        -16.06410       -0.78130        3.17970
H        -15.49160       -1.52720        1.65380
H        -14.83490       -2.08400        3.20540
H        -13.31980        1.95980        3.04860
H        -11.67070        3.78060        3.02250
