
  xtb     02022204443D
 energy: -218.971054867200 gnorm: 0.000898424743 xtb: 6.4.1 (unknown)
121134  0     0  0            999 V2000
   -5.2198    5.9668    2.0995 C   0  0  0  0  0  0  0  0  0  0  0  0
   -6.2081    5.4002    2.8614 C   0  0  0  0  0  0  0  0  0  0  0  0
   -6.1978    4.0367    3.4104 C   0  0  0  0  0  0  0  0  0  0  0  0
   -5.3398    3.1879    3.2371 O   0  0  0  0  0  0  0  0  0  0  0  0
   -7.4207    3.9175    4.2150 C   0  0  0  0  0  0  0  0  0  0  0  0
   -7.8794    2.8255    4.9571 C   0  0  0  0  0  0  0  0  0  0  0  0
   -7.1327    1.7102    4.9523 O   0  0  0  0  0  0  0  0  0  0  0  0
   -7.5735    0.5833    5.6732 C   0  0  0  0  0  0  0  0  0  0  0  0
   -9.0875    2.9853    5.6474 C   0  0  0  0  0  0  0  0  0  0  0  0
   -9.7850    4.1779    5.5882 C   0  0  0  0  0  0  0  0  0  0  0  0
   -9.3324    5.2613    4.8463 C   0  0  0  0  0  0  0  0  0  0  0  0
   -8.1417    5.1233    4.1549 C   0  0  0  0  0  0  0  0  0  0  0  0
   -7.4209    6.0593    3.2903 C   0  0  0  0  0  0  0  0  0  0  0  0
   -7.8601    7.3080    2.9303 C   0  0  0  0  0  0  0  0  0  0  0  0
   -9.0622    7.8891    3.3855 C   0  0  0  0  0  0  0  0  0  0  0  0
  -10.0214    8.4270    3.7163 N   0  0  0  0  0  0  0  0  0  0  0  0
   -7.2101    8.1888    2.0394 C   0  0  0  0  0  0  0  0  0  0  0  0
   -6.7659    8.9627    1.3152 N   0  0  0  0  0  0  0  0  0  0  0  0
   -4.0396    5.4178    1.5834 C   0  0  0  0  0  0  0  0  0  0  0  0
   -3.1752    6.1733    0.7732 C   0  0  0  0  0  0  0  0  0  0  0  0
   -3.3661    7.6108    0.5269 C   0  0  0  0  0  0  0  0  0  0  0  0
   -3.1407    8.4950    1.5782 C   0  0  0  0  0  0  0  0  0  0  0  0
   -3.3129    9.8538    1.4024 C   0  0  0  0  0  0  0  0  0  0  0  0
   -3.7222   10.3377    0.1724 C   0  0  0  0  0  0  0  0  0  0  0  0
   -3.9524    9.4608   -0.8709 C   0  0  0  0  0  0  0  0  0  0  0  0
   -3.7774    8.0924   -0.7169 C   0  0  0  0  0  0  0  0  0  0  0  0
   -4.1192    7.1595   -1.8434 C   0  0  0  0  0  0  0  0  0  0  0  0
   -5.5451    6.6278   -1.6800 C   0  0  0  0  0  0  0  0  0  0  0  0
   -2.1216    5.4051    0.2926 C   0  0  0  0  0  0  0  0  0  0  0  0
   -0.7526    5.7745   -0.7400 S   0  0  0  0  0  0  0  0  0  0  0  0
   -0.2276    4.1340   -0.5692 C   0  0  0  0  0  0  0  0  0  0  0  0
    0.8371    3.3134   -0.9656 C   0  0  0  0  0  0  0  0  0  0  0  0
    2.0201    3.6103   -1.6789 C   0  0  0  0  0  0  0  0  0  0  0  0
    3.0177    2.5908   -1.8237 C   0  0  0  0  0  0  0  0  0  0  0  0
    4.0953    3.0232   -2.4586 N   0  0  0  0  0  0  0  0  0  0  0  0
    3.8717    4.5796   -2.8465 S   0  0  0  0  0  0  0  0  0  0  0  0
    2.3916    4.7608   -2.2174 N   0  0  0  0  0  0  0  0  0  0  0  0
    2.7336    1.2882   -1.3558 C   0  0  0  0  0  0  0  0  0  0  0  0
    3.4440    0.0890   -1.4848 C   0  0  0  0  0  0  0  0  0  0  0  0
    4.9526   -0.4765   -2.1166 S   0  0  0  0  0  0  0  0  0  0  0  0
    4.4725   -2.1121   -1.7012 C   0  0  0  0  0  0  0  0  0  0  0  0
    5.1041   -3.3391   -1.8312 C   0  0  0  0  0  0  0  0  0  0  0  0
    6.4495   -3.5575   -2.3820 C   0  0  0  0  0  0  0  0  0  0  0  0
    6.7107   -3.4243   -3.7470 C   0  0  0  0  0  0  0  0  0  0  0  0
    5.6138   -3.1322   -4.7305 C   0  0  0  0  0  0  0  0  0  0  0  0
    4.8556   -4.4161   -5.0764 C   0  0  0  0  0  0  0  0  0  0  0  0
    8.0019   -3.6610   -4.1984 C   0  0  0  0  0  0  0  0  0  0  0  0
    9.0155   -4.0155   -3.3280 C   0  0  0  0  0  0  0  0  0  0  0  0
    8.7494   -4.1470   -1.9763 C   0  0  0  0  0  0  0  0  0  0  0  0
    7.4697   -3.9233   -1.5079 C   0  0  0  0  0  0  0  0  0  0  0  0
    4.3121   -4.3882   -1.3216 C   0  0  0  0  0  0  0  0  0  0  0  0
    2.7812   -3.8100   -0.6712 S   0  0  0  0  0  0  0  0  0  0  0  0
    3.2009   -2.1932   -1.0981 C   0  0  0  0  0  0  0  0  0  0  0  0
    2.6260   -0.9281   -0.9723 C   0  0  0  0  0  0  0  0  0  0  0  0
    1.4480   -0.3944   -0.5214 N   0  0  0  0  0  0  0  0  0  0  0  0
    1.4958    0.9702   -0.7185 C   0  0  0  0  0  0  0  0  0  0  0  0
    0.5931    2.0215   -0.4128 C   0  0  0  0  0  0  0  0  0  0  0  0
   -0.5769    2.0749    0.3282 N   0  0  0  0  0  0  0  0  0  0  0  0
   -1.0649    3.3525    0.2354 C   0  0  0  0  0  0  0  0  0  0  0  0
   -2.1541    4.0717    0.7369 C   0  0  0  0  0  0  0  0  0  0  0  0
   -3.5085    3.7504    1.7584 S   0  0  0  0  0  0  0  0  0  0  0  0
   -0.9837    1.2795    1.4682 C   0  0  0  0  0  0  0  0  0  0  0  0
   -0.0616    1.5295    2.6596 C   0  0  0  0  0  0  0  0  0  0  0  0
    0.3262   -1.2665   -0.2544 C   0  0  0  0  0  0  0  0  0  0  0  0
    0.4065   -1.9097    1.1293 C   0  0  0  0  0  0  0  0  0  0  0  0
    4.7168   -5.7189   -1.4118 C   0  0  0  0  0  0  0  0  0  0  0  0
    4.1111   -6.8728   -0.9676 C   0  0  0  0  0  0  0  0  0  0  0  0
    2.8911   -6.9427   -0.1678 C   0  0  0  0  0  0  0  0  0  0  0  0
    2.1584   -6.0245    0.1562 O   0  0  0  0  0  0  0  0  0  0  0  0
    2.7236   -8.3686    0.1886 C   0  0  0  0  0  0  0  0  0  0  0  0
    3.7629   -9.1179   -0.3942 C   0  0  0  0  0  0  0  0  0  0  0  0
    3.8250  -10.4868   -0.1927 C   0  0  0  0  0  0  0  0  0  0  0  0
    2.8480  -11.0892    0.5873 C   0  0  0  0  0  0  0  0  0  0  0  0
    1.8248  -10.3474    1.1561 C   0  0  0  0  0  0  0  0  0  0  0  0
    0.5224  -11.2271    2.2066 Br  0  0  0  0  0  0  0  0  0  0  0  0
    1.7439   -8.9634    0.9655 C   0  0  0  0  0  0  0  0  0  0  0  0
    0.4826   -8.0434    1.6675 Cl  0  0  0  0  0  0  0  0  0  0  0  0
    4.6246   -8.2096   -1.1528 C   0  0  0  0  0  0  0  0  0  0  0  0
    5.6893   -8.5923   -1.9302 C   0  0  0  0  0  0  0  0  0  0  0  0
    6.4725   -7.7356   -2.7326 C   0  0  0  0  0  0  0  0  0  0  0  0
    7.1451   -7.1179   -3.4297 N   0  0  0  0  0  0  0  0  0  0  0  0
    6.1306   -9.9250   -2.0625 C   0  0  0  0  0  0  0  0  0  0  0  0
    6.5410  -10.9876   -2.2069 N   0  0  0  0  0  0  0  0  0  0  0  0
   -5.3505    7.0070    1.8245 H   0  0  0  0  0  0  0  0  0  0  0  0
   -8.5382    0.2225    5.3031 H   0  0  0  0  0  0  0  0  0  0  0  0
   -7.6480    0.7950    6.7444 H   0  0  0  0  0  0  0  0  0  0  0  0
   -6.8162   -0.1810    5.5092 H   0  0  0  0  0  0  0  0  0  0  0  0
   -9.4884    2.1762    6.2369 H   0  0  0  0  0  0  0  0  0  0  0  0
  -10.7114    4.2674    6.1354 H   0  0  0  0  0  0  0  0  0  0  0  0
   -9.9025    6.1740    4.8228 H   0  0  0  0  0  0  0  0  0  0  0  0
   -2.8239    8.1043    2.5352 H   0  0  0  0  0  0  0  0  0  0  0  0
   -3.1352   10.5302    2.2248 H   0  0  0  0  0  0  0  0  0  0  0  0
   -3.8703   11.3971    0.0292 H   0  0  0  0  0  0  0  0  0  0  0  0
   -4.2839    9.8407   -1.8263 H   0  0  0  0  0  0  0  0  0  0  0  0
   -3.4212    6.3214   -1.8742 H   0  0  0  0  0  0  0  0  0  0  0  0
   -4.0442    7.6963   -2.7906 H   0  0  0  0  0  0  0  0  0  0  0  0
   -5.6261    6.0129   -0.7862 H   0  0  0  0  0  0  0  0  0  0  0  0
   -6.2459    7.4544   -1.5872 H   0  0  0  0  0  0  0  0  0  0  0  0
   -5.8259    6.0245   -2.5402 H   0  0  0  0  0  0  0  0  0  0  0  0
    4.9172   -2.3971   -4.3250 H   0  0  0  0  0  0  0  0  0  0  0  0
    6.0486   -2.7178   -5.6415 H   0  0  0  0  0  0  0  0  0  0  0  0
    4.3381   -4.8049   -4.2018 H   0  0  0  0  0  0  0  0  0  0  0  0
    4.1208   -4.2243   -5.8549 H   0  0  0  0  0  0  0  0  0  0  0  0
    5.5475   -5.1784   -5.4267 H   0  0  0  0  0  0  0  0  0  0  0  0
    8.2102   -3.5727   -5.2546 H   0  0  0  0  0  0  0  0  0  0  0  0
   10.0105   -4.1976   -3.7043 H   0  0  0  0  0  0  0  0  0  0  0  0
    9.5328   -4.4290   -1.2893 H   0  0  0  0  0  0  0  0  0  0  0  0
    7.2490   -4.0234   -0.4542 H   0  0  0  0  0  0  0  0  0  0  0  0
   -1.0066    0.2224    1.2264 H   0  0  0  0  0  0  0  0  0  0  0  0
   -2.0009    1.5891    1.7199 H   0  0  0  0  0  0  0  0  0  0  0  0
   -0.3911    0.9413    3.5116 H   0  0  0  0  0  0  0  0  0  0  0  0
   -0.0818    2.5807    2.9370 H   0  0  0  0  0  0  0  0  0  0  0  0
    0.9641    1.2584    2.4159 H   0  0  0  0  0  0  0  0  0  0  0  0
    0.3451   -2.0631   -1.0064 H   0  0  0  0  0  0  0  0  0  0  0  0
   -0.5968   -0.7036   -0.3997 H   0  0  0  0  0  0  0  0  0  0  0  0
    0.5611   -1.1673    1.9073 H   0  0  0  0  0  0  0  0  0  0  0  0
    1.2314   -2.6159    1.1631 H   0  0  0  0  0  0  0  0  0  0  0  0
   -0.5115   -2.4533    1.3346 H   0  0  0  0  0  0  0  0  0  0  0  0
    5.6720   -5.8352   -1.9103 H   0  0  0  0  0  0  0  0  0  0  0  0
    4.6089  -11.0896   -0.6194 H   0  0  0  0  0  0  0  0  0  0  0  0
    2.8801  -12.1541    0.7581 H   0  0  0  0  0  0  0  0  0  0  0  0
  1  2  2  0  0  0  0
  2  3  1  0  0  0  0
  3  4  2  0  0  0  0
  3  5  1  0  0  0  0
  5  6  2  0  0  0  0
  6  7  1  0  0  0  0
  7  8  1  0  0  0  0
  6  9  1  0  0  0  0
  9 10  2  0  0  0  0
 10 11  1  0  0  0  0
 11 12  2  0  0  0  0
 12 13  1  0  0  0  0
 13 14  2  0  0  0  0
 14 15  1  0  0  0  0
 15 16  3  0  0  0  0
 14 17  1  0  0  0  0
 17 18  3  0  0  0  0
  1 19  1  0  0  0  0
 19 20  2  0  0  0  0
 20 21  1  0  0  0  0
 21 22  2  0  0  0  0
 22 23  1  0  0  0  0
 23 24  2  0  0  0  0
 24 25  1  0  0  0  0
 25 26  2  0  0  0  0
 26 27  1  0  0  0  0
 27 28  1  0  0  0  0
 20 29  1  0  0  0  0
 29 30  1  0  0  0  0
 30 31  1  0  0  0  0
 31 32  1  0  0  0  0
 32 33  1  0  0  0  0
 33 34  1  0  0  0  0
 34 35  2  0  0  0  0
 35 36  1  0  0  0  0
 36 37  1  0  0  0  0
 34 38  1  0  0  0  0
 38 39  1  0  0  0  0
 39 40  1  0  0  0  0
 40 41  1  0  0  0  0
 41 42  1  0  0  0  0
 42 43  1  0  0  0  0
 43 44  2  0  0  0  0
 44 45  1  0  0  0  0
 45 46  1  0  0  0  0
 44 47  1  0  0  0  0
 47 48  2  0  0  0  0
 48 49  1  0  0  0  0
 49 50  2  0  0  0  0
 42 51  2  0  0  0  0
 51 52  1  0  0  0  0
 52 53  1  0  0  0  0
 53 54  1  0  0  0  0
 54 55  1  0  0  0  0
 55 56  1  0  0  0  0
 56 57  1  0  0  0  0
 57 58  1  0  0  0  0
 58 59  1  0  0  0  0
 59 60  1  0  0  0  0
 60 61  1  0  0  0  0
 58 62  1  0  0  0  0
 62 63  1  0  0  0  0
 55 64  1  0  0  0  0
 64 65  1  0  0  0  0
 51 66  1  0  0  0  0
 66 67  2  0  0  0  0
 67 68  1  0  0  0  0
 68 69  2  0  0  0  0
 68 70  1  0  0  0  0
 70 71  2  0  0  0  0
 71 72  1  0  0  0  0
 72 73  2  0  0  0  0
 73 74  1  0  0  0  0
 74 75  1  0  0  0  0
 74 76  2  0  0  0  0
 76 77  1  0  0  0  0
 71 78  1  0  0  0  0
 78 79  2  0  0  0  0
 79 80  1  0  0  0  0
 80 81  3  0  0  0  0
 79 82  1  0  0  0  0
 82 83  3  0  0  0  0
 13  2  1  0  0  0  0
 61 19  1  0  0  0  0
 78 67  1  0  0  0  0
 12  5  1  0  0  0  0
 26 21  1  0  0  0  0
 60 29  2  0  0  0  0
 76 70  1  0  0  0  0
 59 31  2  0  0  0  0
 57 32  2  0  0  0  0
 37 33  2  0  0  0  0
 56 38  2  0  0  0  0
 54 39  2  0  0  0  0
 53 41  2  0  0  0  0
 50 43  1  0  0  0  0
  1 84  1  0  0  0  0
  8 85  1  0  0  0  0
  8 86  1  0  0  0  0
  8 87  1  0  0  0  0
  9 88  1  0  0  0  0
 10 89  1  0  0  0  0
 11 90  1  0  0  0  0
 22 91  1  0  0  0  0
 23 92  1  0  0  0  0
 24 93  1  0  0  0  0
 25 94  1  0  0  0  0
 27 95  1  0  0  0  0
 27 96  1  0  0  0  0
 28 97  1  0  0  0  0
 28 98  1  0  0  0  0
 28 99  1  0  0  0  0
 45100  1  0  0  0  0
 45101  1  0  0  0  0
 46102  1  0  0  0  0
 46103  1  0  0  0  0
 46104  1  0  0  0  0
 47105  1  0  0  0  0
 48106  1  0  0  0  0
 49107  1  0  0  0  0
 50108  1  0  0  0  0
 62109  1  0  0  0  0
 62110  1  0  0  0  0
 63111  1  0  0  0  0
 63112  1  0  0  0  0
 63113  1  0  0  0  0
 64114  1  0  0  0  0
 64115  1  0  0  0  0
 65116  1  0  0  0  0
 65117  1  0  0  0  0
 65118  1  0  0  0  0
 66119  1  0  0  0  0
 72120  1  0  0  0  0
 73121  1  0  0  0  0
M  END
