112

C          6.38500        0.10460       -6.39540
C          7.69480        0.04290       -5.99810
C          8.18010        0.44700       -4.65050
O          7.50620        0.74540       -3.68820
C          9.64620        0.52220       -4.77640
C         10.58460        0.87640       -3.80310
O         10.12670        1.17200       -2.57600
C         11.04210        1.50360       -1.55920
C         11.93110        0.88560       -4.18730
C         12.30170        0.56270       -5.48020
C         11.37030        0.20910       -6.44740
C         10.03480        0.18850       -6.08420
C          8.83830       -0.14360       -6.85610
C          8.81870       -0.63640       -8.13720
C          7.65220       -1.05410       -8.80980
N          6.74830       -1.43490       -9.40810
C          9.96310       -0.82570       -8.93660
N         10.85300       -0.99390       -9.64300
C          5.24470        0.16790       -5.56340
C          4.09980        0.93990       -5.84900
C          3.28540        0.83100       -4.73350
C          3.91970       -0.03890       -3.82260
N          5.10620       -0.43420       -4.32730
C          5.84560       -1.56590       -3.82440
C          5.04630       -2.85340       -4.01140
C          3.09310       -0.12330       -2.68890
C          3.29190       -0.73780       -1.43340
C          2.33110       -0.51640       -0.39220
N          2.66960       -1.09790        0.74760
S          4.07630       -1.86780        0.53170
N          4.30770       -1.48540       -1.02630
C          1.16340        0.21620       -0.69050
C          0.03160        0.48890        0.08740
S         -0.53830        0.22990        1.69670
C         -2.04520        1.00370        1.26340
C         -3.23530        1.21670        1.97290
C         -3.37490        0.94820        3.43710
C         -2.28600        1.65250        4.24730
C         -4.19830        1.80920        1.16660
S         -3.58780        2.17310       -0.44500
C         -2.07770        1.43680       -0.06840
C         -0.88500        1.14590       -0.73890
N         -0.35080        1.31550       -1.98820
C          0.92110        0.76290       -1.98470
C          1.95020        0.68940       -2.95870
N          2.08950        1.26610       -4.21610
C          1.48170        2.46310       -4.75300
C          1.63470        3.65200       -3.80700
C         -1.22150        1.63720       -3.09760
C         -1.37380        0.45800       -4.05400
C         -5.53890        2.17190        1.44070
C         -6.42100        1.57700        2.28910
C         -7.62030        2.31790        2.76520
O         -8.06040        3.35040        2.31200
C         -8.10620        1.55880        3.93510
C         -9.11700        1.92530        4.82070
C         -9.30920        1.03610        5.85120
C         -8.54420       -0.12850        6.00300
C         -7.55220       -0.51010        5.13160
C         -7.35240        0.37370        4.06910
C         -6.40970        0.29390        2.95640
C         -5.81670       -0.85380        2.49700
C         -5.93170       -2.10740        3.13040
N         -5.98160       -3.14900        3.61100
C         -5.10220       -0.93870        1.28550
N         -4.54870       -1.08190        0.28970
C         -9.26450       -0.53400        7.26400
C        -10.31180       -1.66930        7.15960
C        -10.81590       -1.65350        5.73760
C        -11.54880       -0.55920        5.58090
C        -11.55440        0.18420        6.89390
C        -11.49520       -0.99800        7.87460
C        -10.12730        0.75520        7.08660
H          6.17670        0.20300       -7.45430
H         11.74040        0.68350       -1.36430
H         10.43760        1.68070       -0.67150
H         11.60270        2.41170       -1.80240
H         12.69790        1.14840       -3.47570
H         13.34860        0.58670       -5.74330
H         11.69200       -0.03300       -7.44590
H          3.96520        1.52790       -6.73540
H          6.79060       -1.64060       -4.36000
H          6.04230       -1.40070       -2.76320
H          4.80650       -3.00500       -5.06230
H          5.62950       -3.69960       -3.66020
H          4.12350       -2.81040       -3.44010
H         -3.31290       -0.13090        3.61160
H         -4.34850        1.29540        3.78510
H         -2.45380        1.48350        5.30800
H         -2.31060        2.72370        4.05930
H         -1.30010        1.27600        3.99120
H          0.43570        2.28790       -5.00910
H          2.00920        2.67600       -5.68540
H          1.15680        3.45900       -2.84970
H          1.18910        4.53920       -4.24930
H          2.68950        3.84570       -3.62570
H         -0.87190        2.53240       -3.61400
H         -2.19650        1.87650       -2.66590
H         -0.41290        0.15160       -4.46040
H         -2.03230        0.73130       -4.87410
H         -1.80860       -0.38950       -3.52940
H         -5.90860        3.05780        0.93270
H         -9.67560        2.83710        4.67840
H         -6.96330       -1.40370        5.25900
H         -8.64920       -0.61510        8.15790
H         -9.97560       -2.63020        7.53940
H        -10.54710       -2.38630        4.99960
H        -12.01570       -0.19480        4.68470
H        -12.35220        0.90940        7.03140
H        -12.39810       -1.60620        7.85610
H        -11.27190       -0.70160        8.89870
H        -10.08590        1.51010        7.86960
