101

C         -3.76870        6.01910        2.40390
C         -2.80530        6.89330        2.84120
C         -1.36170        6.62720        2.91520
O         -0.79150        5.59700        2.59990
C         -0.75010        7.85380        3.44260
C          0.59740        8.11940        3.70140
O          1.48420        7.14340        3.45090
C          2.85130        7.37560        3.69640
C          0.91250        9.38820        4.20330
C         -0.07800       10.32680        4.42770
C         -1.41720       10.06260        4.17110
C         -1.74960        8.81420        3.67490
C         -3.04620        8.24050        3.30900
C         -4.25090        8.89070        3.40430
C         -4.40970       10.21190        3.87230
N         -4.62170       11.27830        4.24160
C         -5.50840        8.35530        3.05730
N         -6.57110        8.00010        2.80070
C         -3.67160        4.70740        1.92590
C         -4.79180        3.95520        1.53130
C         -6.21630        4.39670        1.61650
C         -6.76840        4.17900        3.02800
C         -4.42240        2.69000        1.09380
S         -5.35320        1.32680        0.49780
C         -3.87700        0.44860        0.29750
C         -3.44320       -0.82140       -0.10620
C         -4.17000       -1.98100       -0.45680
C         -3.45460       -3.19750       -0.70920
N         -4.26080       -4.21550       -0.96530
S         -5.78970       -3.68680       -0.90120
N         -5.48140       -2.13950       -0.54110
C         -2.04250       -3.16620       -0.72250
C         -1.10560       -4.14080       -1.09010
S         -1.06600       -5.78880       -1.60630
C          0.66260       -5.65330       -1.84660
C          1.62650       -6.54980       -2.32290
C          1.33180       -7.98980       -2.60660
C          0.21590       -8.18180       -3.63420
C          2.89040       -5.96570       -2.33380
S          2.86890       -4.31930       -1.70560
C          1.16320       -4.38730       -1.50490
C          0.15130       -3.52510       -1.07710
N          0.02520       -2.21600       -0.69750
C         -1.31200       -1.97150       -0.45150
C         -2.01950       -0.82060       -0.01640
N         -1.61150        0.41080        0.47050
C         -2.73590        1.17080        0.66440
C         -3.03800        2.45350        1.13090
S         -2.16430        3.81140        1.73470
C         -0.42140        0.76290        1.21590
C         -0.41780        0.08610        2.58480
C          1.12540       -1.30490       -0.91730
C          2.16650       -1.38350        0.19830
C          4.16320       -6.47750       -2.66960
C          4.53080       -7.40360       -3.60290
C          5.84710       -8.07800       -3.48340
O          6.74370       -7.79800       -2.72200
C          5.79990       -9.19210       -4.45990
C          6.73010      -10.18780       -4.67710
C          6.45290      -11.15070       -5.64090
Cl         7.56970      -12.41910       -5.95980
C          5.25340      -11.08360       -6.35350
F          4.98740      -12.02350       -7.26790
C          4.31920      -10.07930       -6.15060
C          4.60060       -9.12100       -5.19130
C          3.85940       -7.93490       -4.76610
C          2.88710       -7.30540       -5.49960
C          2.39030       -6.02260       -5.19420
N          1.98300       -4.96520       -5.01010
C          2.33340       -7.83100       -6.68440
N          1.83500       -8.22380       -7.64060
H         -4.78470        6.38890        2.42480
H          3.23560        8.19740        3.08400
H          3.03950        7.58760        4.75360
H          3.35690        6.45250        3.41860
H          1.93610        9.64870        4.42100
H          0.20020       11.29540        4.81480
H         -2.16000       10.81870        4.35830
H         -6.79990        3.80290        0.91020
H         -6.31990        5.44850        1.34590
H         -6.20630        4.76030        3.75500
H         -6.70670        3.12780        3.29990
H         -7.80810        4.49060        3.06850
H          1.01610       -8.45360       -1.66640
H          2.23970       -8.49670       -2.93440
H          0.11980       -9.23650       -3.87980
H         -0.73320       -7.83350       -3.23670
H          0.41820       -7.63100       -4.54890
H         -0.44050        1.84810        1.34350
H          0.47950        0.50690        0.66820
H         -1.29450        0.38460        3.15410
H          0.46930        0.37970        3.13890
H         -0.42970       -0.99720        2.47930
H          1.60340       -1.59120       -1.86070
H          0.72940       -0.29720       -1.04700
H          2.64650       -2.35860        0.18820
H          2.92990       -0.62610        0.04360
H          1.71640       -1.23780        1.17640
H          4.98710       -6.09860       -2.06980
H          7.64830      -10.21520       -4.11250
H          3.41100      -10.08140       -6.73150
