
  xtb     02012221343D
 energy: -189.828914697556 gnorm: 0.000597062470 xtb: 6.4.1 (unknown)
101112  0     0  0            999 V2000
   -3.7687    6.0191    2.4039 C   0  0  0  0  0  0  0  0  0  0  0  0
   -2.8053    6.8933    2.8412 C   0  0  0  0  0  0  0  0  0  0  0  0
   -1.3617    6.6272    2.9152 C   0  0  0  0  0  0  0  0  0  0  0  0
   -0.7915    5.5970    2.5999 O   0  0  0  0  0  0  0  0  0  0  0  0
   -0.7501    7.8538    3.4426 C   0  0  0  0  0  0  0  0  0  0  0  0
    0.5974    8.1194    3.7014 C   0  0  0  0  0  0  0  0  0  0  0  0
    1.4842    7.1434    3.4509 O   0  0  0  0  0  0  0  0  0  0  0  0
    2.8513    7.3756    3.6964 C   0  0  0  0  0  0  0  0  0  0  0  0
    0.9125    9.3882    4.2033 C   0  0  0  0  0  0  0  0  0  0  0  0
   -0.0780   10.3268    4.4277 C   0  0  0  0  0  0  0  0  0  0  0  0
   -1.4172   10.0626    4.1711 C   0  0  0  0  0  0  0  0  0  0  0  0
   -1.7496    8.8142    3.6749 C   0  0  0  0  0  0  0  0  0  0  0  0
   -3.0462    8.2405    3.3090 C   0  0  0  0  0  0  0  0  0  0  0  0
   -4.2509    8.8907    3.4043 C   0  0  0  0  0  0  0  0  0  0  0  0
   -4.4097   10.2119    3.8723 C   0  0  0  0  0  0  0  0  0  0  0  0
   -4.6217   11.2783    4.2416 N   0  0  0  0  0  0  0  0  0  0  0  0
   -5.5084    8.3553    3.0573 C   0  0  0  0  0  0  0  0  0  0  0  0
   -6.5711    8.0001    2.8007 N   0  0  0  0  0  0  0  0  0  0  0  0
   -3.6716    4.7074    1.9259 C   0  0  0  0  0  0  0  0  0  0  0  0
   -4.7918    3.9552    1.5313 C   0  0  0  0  0  0  0  0  0  0  0  0
   -6.2163    4.3967    1.6165 C   0  0  0  0  0  0  0  0  0  0  0  0
   -6.7684    4.1790    3.0280 C   0  0  0  0  0  0  0  0  0  0  0  0
   -4.4224    2.6900    1.0938 C   0  0  0  0  0  0  0  0  0  0  0  0
   -5.3532    1.3268    0.4978 S   0  0  0  0  0  0  0  0  0  0  0  0
   -3.8770    0.4486    0.2975 C   0  0  0  0  0  0  0  0  0  0  0  0
   -3.4432   -0.8214   -0.1062 C   0  0  0  0  0  0  0  0  0  0  0  0
   -4.1700   -1.9810   -0.4568 C   0  0  0  0  0  0  0  0  0  0  0  0
   -3.4546   -3.1975   -0.7092 C   0  0  0  0  0  0  0  0  0  0  0  0
   -4.2608   -4.2155   -0.9653 N   0  0  0  0  0  0  0  0  0  0  0  0
   -5.7897   -3.6868   -0.9012 S   0  0  0  0  0  0  0  0  0  0  0  0
   -5.4814   -2.1395   -0.5411 N   0  0  0  0  0  0  0  0  0  0  0  0
   -2.0425   -3.1662   -0.7225 C   0  0  0  0  0  0  0  0  0  0  0  0
   -1.1056   -4.1408   -1.0901 C   0  0  0  0  0  0  0  0  0  0  0  0
   -1.0660   -5.7888   -1.6063 S   0  0  0  0  0  0  0  0  0  0  0  0
    0.6626   -5.6533   -1.8466 C   0  0  0  0  0  0  0  0  0  0  0  0
    1.6265   -6.5498   -2.3229 C   0  0  0  0  0  0  0  0  0  0  0  0
    1.3318   -7.9898   -2.6066 C   0  0  0  0  0  0  0  0  0  0  0  0
    0.2159   -8.1818   -3.6342 C   0  0  0  0  0  0  0  0  0  0  0  0
    2.8904   -5.9657   -2.3338 C   0  0  0  0  0  0  0  0  0  0  0  0
    2.8689   -4.3193   -1.7056 S   0  0  0  0  0  0  0  0  0  0  0  0
    1.1632   -4.3873   -1.5049 C   0  0  0  0  0  0  0  0  0  0  0  0
    0.1513   -3.5251   -1.0771 C   0  0  0  0  0  0  0  0  0  0  0  0
    0.0252   -2.2160   -0.6975 N   0  0  0  0  0  0  0  0  0  0  0  0
   -1.3120   -1.9715   -0.4515 C   0  0  0  0  0  0  0  0  0  0  0  0
   -2.0195   -0.8206   -0.0164 C   0  0  0  0  0  0  0  0  0  0  0  0
   -1.6115    0.4108    0.4705 N   0  0  0  0  0  0  0  0  0  0  0  0
   -2.7359    1.1708    0.6644 C   0  0  0  0  0  0  0  0  0  0  0  0
   -3.0380    2.4535    1.1309 C   0  0  0  0  0  0  0  0  0  0  0  0
   -2.1643    3.8114    1.7347 S   0  0  0  0  0  0  0  0  0  0  0  0
   -0.4214    0.7629    1.2159 C   0  0  0  0  0  0  0  0  0  0  0  0
   -0.4178    0.0861    2.5848 C   0  0  0  0  0  0  0  0  0  0  0  0
    1.1254   -1.3049   -0.9173 C   0  0  0  0  0  0  0  0  0  0  0  0
    2.1665   -1.3835    0.1983 C   0  0  0  0  0  0  0  0  0  0  0  0
    4.1632   -6.4775   -2.6696 C   0  0  0  0  0  0  0  0  0  0  0  0
    4.5308   -7.4036   -3.6029 C   0  0  0  0  0  0  0  0  0  0  0  0
    5.8471   -8.0780   -3.4834 C   0  0  0  0  0  0  0  0  0  0  0  0
    6.7437   -7.7980   -2.7220 O   0  0  0  0  0  0  0  0  0  0  0  0
    5.7999   -9.1921   -4.4599 C   0  0  0  0  0  0  0  0  0  0  0  0
    6.7301  -10.1878   -4.6771 C   0  0  0  0  0  0  0  0  0  0  0  0
    6.4529  -11.1507   -5.6409 C   0  0  0  0  0  0  0  0  0  0  0  0
    7.5697  -12.4191   -5.9598 Cl  0  0  0  0  0  0  0  0  0  0  0  0
    5.2534  -11.0836   -6.3535 C   0  0  0  0  0  0  0  0  0  0  0  0
    4.9874  -12.0235   -7.2679 F   0  0  0  0  0  0  0  0  0  0  0  0
    4.3192  -10.0793   -6.1506 C   0  0  0  0  0  0  0  0  0  0  0  0
    4.6006   -9.1210   -5.1913 C   0  0  0  0  0  0  0  0  0  0  0  0
    3.8594   -7.9349   -4.7661 C   0  0  0  0  0  0  0  0  0  0  0  0
    2.8871   -7.3054   -5.4996 C   0  0  0  0  0  0  0  0  0  0  0  0
    2.3903   -6.0226   -5.1942 C   0  0  0  0  0  0  0  0  0  0  0  0
    1.9830   -4.9652   -5.0101 N   0  0  0  0  0  0  0  0  0  0  0  0
    2.3334   -7.8310   -6.6844 C   0  0  0  0  0  0  0  0  0  0  0  0
    1.8350   -8.2238   -7.6406 N   0  0  0  0  0  0  0  0  0  0  0  0
   -4.7847    6.3889    2.4248 H   0  0  0  0  0  0  0  0  0  0  0  0
    3.2356    8.1974    3.0840 H   0  0  0  0  0  0  0  0  0  0  0  0
    3.0395    7.5876    4.7536 H   0  0  0  0  0  0  0  0  0  0  0  0
    3.3569    6.4525    3.4186 H   0  0  0  0  0  0  0  0  0  0  0  0
    1.9361    9.6487    4.4210 H   0  0  0  0  0  0  0  0  0  0  0  0
    0.2002   11.2954    4.8148 H   0  0  0  0  0  0  0  0  0  0  0  0
   -2.1600   10.8187    4.3583 H   0  0  0  0  0  0  0  0  0  0  0  0
   -6.7999    3.8029    0.9102 H   0  0  0  0  0  0  0  0  0  0  0  0
   -6.3199    5.4485    1.3459 H   0  0  0  0  0  0  0  0  0  0  0  0
   -6.2063    4.7603    3.7550 H   0  0  0  0  0  0  0  0  0  0  0  0
   -6.7067    3.1278    3.2999 H   0  0  0  0  0  0  0  0  0  0  0  0
   -7.8081    4.4906    3.0685 H   0  0  0  0  0  0  0  0  0  0  0  0
    1.0161   -8.4536   -1.6664 H   0  0  0  0  0  0  0  0  0  0  0  0
    2.2397   -8.4967   -2.9344 H   0  0  0  0  0  0  0  0  0  0  0  0
    0.1198   -9.2365   -3.8798 H   0  0  0  0  0  0  0  0  0  0  0  0
   -0.7332   -7.8335   -3.2367 H   0  0  0  0  0  0  0  0  0  0  0  0
    0.4182   -7.6310   -4.5489 H   0  0  0  0  0  0  0  0  0  0  0  0
   -0.4405    1.8481    1.3435 H   0  0  0  0  0  0  0  0  0  0  0  0
    0.4795    0.5069    0.6682 H   0  0  0  0  0  0  0  0  0  0  0  0
   -1.2945    0.3846    3.1541 H   0  0  0  0  0  0  0  0  0  0  0  0
    0.4693    0.3797    3.1389 H   0  0  0  0  0  0  0  0  0  0  0  0
   -0.4297   -0.9972    2.4793 H   0  0  0  0  0  0  0  0  0  0  0  0
    1.6034   -1.5912   -1.8607 H   0  0  0  0  0  0  0  0  0  0  0  0
    0.7294   -0.2972   -1.0470 H   0  0  0  0  0  0  0  0  0  0  0  0
    2.6465   -2.3586    0.1882 H   0  0  0  0  0  0  0  0  0  0  0  0
    2.9299   -0.6261    0.0436 H   0  0  0  0  0  0  0  0  0  0  0  0
    1.7164   -1.2378    1.1764 H   0  0  0  0  0  0  0  0  0  0  0  0
    4.9871   -6.0986   -2.0698 H   0  0  0  0  0  0  0  0  0  0  0  0
    7.6483  -10.2152   -4.1125 H   0  0  0  0  0  0  0  0  0  0  0  0
    3.4110  -10.0814   -6.7315 H   0  0  0  0  0  0  0  0  0  0  0  0
  1  2  2  0  0  0  0
  2  3  1  0  0  0  0
  3  4  2  0  0  0  0
  3  5  1  0  0  0  0
  5  6  2  0  0  0  0
  6  7  1  0  0  0  0
  7  8  1  0  0  0  0
  6  9  1  0  0  0  0
  9 10  2  0  0  0  0
 10 11  1  0  0  0  0
 11 12  2  0  0  0  0
 12 13  1  0  0  0  0
 13 14  2  0  0  0  0
 14 15  1  0  0  0  0
 15 16  3  0  0  0  0
 14 17  1  0  0  0  0
 17 18  3  0  0  0  0
  1 19  1  0  0  0  0
 19 20  2  0  0  0  0
 20 21  1  0  0  0  0
 21 22  1  0  0  0  0
 20 23  1  0  0  0  0
 23 24  1  0  0  0  0
 24 25  1  0  0  0  0
 25 26  1  0  0  0  0
 26 27  1  0  0  0  0
 27 28  1  0  0  0  0
 28 29  2  0  0  0  0
 29 30  1  0  0  0  0
 30 31  1  0  0  0  0
 28 32  1  0  0  0  0
 32 33  1  0  0  0  0
 33 34  1  0  0  0  0
 34 35  1  0  0  0  0
 35 36  1  0  0  0  0
 36 37  1  0  0  0  0
 37 38  1  0  0  0  0
 36 39  2  0  0  0  0
 39 40  1  0  0  0  0
 40 41  1  0  0  0  0
 41 42  1  0  0  0  0
 42 43  1  0  0  0  0
 43 44  1  0  0  0  0
 44 45  1  0  0  0  0
 45 46  1  0  0  0  0
 46 47  1  0  0  0  0
 47 48  1  0  0  0  0
 48 49  1  0  0  0  0
 46 50  1  0  0  0  0
 50 51  1  0  0  0  0
 43 52  1  0  0  0  0
 52 53  1  0  0  0  0
 39 54  1  0  0  0  0
 54 55  2  0  0  0  0
 55 56  1  0  0  0  0
 56 57  2  0  0  0  0
 56 58  1  0  0  0  0
 58 59  2  0  0  0  0
 59 60  1  0  0  0  0
 60 61  1  0  0  0  0
 60 62  2  0  0  0  0
 62 63  1  0  0  0  0
 62 64  1  0  0  0  0
 64 65  2  0  0  0  0
 65 66  1  0  0  0  0
 66 67  2  0  0  0  0
 67 68  1  0  0  0  0
 68 69  3  0  0  0  0
 67 70  1  0  0  0  0
 70 71  3  0  0  0  0
 13  2  1  0  0  0  0
 49 19  1  0  0  0  0
 66 55  1  0  0  0  0
 12  5  1  0  0  0  0
 48 23  2  0  0  0  0
 65 58  1  0  0  0  0
 47 25  2  0  0  0  0
 45 26  2  0  0  0  0
 31 27  2  0  0  0  0
 44 32  2  0  0  0  0
 42 33  2  0  0  0  0
 41 35  2  0  0  0  0
  1 72  1  0  0  0  0
  8 73  1  0  0  0  0
  8 74  1  0  0  0  0
  8 75  1  0  0  0  0
  9 76  1  0  0  0  0
 10 77  1  0  0  0  0
 11 78  1  0  0  0  0
 21 79  1  0  0  0  0
 21 80  1  0  0  0  0
 22 81  1  0  0  0  0
 22 82  1  0  0  0  0
 22 83  1  0  0  0  0
 37 84  1  0  0  0  0
 37 85  1  0  0  0  0
 38 86  1  0  0  0  0
 38 87  1  0  0  0  0
 38 88  1  0  0  0  0
 50 89  1  0  0  0  0
 50 90  1  0  0  0  0
 51 91  1  0  0  0  0
 51 92  1  0  0  0  0
 51 93  1  0  0  0  0
 52 94  1  0  0  0  0
 52 95  1  0  0  0  0
 53 96  1  0  0  0  0
 53 97  1  0  0  0  0
 53 98  1  0  0  0  0
 54 99  1  0  0  0  0
 59100  1  0  0  0  0
 64101  1  0  0  0  0
M  END
