
  xtb     02012216513D
 energy: -259.417011022210 gnorm: 0.000518184468 xtb: 6.4.1 (unknown)
156171  0     0  0            999 V2000
    1.6111    3.8876   -7.3494 C   0  0  0  0  0  0  0  0  0  0  0  0
    0.7908    4.2385   -8.3905 C   0  0  0  0  0  0  0  0  0  0  0  0
   -0.6540    3.9496   -8.5819 C   0  0  0  0  0  0  0  0  0  0  0  0
   -1.3618    3.1804   -7.9643 O   0  0  0  0  0  0  0  0  0  0  0  0
   -1.0800    4.8004   -9.7043 C   0  0  0  0  0  0  0  0  0  0  0  0
   -2.3653    4.9563  -10.2321 C   0  0  0  0  0  0  0  0  0  0  0  0
   -3.3591    4.2473   -9.6720 O   0  0  0  0  0  0  0  0  0  0  0  0
   -4.6675    4.3792  -10.1743 C   0  0  0  0  0  0  0  0  0  0  0  0
   -2.5110    5.8456  -11.3031 C   0  0  0  0  0  0  0  0  0  0  0  0
   -1.4206    6.5333  -11.8053 C   0  0  0  0  0  0  0  0  0  0  0  0
   -0.1436    6.3744  -11.2843 C   0  0  0  0  0  0  0  0  0  0  0  0
    0.0208    5.4965  -10.2263 C   0  0  0  0  0  0  0  0  0  0  0  0
    1.2123    5.1098   -9.4719 C   0  0  0  0  0  0  0  0  0  0  0  0
    2.4944    5.4686   -9.7990 C   0  0  0  0  0  0  0  0  0  0  0  0
    3.6720    5.0292   -9.1566 C   0  0  0  0  0  0  0  0  0  0  0  0
    4.6848    4.7114   -8.7173 N   0  0  0  0  0  0  0  0  0  0  0  0
    2.8332    6.3111  -10.8789 C   0  0  0  0  0  0  0  0  0  0  0  0
    3.1909    6.9899  -11.7333 N   0  0  0  0  0  0  0  0  0  0  0  0
    1.3842    3.0867   -6.2169 C   0  0  0  0  0  0  0  0  0  0  0  0
    2.6867    3.0514   -5.0068 S   0  0  0  0  0  0  0  0  0  0  0  0
    1.7537    2.0124   -4.0084 C   0  0  0  0  0  0  0  0  0  0  0  0
    1.7660    1.3629   -2.7756 C   0  0  0  0  0  0  0  0  0  0  0  0
    2.7679    1.2196   -1.3683 S   0  0  0  0  0  0  0  0  0  0  0  0
    1.5186    0.2797   -0.6194 C   0  0  0  0  0  0  0  0  0  0  0  0
    1.3221   -0.2392    0.6961 C   0  0  0  0  0  0  0  0  0  0  0  0
    2.1451   -0.2082    1.8187 C   0  0  0  0  0  0  0  0  0  0  0  0
    1.6282   -0.7116    2.9888 C   0  0  0  0  0  0  0  0  0  0  0  0
    2.2894   -0.7627    4.3533 C   0  0  0  0  0  0  0  0  0  0  0  0
    2.7865    0.6174    4.7419 C   0  0  0  0  0  0  0  0  0  0  0  0
    4.1203    0.9769    4.6069 C   0  0  0  0  0  0  0  0  0  0  0  0
    4.5486    2.2311    5.0028 C   0  0  0  0  0  0  0  0  0  0  0  0
    3.6600    3.1574    5.5323 C   0  0  0  0  0  0  0  0  0  0  0  0
    4.1398    4.4786    6.0566 C   0  0  0  0  0  0  0  0  0  0  0  0
    4.4774    4.3583    7.5447 C   0  0  0  0  0  0  0  0  0  0  0  0
    2.3181    2.8090    5.6164 C   0  0  0  0  0  0  0  0  0  0  0  0
    1.8837    1.5608    5.2155 C   0  0  0  0  0  0  0  0  0  0  0  0
    3.3747   -1.8224    4.4540 C   0  0  0  0  0  0  0  0  0  0  0  0
    3.6081   -2.7392    3.4397 C   0  0  0  0  0  0  0  0  0  0  0  0
    4.5834   -3.7101    3.5843 C   0  0  0  0  0  0  0  0  0  0  0  0
    5.3435   -3.7962    4.7419 C   0  0  0  0  0  0  0  0  0  0  0  0
    6.3739   -4.8755    4.9070 C   0  0  0  0  0  0  0  0  0  0  0  0
    5.7392   -6.1358    5.4987 C   0  0  0  0  0  0  0  0  0  0  0  0
    5.0939   -2.8865    5.7621 C   0  0  0  0  0  0  0  0  0  0  0  0
    4.1224   -1.9150    5.6227 C   0  0  0  0  0  0  0  0  0  0  0  0
    1.1358   -1.2286    5.2068 C   0  0  0  0  0  0  0  0  0  0  0  0
    0.0375   -1.5381    4.4051 C   0  0  0  0  0  0  0  0  0  0  0  0
    0.3061   -1.2154    3.0420 C   0  0  0  0  0  0  0  0  0  0  0  0
   -0.5060   -1.2721    1.9103 C   0  0  0  0  0  0  0  0  0  0  0  0
    0.0165   -0.7863    0.7369 C   0  0  0  0  0  0  0  0  0  0  0  0
   -0.6448   -0.7116   -0.6351 C   0  0  0  0  0  0  0  0  0  0  0  0
   -1.9163    0.1192   -0.6257 C   0  0  0  0  0  0  0  0  0  0  0  0
   -3.0548   -0.2440   -1.3284 C   0  0  0  0  0  0  0  0  0  0  0  0
   -4.1493    0.6003   -1.3762 C   0  0  0  0  0  0  0  0  0  0  0  0
   -4.1364    1.8271   -0.7294 C   0  0  0  0  0  0  0  0  0  0  0  0
   -5.2933    2.7746   -0.8563 C   0  0  0  0  0  0  0  0  0  0  0  0
   -5.0641    3.7289   -2.0302 C   0  0  0  0  0  0  0  0  0  0  0  0
   -2.9996    2.1811   -0.0132 C   0  0  0  0  0  0  0  0  0  0  0  0
   -1.9044    1.3415    0.0379 C   0  0  0  0  0  0  0  0  0  0  0  0
   -0.8249   -2.1350   -1.1277 C   0  0  0  0  0  0  0  0  0  0  0  0
    0.0460   -2.6916   -2.0549 C   0  0  0  0  0  0  0  0  0  0  0  0
   -0.1099   -4.0010   -2.4737 C   0  0  0  0  0  0  0  0  0  0  0  0
   -1.1322   -4.7944   -1.9728 C   0  0  0  0  0  0  0  0  0  0  0  0
   -1.3346   -6.1957   -2.4714 C   0  0  0  0  0  0  0  0  0  0  0  0
   -2.2627   -6.1992   -3.6881 C   0  0  0  0  0  0  0  0  0  0  0  0
   -1.9909   -4.2410   -1.0316 C   0  0  0  0  0  0  0  0  0  0  0  0
   -1.8375   -2.9345   -0.6093 C   0  0  0  0  0  0  0  0  0  0  0  0
    0.4019    0.0529   -1.4090 C   0  0  0  0  0  0  0  0  0  0  0  0
    0.5299    0.6734   -2.6523 C   0  0  0  0  0  0  0  0  0  0  0  0
   -0.2179    0.8734   -3.7873 N   0  0  0  0  0  0  0  0  0  0  0  0
    0.5092    1.7051   -4.6110 C   0  0  0  0  0  0  0  0  0  0  0  0
    0.3056    2.2984   -5.8455 C   0  0  0  0  0  0  0  0  0  0  0  0
   -1.4974    0.4257   -4.0936 C   0  0  0  0  0  0  0  0  0  0  0  0
   -1.9421   -0.8524   -4.2294 C   0  0  0  0  0  0  0  0  0  0  0  0
   -3.2957   -0.9075   -4.6283 C   0  0  0  0  0  0  0  0  0  0  0  0
   -3.8657    0.3153   -4.7981 C   0  0  0  0  0  0  0  0  0  0  0  0
   -5.2331    0.6443   -5.2896 C   0  0  0  0  0  0  0  0  0  0  0  0
   -5.1883    1.1208   -6.7437 C   0  0  0  0  0  0  0  0  0  0  0  0
   -2.7431    1.5876   -4.4502 S   0  0  0  0  0  0  0  0  0  0  0  0
   -1.2902   -2.1172    5.3099 S   0  0  0  0  0  0  0  0  0  0  0  0
   -0.3991   -1.8683    6.8039 C   0  0  0  0  0  0  0  0  0  0  0  0
    0.8913   -1.4035    6.5543 C   0  0  0  0  0  0  0  0  0  0  0  0
   -0.9977   -2.1665    8.0412 C   0  0  0  0  0  0  0  0  0  0  0  0
   -0.6288   -1.6961    9.2734 C   0  0  0  0  0  0  0  0  0  0  0  0
   -1.0024   -2.4376   10.4993 C   0  0  0  0  0  0  0  0  0  0  0  0
   -1.7920   -3.3483   10.5890 O   0  0  0  0  0  0  0  0  0  0  0  0
   -0.1571   -1.8531   11.5716 C   0  0  0  0  0  0  0  0  0  0  0  0
    0.5799   -0.7716   11.0515 C   0  0  0  0  0  0  0  0  0  0  0  0
    1.4629   -0.0722   11.8563 C   0  0  0  0  0  0  0  0  0  0  0  0
    1.5998   -0.4618   13.1806 C   0  0  0  0  0  0  0  0  0  0  0  0
    0.8646   -1.5185   13.6955 C   0  0  0  0  0  0  0  0  0  0  0  0
    1.0854   -1.9896   15.5121 Br  0  0  0  0  0  0  0  0  0  0  0  0
   -0.0325   -2.2380   12.8965 C   0  0  0  0  0  0  0  0  0  0  0  0
   -0.9426   -3.5400   13.5337 Cl  0  0  0  0  0  0  0  0  0  0  0  0
    0.1884   -0.5724    9.6581 C   0  0  0  0  0  0  0  0  0  0  0  0
    0.3375    0.5981    8.9552 C   0  0  0  0  0  0  0  0  0  0  0  0
    1.1347    1.6845    9.3597 C   0  0  0  0  0  0  0  0  0  0  0  0
    1.8038    2.5826    9.6142 N   0  0  0  0  0  0  0  0  0  0  0  0
   -0.3754    0.8639    7.7702 C   0  0  0  0  0  0  0  0  0  0  0  0
   -0.9896    1.1473    6.8424 N   0  0  0  0  0  0  0  0  0  0  0  0
    2.6033    4.3242   -7.3625 H   0  0  0  0  0  0  0  0  0  0  0  0
   -4.7279    4.0781  -11.2249 H   0  0  0  0  0  0  0  0  0  0  0  0
   -5.0384    5.4033  -10.0654 H   0  0  0  0  0  0  0  0  0  0  0  0
   -5.2782    3.7084   -9.5723 H   0  0  0  0  0  0  0  0  0  0  0  0
   -3.4795    6.0072  -11.7494 H   0  0  0  0  0  0  0  0  0  0  0  0
   -1.5696    7.2152  -12.6290 H   0  0  0  0  0  0  0  0  0  0  0  0
    0.6800    6.9298  -11.6986 H   0  0  0  0  0  0  0  0  0  0  0  0
    3.1385    0.2107    1.7691 H   0  0  0  0  0  0  0  0  0  0  0  0
    4.8328    0.2707    4.2053 H   0  0  0  0  0  0  0  0  0  0  0  0
    5.5933    2.4900    4.9044 H   0  0  0  0  0  0  0  0  0  0  0  0
    3.3624    5.2335    5.9244 H   0  0  0  0  0  0  0  0  0  0  0  0
    5.0276    4.7992    5.5073 H   0  0  0  0  0  0  0  0  0  0  0  0
    3.6061    4.0292    8.1065 H   0  0  0  0  0  0  0  0  0  0  0  0
    5.2738    3.6321    7.6931 H   0  0  0  0  0  0  0  0  0  0  0  0
    4.8047    5.3176    7.9384 H   0  0  0  0  0  0  0  0  0  0  0  0
    1.6030    3.5191    6.0057 H   0  0  0  0  0  0  0  0  0  0  0  0
    0.8339    1.3166    5.2821 H   0  0  0  0  0  0  0  0  0  0  0  0
    3.0318   -2.6974    2.5273 H   0  0  0  0  0  0  0  0  0  0  0  0
    4.7569   -4.4101    2.7795 H   0  0  0  0  0  0  0  0  0  0  0  0
    7.1704   -4.5293    5.5686 H   0  0  0  0  0  0  0  0  0  0  0  0
    6.8149   -5.1166    3.9377 H   0  0  0  0  0  0  0  0  0  0  0  0
    6.4847   -6.9191    5.6134 H   0  0  0  0  0  0  0  0  0  0  0  0
    5.3082   -5.9206    6.4739 H   0  0  0  0  0  0  0  0  0  0  0  0
    4.9475   -6.5014    4.8486 H   0  0  0  0  0  0  0  0  0  0  0  0
    5.6706   -2.9369    6.6747 H   0  0  0  0  0  0  0  0  0  0  0  0
    3.9534   -1.2076    6.4216 H   0  0  0  0  0  0  0  0  0  0  0  0
   -1.5109   -1.6566    1.9801 H   0  0  0  0  0  0  0  0  0  0  0  0
   -3.0935   -1.1843   -1.8554 H   0  0  0  0  0  0  0  0  0  0  0  0
   -5.0235    0.2983   -1.9355 H   0  0  0  0  0  0  0  0  0  0  0  0
   -5.4039    3.3539    0.0624 H   0  0  0  0  0  0  0  0  0  0  0  0
   -6.2157    2.2137   -1.0207 H   0  0  0  0  0  0  0  0  0  0  0  0
   -4.1670    4.3213   -1.8665 H   0  0  0  0  0  0  0  0  0  0  0  0
   -5.9100    4.4025   -2.1458 H   0  0  0  0  0  0  0  0  0  0  0  0
   -4.9327    3.1695   -2.9541 H   0  0  0  0  0  0  0  0  0  0  0  0
   -2.9690    3.1279    0.5063 H   0  0  0  0  0  0  0  0  0  0  0  0
   -1.0265    1.6388    0.5941 H   0  0  0  0  0  0  0  0  0  0  0  0
    0.8568   -2.1021   -2.4582 H   0  0  0  0  0  0  0  0  0  0  0  0
    0.5770   -4.4109   -3.2007 H   0  0  0  0  0  0  0  0  0  0  0  0
   -1.7730   -6.8099   -1.6826 H   0  0  0  0  0  0  0  0  0  0  0  0
   -0.3736   -6.6320   -2.7510 H   0  0  0  0  0  0  0  0  0  0  0  0
   -3.2314   -5.7790   -3.4260 H   0  0  0  0  0  0  0  0  0  0  0  0
   -2.4109   -7.2135   -4.0506 H   0  0  0  0  0  0  0  0  0  0  0  0
   -1.8364   -5.6024   -4.4916 H   0  0  0  0  0  0  0  0  0  0  0  0
   -2.7895   -4.8421   -0.6206 H   0  0  0  0  0  0  0  0  0  0  0  0
   -2.5213   -2.5301    0.1216 H   0  0  0  0  0  0  0  0  0  0  0  0
   -0.5724    2.1947   -6.4553 H   0  0  0  0  0  0  0  0  0  0  0  0
   -1.3282   -1.7176   -4.0554 H   0  0  0  0  0  0  0  0  0  0  0  0
   -3.8220   -1.8310   -4.7927 H   0  0  0  0  0  0  0  0  0  0  0  0
   -5.6711    1.4300   -4.6690 H   0  0  0  0  0  0  0  0  0  0  0  0
   -5.8620   -0.2453   -5.2113 H   0  0  0  0  0  0  0  0  0  0  0  0
   -4.7927    0.3365   -7.3848 H   0  0  0  0  0  0  0  0  0  0  0  0
   -6.1877    1.3797   -7.0852 H   0  0  0  0  0  0  0  0  0  0  0  0
   -4.5462    1.9938   -6.8367 H   0  0  0  0  0  0  0  0  0  0  0  0
    1.6089   -1.2380    7.3376 H   0  0  0  0  0  0  0  0  0  0  0  0
   -1.7973   -2.8998    8.0390 H   0  0  0  0  0  0  0  0  0  0  0  0
    2.0440    0.7519   11.4756 H   0  0  0  0  0  0  0  0  0  0  0  0
    2.2853    0.0635   13.8276 H   0  0  0  0  0  0  0  0  0  0  0  0
  1  2  2  0  0  0  0
  2  3  1  0  0  0  0
  3  4  2  0  0  0  0
  3  5  1  0  0  0  0
  5  6  2  0  0  0  0
  6  7  1  0  0  0  0
  7  8  1  0  0  0  0
  6  9  1  0  0  0  0
  9 10  2  0  0  0  0
 10 11  1  0  0  0  0
 11 12  2  0  0  0  0
 12 13  1  0  0  0  0
 13 14  2  0  0  0  0
 14 15  1  0  0  0  0
 15 16  3  0  0  0  0
 14 17  1  0  0  0  0
 17 18  3  0  0  0  0
  1 19  1  0  0  0  0
 19 20  1  0  0  0  0
 20 21  1  0  0  0  0
 21 22  1  0  0  0  0
 22 23  1  0  0  0  0
 23 24  1  0  0  0  0
 24 25  1  0  0  0  0
 25 26  2  0  0  0  0
 26 27  1  0  0  0  0
 27 28  1  0  0  0  0
 28 29  1  0  0  0  0
 29 30  2  0  0  0  0
 30 31  1  0  0  0  0
 31 32  2  0  0  0  0
 32 33  1  0  0  0  0
 33 34  1  0  0  0  0
 32 35  1  0  0  0  0
 35 36  2  0  0  0  0
 28 37  1  0  0  0  0
 37 38  2  0  0  0  0
 38 39  1  0  0  0  0
 39 40  2  0  0  0  0
 40 41  1  0  0  0  0
 41 42  1  0  0  0  0
 40 43  1  0  0  0  0
 43 44  2  0  0  0  0
 28 45  1  0  0  0  0
 45 46  2  0  0  0  0
 46 47  1  0  0  0  0
 47 48  1  0  0  0  0
 48 49  2  0  0  0  0
 49 50  1  0  0  0  0
 50 51  1  0  0  0  0
 51 52  2  0  0  0  0
 52 53  1  0  0  0  0
 53 54  2  0  0  0  0
 54 55  1  0  0  0  0
 55 56  1  0  0  0  0
 54 57  1  0  0  0  0
 57 58  2  0  0  0  0
 50 59  1  0  0  0  0
 59 60  2  0  0  0  0
 60 61  1  0  0  0  0
 61 62  2  0  0  0  0
 62 63  1  0  0  0  0
 63 64  1  0  0  0  0
 62 65  1  0  0  0  0
 65 66  2  0  0  0  0
 50 67  1  0  0  0  0
 67 68  1  0  0  0  0
 68 69  1  0  0  0  0
 69 70  1  0  0  0  0
 70 71  1  0  0  0  0
 69 72  1  0  0  0  0
 72 73  2  0  0  0  0
 73 74  1  0  0  0  0
 74 75  2  0  0  0  0
 75 76  1  0  0  0  0
 76 77  1  0  0  0  0
 75 78  1  0  0  0  0
 46 79  1  0  0  0  0
 79 80  1  0  0  0  0
 80 81  2  0  0  0  0
 80 82  1  0  0  0  0
 82 83  2  0  0  0  0
 83 84  1  0  0  0  0
 84 85  2  0  0  0  0
 84 86  1  0  0  0  0
 86 87  2  0  0  0  0
 87 88  1  0  0  0  0
 88 89  2  0  0  0  0
 89 90  1  0  0  0  0
 90 91  1  0  0  0  0
 90 92  2  0  0  0  0
 92 93  1  0  0  0  0
 87 94  1  0  0  0  0
 94 95  2  0  0  0  0
 95 96  1  0  0  0  0
 96 97  3  0  0  0  0
 95 98  1  0  0  0  0
 98 99  3  0  0  0  0
 13  2  1  0  0  0  0
 71 19  2  0  0  0  0
 78 72  1  0  0  0  0
 94 83  1  0  0  0  0
 12  5  1  0  0  0  0
 70 21  2  0  0  0  0
 92 86  1  0  0  0  0
 68 22  2  0  0  0  0
 67 24  2  0  0  0  0
 49 25  1  0  0  0  0
 58 51  1  0  0  0  0
 66 59  1  0  0  0  0
 47 27  2  0  0  0  0
 36 29  1  0  0  0  0
 44 37  1  0  0  0  0
 81 45  1  0  0  0  0
  1100  1  0  0  0  0
  8101  1  0  0  0  0
  8102  1  0  0  0  0
  8103  1  0  0  0  0
  9104  1  0  0  0  0
 10105  1  0  0  0  0
 11106  1  0  0  0  0
 26107  1  0  0  0  0
 30108  1  0  0  0  0
 31109  1  0  0  0  0
 33110  1  0  0  0  0
 33111  1  0  0  0  0
 34112  1  0  0  0  0
 34113  1  0  0  0  0
 34114  1  0  0  0  0
 35115  1  0  0  0  0
 36116  1  0  0  0  0
 38117  1  0  0  0  0
 39118  1  0  0  0  0
 41119  1  0  0  0  0
 41120  1  0  0  0  0
 42121  1  0  0  0  0
 42122  1  0  0  0  0
 42123  1  0  0  0  0
 43124  1  0  0  0  0
 44125  1  0  0  0  0
 48126  1  0  0  0  0
 52127  1  0  0  0  0
 53128  1  0  0  0  0
 55129  1  0  0  0  0
 55130  1  0  0  0  0
 56131  1  0  0  0  0
 56132  1  0  0  0  0
 56133  1  0  0  0  0
 57134  1  0  0  0  0
 58135  1  0  0  0  0
 60136  1  0  0  0  0
 61137  1  0  0  0  0
 63138  1  0  0  0  0
 63139  1  0  0  0  0
 64140  1  0  0  0  0
 64141  1  0  0  0  0
 64142  1  0  0  0  0
 65143  1  0  0  0  0
 66144  1  0  0  0  0
 71145  1  0  0  0  0
 73146  1  0  0  0  0
 74147  1  0  0  0  0
 76148  1  0  0  0  0
 76149  1  0  0  0  0
 77150  1  0  0  0  0
 77151  1  0  0  0  0
 77152  1  0  0  0  0
 81153  1  0  0  0  0
 82154  1  0  0  0  0
 88155  1  0  0  0  0
 89156  1  0  0  0  0
M  END
