112

C         -1.40950        2.51170        6.44180
C         -2.43250        1.91180        7.12870
C         -3.37580        0.92570        6.58640
O         -3.43440        0.50030        5.44710
C         -4.25450        0.53710        7.70290
C         -5.29270       -0.38960        7.66470
C         -5.92340       -0.57100        8.87170
C         -5.54930        0.12070       10.03130
C         -4.53390        1.04640       10.07850
C         -3.87690        1.24570        8.86090
C         -2.75800        2.12610        8.52500
C         -2.14790        2.99440        9.39520
C         -1.07580        3.85780        9.08960
N         -0.20940        4.59730        8.93430
C         -2.51270        3.16110       10.74740
N         -2.74540        3.35520       11.85510
C         -6.58790       -0.57420       10.87600
C         -6.11060       -1.71450       11.80950
C         -4.86200       -2.28710       11.18590
C         -5.22000       -2.93870       10.08760
C         -6.71740       -2.81790        9.94860
C         -7.12660       -2.80380       11.42990
C         -7.00750       -1.34120        9.58250
C         -0.97900        2.35470        5.11540
S         -1.69030        1.29350        3.89910
C         -0.49120        1.79140        2.78020
C         -0.10070        1.56420        1.45490
C         -0.68530        0.80220        0.42470
N         -1.78550        0.04900        0.36860
N         -1.83600       -0.34600       -0.87840
C         -2.87350       -1.21720       -1.34920
C         -2.36080       -2.65010       -1.45630
N         -0.87310        0.06480       -1.66480
C         -0.10310        0.81050       -0.87020
C          1.11100        1.49300       -1.08100
C          1.96050        1.55650       -2.19220
S          2.05390        0.99010       -3.80790
C          3.64660        1.73200       -3.96350
C          4.04860        2.38720       -2.79410
C          3.09790        2.28310       -1.79410
N          2.96140        2.69350       -0.49040
C          4.13010        3.10020        0.25760
C          4.54260        2.04660        1.28300
C          1.73890        2.21970       -0.02440
C          1.07260        2.34190        1.21910
N          1.35460        3.06560        2.37510
C          0.41040        2.72960        3.31540
C          0.13300        3.05350        4.63180
C          2.10030        4.29690        2.52200
C          1.67260        5.34500        1.49760
C          4.48040        1.69510       -5.09140
C          4.32190        1.07820       -6.30490
C          3.17110        0.26430       -6.71760
O          2.15190        0.04410       -6.08890
C          3.49020       -0.24900       -8.06170
C          2.70200       -1.08800       -8.84590
C          3.26630       -1.41460      -10.05560
C          4.52090       -0.93770      -10.45730
C          5.30540       -0.10440       -9.69580
C          4.75190        0.23770       -8.45790
C          5.28380        1.08230       -7.38890
C          6.48030        1.75330       -7.43490
C          7.37840        1.71630       -8.52170
N          8.16270        1.73930       -9.36040
C          7.00440        2.58310       -6.42270
N          7.50780        3.27750       -5.65730
C          4.46960       -1.67420      -11.77270
C          5.30930       -2.96530      -11.87230
C          4.70270       -3.70140      -13.04490
C          3.51350       -4.15220      -12.66670
C          3.29660       -3.72910      -11.23170
C          4.73980       -3.79710      -10.71580
C          3.06980       -2.20520      -11.32560
H         -0.80580        3.21960        6.99690
H         -5.54430       -0.90120        6.74890
H         -4.26280        1.57110       10.97910
H         -7.32620        0.06860       11.35120
H         -6.03980       -1.43880       12.85820
H         -3.87120       -2.11610       11.56430
H         -4.58800       -3.42040        9.36460
H         -7.20000       -3.54660        9.30250
H         -8.16200       -2.50680       11.59130
H         -6.93370       -3.75220       11.92910
H         -8.01990       -1.19640        9.21030
H         -3.69440       -1.14940       -0.63350
H         -3.19630       -0.85880       -2.32930
H         -3.14900       -3.29810       -1.82880
H         -2.04210       -3.01000       -0.48100
H         -1.51730       -2.69020       -2.14090
H          4.99390        2.89640       -2.72920
H          4.93450        3.22480       -0.46970
H          3.96970        4.07240        0.72520
H          3.74550        1.85730        1.99750
H          4.77530        1.11110        0.77920
H          5.42610        2.37900        1.82180
H          0.68360        3.73800        5.25250
H          1.88360        4.67050        3.52460
H          3.17420        4.10820        2.47750
H          1.82250        4.98970        0.48120
H          0.61720        5.57600        1.62300
H          2.24620        6.25730        1.63910
H          5.40690        2.23700       -4.94460
H          1.73960       -1.42820       -8.49700
H          6.26650        0.25450      -10.02320
H          4.53190       -1.05600      -12.66620
H          6.38420       -2.80830      -11.89530
H          5.16160       -3.76780      -14.01380
H          2.78040       -4.67030      -13.25680
H          2.53790       -4.26930      -10.67160
H          5.12750       -4.81450      -10.71090
H          4.88180       -3.34880       -9.73430
H          2.19790       -1.94030      -11.92080
