111

C          5.78210        4.97810        2.08650
C          6.52720        4.01890        2.72820
C          6.11720        2.63740        2.94520
O          5.10130        2.09310        2.52400
C          7.15390        2.00940        3.77350
C          7.16470        0.70750        4.26880
C          8.26580        0.41140        5.03590
C          9.28000        1.34290        5.29410
C          9.28090        2.63080        4.81070
C          8.17250        2.95290        4.02400
C          7.82320        4.20570        3.35260
C          8.60900        5.32780        3.31120
C          8.29400        6.52890        2.64100
N          8.12190        7.53780        2.11890
C          9.87540        5.44000        3.92320
N         10.91030        5.60680        4.39160
C         10.06970        0.37000        6.13310
C         11.31630       -0.29010        5.49400
C         11.07730       -0.30460        4.00450
C         10.11810       -1.18650        3.75700
C          9.69100       -1.78450        5.07470
C         11.03030       -1.76280        5.82870
C          8.94060       -0.66870        5.84330
C          4.51940        4.89840        1.48300
C          3.91920        6.03010        0.92500
C          2.67000        5.82150        0.37180
S          1.57140        6.93670       -0.42260
C          0.46660        5.62930       -0.66150
C         -0.77290        5.37930       -1.26480
C         -1.61430        6.21960       -2.02680
C         -2.77660        5.65620       -2.64780
N         -3.44030        6.54000       -3.37630
S         -2.67180        7.96130       -3.28240
N         -1.46070        7.50300       -2.31220
C         -3.10110        4.30670       -2.38700
C         -4.21640        3.54420       -2.75970
C         -4.09450        2.30330       -2.12240
N         -2.94340        2.27160       -1.37990
C         -2.79740        1.25380       -0.36460
C         -2.26680       -0.06080       -0.93450
C         -2.29740        3.48480       -1.54280
C         -1.06180        3.99520       -1.06680
N         -0.00310        3.42540       -0.37880
C          0.92240        4.41090       -0.14660
C          2.18690        4.49820        0.44140
Se         3.40470        3.37110        1.29680
C          0.45430        2.05530       -0.32460
C          1.09660        1.64230       -1.64700
C         -5.18770        1.46780       -2.36620
C         -6.13500        2.09660       -3.19500
S         -5.66920        3.71340       -3.67690
C         -7.26240        1.34500       -3.50810
C         -7.30570        0.08730       -2.92800
Se        -5.74390       -0.24660       -1.90300
C         -8.29680       -0.87580       -3.21320
C         -8.48830       -2.12210       -2.69720
C         -9.21970       -3.14000       -3.49790
O         -9.94230       -2.93530       -4.44690
C         -8.81530       -4.44170       -2.92840
C         -9.11610       -5.70950       -3.42210
C         -8.56810       -6.73860       -2.69410
C         -7.77010       -6.52860       -1.56100
C         -7.46810       -5.28510       -1.05870
C         -8.02410       -4.22580       -1.78020
C         -7.96170       -2.78840       -1.52900
C         -7.73320       -2.20360       -0.30710
C         -7.30160       -2.90190        0.83670
N         -6.92510       -3.42020        1.78980
C         -8.03150       -0.84910       -0.04920
N         -8.30930        0.23720        0.20010
C         -7.55790       -8.00510       -1.33800
C         -8.38330       -8.65540       -0.20750
C         -8.34120      -10.13120       -0.53240
C         -9.09970      -10.33060       -1.60270
C         -9.66750       -8.99280       -2.01930
C         -9.81780       -8.33030       -0.64380
C         -8.45110       -8.23960       -2.59840
H          6.20830        5.97410        2.04280
H          6.35880        0.02440        4.05060
H         10.06720        3.33490        5.02540
H         10.23970        0.66300        7.16720
H         12.26510        0.12400        5.82390
H         11.57520        0.34860        3.31220
H          9.65380       -1.41720        2.81610
H          9.16090       -2.73190        5.02290
H         10.93030       -1.95370        6.89640
H         11.76560       -2.44240        5.40080
H          8.37490       -1.05590        6.68860
H          4.40640        6.99070        0.93350
H         -2.17270        1.64090        0.44160
H         -3.79440        1.06890        0.05880
H         -1.35160        0.08650       -1.50130
H         -2.07780       -0.76300       -0.12720
H         -3.00750       -0.50050       -1.60270
H          1.20140        2.00260        0.47750
H         -0.35360        1.37870       -0.07080
H          0.38200        1.73140       -2.46330
H          1.44120        0.61380       -1.58660
H          1.95050        2.27990       -1.86550
H         -8.05650        1.71130       -4.13560
H         -8.93940       -0.63190       -4.05500
H         -9.72870       -5.83140       -4.30150
H         -6.84410       -5.12910       -0.19370
H         -6.52440       -8.34570       -1.36100
H         -8.08680       -8.36550        0.79670
H         -7.74010      -10.84570       -0.00120
H         -9.25880      -11.24460       -2.14420
H        -10.54110       -9.01190       -2.66520
H        -10.55950       -8.83190       -0.02470
H        -10.03870       -7.26540       -0.68500
H         -8.01390       -8.73760       -3.46200
