129

C         -2.79240       -7.17440       -0.41150
C         -1.92300       -8.18560       -0.11270
C         -0.44390       -8.14260       -0.01840
O          0.29590       -7.18160        0.05610
C          0.00290       -9.54830       -0.07750
C          1.32160       -9.99600       -0.10240
C          1.44660      -11.36190       -0.17340
C          0.34080      -12.22180       -0.21600
C         -0.96460      -11.79300       -0.18600
C         -1.11330      -10.40450       -0.11510
C         -2.31950       -9.58500       -0.06850
C         -3.59640      -10.06250        0.07730
C         -3.93510      -11.43040        0.12990
N         -4.28930      -12.52220        0.17150
C         -4.75480       -9.27350        0.24270
N         -5.74940       -8.72250        0.40830
C          1.20390      -13.45600       -0.30120
C          1.35270      -14.13860       -1.68330
C          1.13630      -13.06260       -2.71820
C          2.18130      -12.24690       -2.67880
C          3.12380      -12.75720       -1.61690
C          2.88300      -14.26980       -1.74540
C          2.43540      -12.49770       -0.25390
C         -2.61020       -5.76010       -0.47880
C         -3.54740       -5.02060       -1.24470
C         -3.44980       -3.66540       -1.40930
C         -2.40420       -2.97540       -0.78280
C         -1.95460       -1.64270       -0.70700
C         -0.81340       -1.62150        0.10380
N         -0.52830       -2.87260        0.55640
C         -1.48170       -3.71490        0.03400
C         -1.58820       -5.07950        0.19100
C          0.52760       -3.23810        1.46480
C          0.01470       -3.34000        2.90040
C         -0.32800       -0.30740        0.10000
C          0.84090        0.25230        0.65010
C          1.15390        1.60980        0.39350
N          2.32450        1.87550        0.98020
N          2.66320        0.74100        1.54760
C          3.89780        0.58980        2.26000
C          4.99200        0.05490        1.34010
N          1.83080       -0.26130        1.38560
C          0.25250        2.40280       -0.34210
C         -0.96930        1.86380       -0.86230
C         -1.22430        0.46900       -0.70420
N         -2.20060       -0.38460       -1.19710
C         -3.26500       -0.22150       -2.15480
C         -4.63240       -0.15760       -1.47130
N         -1.67510        2.90260       -1.45160
C         -3.01150        3.01330       -1.98100
C         -3.00800        3.08220       -3.50970
C         -0.92310        4.04510       -1.34050
C          0.26890        3.76460       -0.66640
N          1.02750        4.89200       -0.54850
C          2.22960        5.01790        0.23380
C          1.91800        5.45440        1.66450
C          0.30470        5.91910       -1.10990
C         -0.93950        5.42410       -1.63290
C         -1.80970        6.31510       -2.26850
C         -1.45350        7.63330       -2.37940
C         -0.24560        8.13080       -1.84180
C          0.64350        7.25020       -1.21570
C          0.05610        9.51780       -2.01590
C          0.91120       10.32930       -1.33730
C          1.35020       11.60460       -1.97560
O          0.86960       12.11840       -2.96170
C          2.50460       12.05750       -1.18470
C          3.35970       13.12600       -1.39950
C          4.39190       13.33670       -0.50900
C          4.58270       12.48730        0.59070
O          5.62760       12.79560        1.38840
C          5.87070       12.01030        2.53530
C          3.72300       11.40770        0.80730
C          2.68230       11.20540       -0.08180
C          1.60990       10.20970       -0.07860
C          1.20780        9.49550        1.02240
C          0.00750        8.75930        1.08970
N         -0.97570        8.18470        1.23630
C          1.90980        9.46920        2.24200
N          2.46530        9.38660        3.24480
H         -3.78790       -7.49040       -0.70510
H          2.14390       -9.29830       -0.06820
H         -1.80470      -12.46620       -0.22360
H          1.08680      -14.17600        0.50650
H          0.76680      -15.04570       -1.80420
H          0.24630      -12.97470       -3.31340
H          2.33850      -11.34090       -3.23440
H          4.15090      -12.40660       -1.67840
H          3.30280      -14.84730       -0.92290
H          3.23310      -14.67300       -2.69450
H          3.12410      -12.59380        0.58340
H         -4.35010       -5.55710       -1.72910
H         -4.17350       -3.14260       -2.01670
H         -0.89820       -5.61560        0.81670
H          1.29540       -2.46310        1.40520
H          0.94770       -4.19540        1.14400
H         -0.78040       -4.07860        2.97320
H          0.82450       -3.63170        3.56300
H         -0.37300       -2.37780        3.22670
H          4.17050        1.57210        2.65080
H          3.72260       -0.10490        3.08430
H          5.91780       -0.06420        1.89570
H          5.16230        0.74520        0.51740
H          4.69910       -0.91010        0.93360
H         -3.23990       -1.09820       -2.81150
H         -3.08190        0.65020       -2.77480
H         -4.67430        0.64570       -0.73830
H         -4.82940       -1.08960       -0.94760
H         -5.41300        0.00040       -2.21090
H         -3.62940        2.19970       -1.61350
H         -3.43380        3.94460       -1.58780
H         -2.46860        3.96600       -3.84030
H         -4.02740        3.13340       -3.88320
H         -2.51570        2.21650       -3.94850
H          2.71510        4.03950        0.25200
H          2.89120        5.74110       -0.25220
H          1.35390        4.67590        2.17150
H          1.32440        6.36590        1.67000
H          2.83860        5.63180        2.21320
H         -2.75230        5.97690       -2.67140
H         -2.12170        8.32940       -2.86390
H          1.59870        7.60650       -0.86130
H         -0.41850        9.99610       -2.86850
H          3.20900       13.77720       -2.24630
H          5.07800       14.15940       -0.63300
H          5.01300       12.01320        3.21390
H          6.72440       12.47150        3.02860
H          6.12010       10.97890        2.26890
H          3.86940       10.74360        1.64180
