114

C          6.24710       -1.15400        0.52880
C          6.75650       -1.11810        1.80380
C          6.05000       -0.98950        3.09410
O          4.85590       -1.01820        3.32640
C          7.09860       -0.80040        4.11480
C          6.89820       -0.58420        5.47620
C          8.05880       -0.41590        6.19140
C          9.32610       -0.46000        5.59570
C          9.53680       -0.68190        4.25550
C          8.36700       -0.85640        3.50870
C          8.18250       -1.10510        2.08050
C          9.20390       -1.32810        1.18910
C         10.57410       -1.31010        1.52260
N         11.70780       -1.30900        1.70770
C          9.06640       -1.63220       -0.18070
N          9.05320       -1.89500       -1.30060
C         10.03610       -0.18840        6.89900
C         10.56030        1.24760        7.11130
C         10.75890        1.34280        8.60690
C          9.55890        1.38230        9.17160
C          8.52920        1.31420        8.06710
C          9.27590        2.07370        6.96300
C          8.62270       -0.14190        7.56340
C          4.93230       -1.16160        0.03960
C          3.70050       -1.23920        0.72180
C          2.72250       -1.17800       -0.25090
C          3.35810       -1.09430       -1.50990
N          4.69270       -1.09580       -1.33400
C          5.65780       -0.92000       -2.39390
C          6.12670        0.53050       -2.49170
C          2.34270       -1.08050       -2.48380
C          2.37750       -1.13570       -3.89460
C          1.14310       -1.19840       -4.62510
N          1.32940       -1.30000       -5.93070
S          2.91850       -1.31450       -6.22810
N          3.43390       -1.19070       -4.69370
C         -0.07430       -1.07920       -3.91920
C         -1.39060       -0.91520       -4.36570
S         -2.26560       -0.85870       -5.85640
C         -3.71160       -0.44320       -4.95360
C         -5.00590       -0.14780       -5.35340
C         -5.44770       -0.20820       -6.77880
C         -6.09180       -1.56160       -7.09190
C         -5.82630        0.15790       -4.25030
S         -4.94570        0.06700       -2.72330
C         -3.50680       -0.37200       -3.56300
C         -2.17950       -0.65740       -3.23510
N         -1.40010       -0.69040       -2.10990
C         -0.10370       -0.96140       -2.49730
C          1.10510       -1.09640       -1.76970
N          1.35720       -1.18570       -0.41060
C          0.53020       -1.72860        0.64550
C          0.42160       -0.78310        1.83950
C         -1.90100       -0.16210       -0.86110
C         -2.87160       -1.11560       -0.16590
C         -7.17230        0.50420       -4.37750
C         -8.11510        0.83220       -3.42950
C         -7.90300        0.88070       -1.98270
O         -6.87410        0.64080       -1.37030
C         -9.18870        1.28410       -1.38990
C         -9.50210        1.47770       -0.07630
C        -10.81400        1.87490        0.26620
C        -11.19340        2.09320        1.60600
C        -12.46630        2.47880        1.92380
C        -13.39800        2.65520        0.89230
F        -14.64610        3.03420        1.22440
C        -13.08220        2.45700       -0.42320
C        -11.77570        2.06080       -0.76840
C        -11.41920        1.85180       -2.12200
C        -10.14170        1.46930       -2.43070
C         -9.48950        1.19120       -3.70960
C        -10.10070        1.27280       -4.93670
C         -9.49330        1.01790       -6.18270
N         -9.07550        0.82890       -7.23700
C        -11.45100        1.63340       -5.12370
N        -12.54070        1.91720       -5.34930
H          6.99430       -1.15090       -0.25170
H          5.90280       -0.55730        5.89150
H         10.51930       -0.71360        3.81580
H         10.74060       -0.95130        7.22480
H         11.40660        1.52030        6.48680
H         11.71930        1.31570        9.08740
H          9.31620        1.39470       10.21810
H          7.52450        1.64760        8.31320
H          9.42900        3.12180        7.21530
H          8.81140        1.99970        5.98140
H          8.38440       -0.87490        8.33190
H          3.60230       -1.32260        1.78320
H          5.16030       -1.20100       -3.32580
H          6.51120       -1.58490       -2.23660
H          6.85180        0.62330       -3.29450
H          6.59210        0.85710       -1.56420
H          5.28320        1.18300       -2.70520
H         -6.15600        0.59000       -7.00540
H         -4.56910       -0.07650       -7.41360
H         -5.38400       -2.36790       -6.91400
H         -6.96850       -1.72430       -6.46950
H         -6.39990       -1.58940       -8.13310
H         -0.44830       -1.97640        0.24260
H          0.99600       -2.66200        0.98610
H          1.40000       -0.62190        2.28190
H          0.01840        0.18530        1.55270
H         -0.23010       -1.22140        2.59020
H         -1.05220        0.08230       -0.22660
H         -2.43420        0.76910       -1.08370
H         -2.46210       -2.12000       -0.08560
H         -3.80460       -1.17480       -0.71870
H         -3.09060       -0.74580        0.83150
H         -7.51490        0.51400       -5.40300
H         -8.75840        1.33060        0.69270
H        -10.45760        1.95070        2.38330
H        -12.77270        2.65060        2.94340
H        -13.82550        2.60280       -1.19130
H        -12.17160        2.00270       -2.87890
