110

C          4.24840        3.38400        4.55310
C          4.05450        2.51970        5.60100
C          3.26110        1.28820        5.57760
O          2.67010        0.80330        4.62600
C          3.30750        0.73790        6.94250
C          2.67900       -0.41560        7.40500
C          2.88640       -0.66880        8.73980
C          3.65700        0.16900        9.55650
C          4.28430        1.30860        9.11190
C          4.09300        1.58080        7.75470
C          4.58810        2.68820        6.93800
C          5.41150        3.69190        7.38300
C          5.89550        4.76880        6.61190
N          6.33630        5.67740        6.06250
C          5.91090        3.79360        8.69840
N          6.36170        3.94670        9.74350
C          3.43560       -0.68500       10.77930
C          4.59350       -1.60660       11.23460
C          5.40790       -1.91060       10.00160
C          4.68500       -2.70680        9.22530
C          3.36870       -2.95600        9.91950
C          3.82730       -2.93040       11.38640
C          2.58210       -1.62250        9.86790
C          3.76100        3.36220        3.24170
C          4.04280        4.36960        2.30480
C          4.94750        5.53870        2.52020
C          6.40910        5.14290        2.29820
C          3.41230        4.13240        1.09030
Se         3.37560        5.09960       -0.54400
C          2.24810        3.73630       -1.11720
C          1.55800        3.35920       -2.27380
C          1.55200        3.95150       -3.55450
C          0.83330        3.30390       -4.60650
N          0.94610        3.93310       -5.76530
S          1.88350        5.23850       -5.54450
N          2.17670        5.04500       -3.96140
C          0.06980        2.15830       -4.29760
C         -0.81950        1.43520       -5.09630
Se        -1.43980        1.43810       -6.84920
C         -2.56880        0.02930       -6.25800
C         -3.52450       -0.73710       -6.90720
C         -3.89730       -0.50700       -8.33510
C         -5.11620        0.41350       -8.43490
C         -4.11200       -1.67990       -6.04290
S         -3.44070       -1.58320       -4.41500
C         -2.39980       -0.29710       -4.89900
C         -1.42640        0.48260       -4.26580
N         -0.92640        0.59460       -2.99470
C          0.01600        1.60230       -2.98510
C          0.86340        2.14970       -1.98240
N          1.16130        1.79110       -0.67770
C          1.99900        2.74670       -0.15880
C          2.64440        2.95540        1.06670
S          2.70720        2.11810        2.57310
C          1.16250        0.48600       -0.05180
C          2.35430       -0.34090       -0.53070
C         -1.57680       -0.10140       -1.90820
C         -1.10150       -1.54870       -1.78320
C         -5.10220       -2.57390       -6.45230
C         -5.76820       -3.56300       -5.76470
C         -5.55800       -3.93490       -4.36450
O         -4.79210       -3.42600       -3.56250
C         -6.46320       -5.06820       -4.10210
C         -6.63570       -5.79230       -2.93840
C         -7.55190       -6.83210       -2.93490
C         -8.27120       -7.12180       -4.08830
Cl        -9.40550       -8.41830       -4.06580
C         -8.10640       -6.39910       -5.26680
C         -7.19020       -5.36190       -5.26870
C         -6.78180       -4.43110       -6.32430
C         -7.29420       -4.41230       -7.59700
C         -8.29300       -5.29310       -8.06310
N         -9.10330       -5.97210       -8.51080
C         -6.91880       -3.52400       -8.62580
N         -6.66960       -2.84130       -9.51630
H          4.86800        4.24560        4.76020
H          2.08700       -1.02780        6.74260
H          4.87130        1.94160        9.75580
H          2.93870       -0.19790       11.61600
H          5.14570       -1.24470       12.09760
H          6.37230       -1.48220        9.80070
H          4.92480       -3.07660        8.24560
H          2.80690       -3.82460        9.58590
H          4.47740       -3.76660       11.63920
H          3.00420       -2.87610       12.09760
H          1.52970       -1.75270       10.11320
H          4.67400        6.31300        1.79610
H          4.83130        5.95250        3.52290
H          7.05090        6.00820        2.43700
H          6.71120        4.37390        3.00510
H          6.54640        4.76200        1.28810
H         -3.04740       -0.02680       -8.83060
H         -4.10720       -1.44610       -8.84870
H         -5.98020       -0.03750       -7.95290
H         -5.35930        0.59150       -9.47830
H         -4.90680        1.36750       -7.95510
H          0.23940       -0.04520       -0.25040
H          1.23790        0.64770        1.02640
H          2.34860       -1.31210       -0.04410
H          2.31270       -0.48420       -1.60910
H          3.28650        0.16260       -0.28610
H         -2.65100       -0.10890       -2.12140
H         -1.43180        0.46750       -0.98830
H         -1.51310       -1.99470       -0.88220
H         -1.44980       -2.12620       -2.63500
H         -0.01690       -1.61190       -1.74880
H         -5.37400       -2.46060       -7.49270
H         -6.06300       -5.54720       -2.05750
H         -7.71250       -7.42080       -2.04560
H         -8.68470       -6.65920       -6.13770
