110

C          0.24440       -6.04790       -3.42560
C         -0.93420       -6.53270       -2.91470
C         -1.86820       -5.80860       -2.04950
O         -1.72820       -4.69530       -1.56870
C         -3.03870       -6.68470       -1.87620
C         -4.20160       -6.39980       -1.16540
C         -5.13460       -7.40830       -1.19340
C         -4.92740       -8.61050       -1.88200
C         -3.78420       -8.90330       -2.58770
C         -2.81930       -7.89290       -2.56800
C         -1.49900       -7.83720       -3.19510
C         -0.90950       -8.86450       -3.88840
C          0.37760       -8.83920       -4.46360
N          1.41520       -8.90640       -4.95380
C         -1.50350      -10.12430       -4.10990
N         -1.91660      -11.17290       -4.33130
C         -6.27260       -9.16360       -1.48320
C         -6.31130      -10.22100       -0.35260
C         -5.09780       -9.97240        0.50840
C         -5.29190       -8.83510        1.16270
C         -6.64030       -8.29420        0.75600
C         -7.40500       -9.60950        0.53760
C         -6.50230       -7.82470       -0.71350
C          0.89110       -4.82270       -3.23190
C          2.09280       -4.47810       -3.87150
C          2.87330       -5.34760       -4.80250
C          3.78010       -6.30240       -4.02270
C          2.53320       -3.21620       -3.49490
Se         4.04380       -2.18480       -4.00580
C          3.34100       -0.91290       -2.84540
C          3.63040        0.38350       -2.41100
C          4.64550        1.26750       -2.83370
C          4.64820        2.60120       -2.32110
N          5.61640        3.34380       -2.83300
S          6.45810        2.43020       -3.87690
N          5.61320        1.05530       -3.71090
C          3.69960        2.94810       -1.33610
C          3.56800        4.13170       -0.60470
Se         4.35820        5.81250       -0.51970
C          3.14940        6.10430        0.91490
C          2.94030        7.19170        1.75400
C          3.68230        8.47810        1.59160
C          2.87830        9.46270        0.73940
C          1.93170        6.93530        2.69500
S          1.25650        5.31860        2.50920
C          2.31860        5.00400        1.18680
C          2.55190        3.91600        0.33480
N          2.03950        2.65430        0.18090
C          2.72250        2.03230       -0.84940
C          2.62410        0.75650       -1.47310
N          1.73050       -0.29510       -1.37530
C          2.15530       -1.29800       -2.20690
C          1.69660       -2.57190       -2.56730
S          0.32620       -3.53890       -2.16410
C          0.38750       -0.32760       -0.84130
C         -0.51910        0.67170       -1.55570
C          1.20700        2.08800        1.21860
C          1.97030        1.05050        2.03830
C          1.53400        7.86440        3.66370
C          0.59410        7.78790        4.65810
C         -0.27670        6.63440        4.95890
O         -0.32430        5.56480        4.37550
C         -1.05940        7.05980        6.10960
S         -2.27350        6.37980        7.10430
C         -2.33250        7.84030        8.05510
C         -3.26760        7.93710        9.20350
C         -1.45550        8.79140        7.61300
C         -0.72220        8.34860        6.49680
C          0.30990        8.84850        5.60830
C          0.87220       10.09660        5.70000
C          1.87010       10.62210        4.85730
N          2.68100       11.11480        4.20860
C          0.47900       11.01140        6.69860
N          0.17520       11.77190        7.50300
H          0.77230       -6.70500       -4.10330
H         -4.32180       -5.45770       -0.65350
H         -3.64480       -9.83130       -3.11620
H         -6.94970       -9.40460       -2.30030
H         -6.45600      -11.24220       -0.69460
H         -4.22580      -10.59980        0.50910
H         -4.61390       -8.32200        1.81940
H         -7.08520       -7.56130        1.42420
H         -8.35750       -9.47780        0.02610
H         -7.55710      -10.16650        1.46080
H         -7.33130       -7.19270       -1.02660
H          3.49430       -4.69680       -5.42680
H          2.21510       -5.92180       -5.45590
H          4.36650       -6.90100       -4.71360
H          4.45670       -5.73920       -3.38310
H          3.19040       -6.97400       -3.40370
H          3.90840        8.93200        2.55750
H          4.62810        8.25890        1.08570
H          2.67780        9.03450       -0.24060
H          3.43880       10.38430        0.61160
H          1.93040        9.69970        1.21670
H          0.40010       -0.16340        0.23590
H          0.00670       -1.33770       -1.00680
H         -0.12750        1.68410       -1.48360
H         -1.51390        0.64560       -1.11980
H         -0.59730        0.41250       -2.60900
H          0.29310        1.67430        0.79310
H          0.91160        2.91250        1.87100
H          2.34330        0.24450        1.41000
H          2.82040        1.51920        2.52850
H          1.32030        0.63170        2.80160
H          2.07790        8.79790        3.60630
H         -3.19040        8.91800        9.66510
H         -3.03760        7.17730        9.95000
H         -4.29500        7.77960        8.87690
H         -1.35130        9.75550        8.07530
