
  xtb     02012220383D
 energy: -184.796104168175 gnorm: 0.000294827860 xtb: 6.4.1 (unknown)
107120  0     0  0            999 V2000
   -2.4131    5.0431   -2.2574 C   0  0  0  0  0  0  0  0  0  0  0  0
   -1.7378    5.8703   -1.4014 C   0  0  0  0  0  0  0  0  0  0  0  0
   -0.6583    5.4261   -0.4894 C   0  0  0  0  0  0  0  0  0  0  0  0
   -0.4164    4.3029   -0.0910 O   0  0  0  0  0  0  0  0  0  0  0  0
    0.1365    6.6367   -0.2091 C   0  0  0  0  0  0  0  0  0  0  0  0
    1.3288    6.7009    0.5093 C   0  0  0  0  0  0  0  0  0  0  0  0
    1.8602    7.9648    0.5994 C   0  0  0  0  0  0  0  0  0  0  0  0
    1.2541    9.0860    0.0169 C   0  0  0  0  0  0  0  0  0  0  0  0
    0.0792    9.0374   -0.6960 C   0  0  0  0  0  0  0  0  0  0  0  0
   -0.4780    7.7596   -0.7991 C   0  0  0  0  0  0  0  0  0  0  0  0
   -1.6865    7.3144   -1.4845 C   0  0  0  0  0  0  0  0  0  0  0  0
   -2.6547    8.1108   -2.0370 C   0  0  0  0  0  0  0  0  0  0  0  0
   -2.5961    9.5178   -2.0858 C   0  0  0  0  0  0  0  0  0  0  0  0
   -2.5972   10.6637   -2.1568 N   0  0  0  0  0  0  0  0  0  0  0  0
   -3.8609    7.6098   -2.5712 C   0  0  0  0  0  0  0  0  0  0  0  0
   -4.8740    7.2616   -2.9842 N   0  0  0  0  0  0  0  0  0  0  0  0
    2.3372   10.0199    0.4971 C   0  0  0  0  0  0  0  0  0  0  0  0
    2.0009   10.9000    1.7195 C   0  0  0  0  0  0  0  0  0  0  0  0
    3.3545   11.3276    2.2393 C   0  0  0  0  0  0  0  0  0  0  0  0
    3.9288   10.2663    2.7910 C   0  0  0  0  0  0  0  0  0  0  0  0
    2.9731    9.1031    2.6530 C   0  0  0  0  0  0  0  0  0  0  0  0
    1.6355    9.8449    2.7716 C   0  0  0  0  0  0  0  0  0  0  0  0
    3.0126    8.7696    1.1468 C   0  0  0  0  0  0  0  0  0  0  0  0
   -2.4193    3.6341   -2.1645 C   0  0  0  0  0  0  0  0  0  0  0  0
   -2.2335    2.7228   -3.6699 S   0  0  0  0  0  0  0  0  0  0  0  0
   -1.9839    1.3014   -2.7515 C   0  0  0  0  0  0  0  0  0  0  0  0
   -1.6686   -0.0466   -2.9555 C   0  0  0  0  0  0  0  0  0  0  0  0
   -1.5977   -0.8030   -4.1447 C   0  0  0  0  0  0  0  0  0  0  0  0
   -1.3971   -2.2175   -4.0452 C   0  0  0  0  0  0  0  0  0  0  0  0
   -1.4202   -2.8178   -5.2250 N   0  0  0  0  0  0  0  0  0  0  0  0
   -1.6669   -1.6947   -6.3645 S   0  0  0  0  0  0  0  0  0  0  0  0
   -1.7568   -0.4007   -5.3958 N   0  0  0  0  0  0  0  0  0  0  0  0
   -1.1436   -2.7788   -2.7749 C   0  0  0  0  0  0  0  0  0  0  0  0
   -0.7786   -4.0859   -2.4214 C   0  0  0  0  0  0  0  0  0  0  0  0
   -0.5131   -5.6187   -3.1710 S   0  0  0  0  0  0  0  0  0  0  0  0
    0.0209   -6.2590   -1.6317 C   0  0  0  0  0  0  0  0  0  0  0  0
    0.5542   -7.4987   -1.2495 C   0  0  0  0  0  0  0  0  0  0  0  0
    0.6127   -8.6963   -2.1362 C   0  0  0  0  0  0  0  0  0  0  0  0
   -0.7228   -8.9747   -2.8238 C   0  0  0  0  0  0  0  0  0  0  0  0
    0.9111   -7.4928    0.0936 C   0  0  0  0  0  0  0  0  0  0  0  0
    0.5014   -5.9744    0.8945 S   0  0  0  0  0  0  0  0  0  0  0  0
   -0.0398   -5.3114   -0.5996 C   0  0  0  0  0  0  0  0  0  0  0  0
   -0.4994   -4.0719   -1.0535 C   0  0  0  0  0  0  0  0  0  0  0  0
   -0.7047   -2.8162   -0.5356 N   0  0  0  0  0  0  0  0  0  0  0  0
   -1.1120   -1.9960   -1.5837 C   0  0  0  0  0  0  0  0  0  0  0  0
   -1.5159   -0.6330   -1.6645 C   0  0  0  0  0  0  0  0  0  0  0  0
   -1.8338    0.3251   -0.7240 N   0  0  0  0  0  0  0  0  0  0  0  0
   -2.1099    1.5070   -1.3702 C   0  0  0  0  0  0  0  0  0  0  0  0
   -2.4236    2.8355   -1.0243 C   0  0  0  0  0  0  0  0  0  0  0  0
   -3.0105    3.3235    0.2642 C   0  0  0  0  0  0  0  0  0  0  0  0
   -4.4689    2.8611    0.3649 C   0  0  0  0  0  0  0  0  0  0  0  0
   -1.8742    0.2368    0.7135 C   0  0  0  0  0  0  0  0  0  0  0  0
   -0.6205    0.8503    1.3403 C   0  0  0  0  0  0  0  0  0  0  0  0
    0.0380   -2.5009    0.6684 C   0  0  0  0  0  0  0  0  0  0  0  0
    1.4965   -2.1854    0.3398 C   0  0  0  0  0  0  0  0  0  0  0  0
    1.5048   -8.4922    0.8945 C   0  0  0  0  0  0  0  0  0  0  0  0
    2.4903   -9.3548    0.4997 C   0  0  0  0  0  0  0  0  0  0  0  0
    3.3994   -9.1102   -0.6454 C   0  0  0  0  0  0  0  0  0  0  0  0
    3.3107   -8.2514   -1.4976 O   0  0  0  0  0  0  0  0  0  0  0  0
    4.5166  -10.0597   -0.4626 C   0  0  0  0  0  0  0  0  0  0  0  0
    5.6556  -10.2046   -1.2297 C   0  0  0  0  0  0  0  0  0  0  0  0
    6.5839  -11.1644   -0.8504 C   0  0  0  0  0  0  0  0  0  0  0  0
    6.3685  -11.9467    0.2749 C   0  0  0  0  0  0  0  0  0  0  0  0
    5.2258  -11.8023    1.0512 C   0  0  0  0  0  0  0  0  0  0  0  0
    4.2902  -10.8507    0.6775 C   0  0  0  0  0  0  0  0  0  0  0  0
    3.0143  -10.4613    1.2713 C   0  0  0  0  0  0  0  0  0  0  0  0
    2.3784  -11.0881    2.3106 C   0  0  0  0  0  0  0  0  0  0  0  0
    1.0905  -10.7428    2.7717 C   0  0  0  0  0  0  0  0  0  0  0  0
    0.0369  -10.5269    3.1742 N   0  0  0  0  0  0  0  0  0  0  0  0
    2.9124  -12.1818    3.0220 C   0  0  0  0  0  0  0  0  0  0  0  0
    3.3012  -13.0668    3.6412 N   0  0  0  0  0  0  0  0  0  0  0  0
   -2.8555    5.4682   -3.1507 H   0  0  0  0  0  0  0  0  0  0  0  0
    1.7672    5.8127    0.9369 H   0  0  0  0  0  0  0  0  0  0  0  0
   -0.3707    9.9032   -1.1530 H   0  0  0  0  0  0  0  0  0  0  0  0
    2.8765   10.5588   -0.2795 H   0  0  0  0  0  0  0  0  0  0  0  0
    1.2783   11.6883    1.5277 H   0  0  0  0  0  0  0  0  0  0  0  0
    3.7646   12.3115    2.1069 H   0  0  0  0  0  0  0  0  0  0  0  0
    4.9143   10.1863    3.2110 H   0  0  0  0  0  0  0  0  0  0  0  0
    3.1366    8.2547    3.3123 H   0  0  0  0  0  0  0  0  0  0  0  0
    0.7683    9.2406    2.5112 H   0  0  0  0  0  0  0  0  0  0  0  0
    1.4927   10.2807    3.7590 H   0  0  0  0  0  0  0  0  0  0  0  0
    4.0020    8.4744    0.8019 H   0  0  0  0  0  0  0  0  0  0  0  0
    1.3895   -8.5315   -2.8879 H   0  0  0  0  0  0  0  0  0  0  0  0
    0.9033   -9.5662   -1.5448 H   0  0  0  0  0  0  0  0  0  0  0  0
   -0.6525   -9.8970   -3.3946 H   0  0  0  0  0  0  0  0  0  0  0  0
   -1.5140   -9.0857   -2.0853 H   0  0  0  0  0  0  0  0  0  0  0  0
   -0.9909   -8.1715   -3.5041 H   0  0  0  0  0  0  0  0  0  0  0  0
   -2.9986    4.4117    0.2803 H   0  0  0  0  0  0  0  0  0  0  0  0
   -2.4374    2.9741    1.1212 H   0  0  0  0  0  0  0  0  0  0  0  0
   -5.0567    3.3130   -0.4308 H   0  0  0  0  0  0  0  0  0  0  0  0
   -4.8903    3.1657    1.3198 H   0  0  0  0  0  0  0  0  0  0  0  0
   -4.5567    1.7802    0.2742 H   0  0  0  0  0  0  0  0  0  0  0  0
   -2.0254   -0.8051    0.9996 H   0  0  0  0  0  0  0  0  0  0  0  0
   -2.7517    0.7887    1.0572 H   0  0  0  0  0  0  0  0  0  0  0  0
   -0.6795    0.7973    2.4246 H   0  0  0  0  0  0  0  0  0  0  0  0
   -0.5297    1.8924    1.0421 H   0  0  0  0  0  0  0  0  0  0  0  0
    0.2803    0.3399    1.0108 H   0  0  0  0  0  0  0  0  0  0  0  0
   -0.0121   -3.3864    1.3083 H   0  0  0  0  0  0  0  0  0  0  0  0
   -0.4054   -1.6741    1.2087 H   0  0  0  0  0  0  0  0  0  0  0  0
    2.0382   -1.9486    1.2514 H   0  0  0  0  0  0  0  0  0  0  0  0
    1.5595   -1.3374   -0.3397 H   0  0  0  0  0  0  0  0  0  0  0  0
    1.9733   -3.0400   -0.1342 H   0  0  0  0  0  0  0  0  0  0  0  0
    1.1936   -8.5049    1.9332 H   0  0  0  0  0  0  0  0  0  0  0  0
    5.8052   -9.5825   -2.0988 H   0  0  0  0  0  0  0  0  0  0  0  0
    7.4818  -11.3029   -1.4336 H   0  0  0  0  0  0  0  0  0  0  0  0
    7.1047  -12.6839    0.5584 H   0  0  0  0  0  0  0  0  0  0  0  0
    5.0861  -12.4169    1.9257 H   0  0  0  0  0  0  0  0  0  0  0  0
  1  2  2  0  0  0  0
  2  3  1  0  0  0  0
  3  4  2  0  0  0  0
  3  5  1  0  0  0  0
  5  6  2  0  0  0  0
  6  7  1  0  0  0  0
  7  8  2  0  0  0  0
  8  9  1  0  0  0  0
  9 10  2  0  0  0  0
 10 11  1  0  0  0  0
 11 12  2  0  0  0  0
 12 13  1  0  0  0  0
 13 14  3  0  0  0  0
 12 15  1  0  0  0  0
 15 16  3  0  0  0  0
  8 17  1  0  0  0  0
 17 18  1  0  0  0  0
 18 19  1  0  0  0  0
 19 20  2  0  0  0  0
 20 21  1  0  0  0  0
 21 22  1  0  0  0  0
 21 23  1  0  0  0  0
  1 24  1  0  0  0  0
 24 25  1  0  0  0  0
 25 26  1  0  0  0  0
 26 27  1  0  0  0  0
 27 28  1  0  0  0  0
 28 29  1  0  0  0  0
 29 30  2  0  0  0  0
 30 31  1  0  0  0  0
 31 32  1  0  0  0  0
 29 33  1  0  0  0  0
 33 34  1  0  0  0  0
 34 35  1  0  0  0  0
 35 36  1  0  0  0  0
 36 37  1  0  0  0  0
 37 38  1  0  0  0  0
 38 39  1  0  0  0  0
 37 40  2  0  0  0  0
 40 41  1  0  0  0  0
 41 42  1  0  0  0  0
 42 43  1  0  0  0  0
 43 44  1  0  0  0  0
 44 45  1  0  0  0  0
 45 46  1  0  0  0  0
 46 47  1  0  0  0  0
 47 48  1  0  0  0  0
 48 49  1  0  0  0  0
 49 50  1  0  0  0  0
 50 51  1  0  0  0  0
 47 52  1  0  0  0  0
 52 53  1  0  0  0  0
 44 54  1  0  0  0  0
 54 55  1  0  0  0  0
 40 56  1  0  0  0  0
 56 57  2  0  0  0  0
 57 58  1  0  0  0  0
 58 59  2  0  0  0  0
 58 60  1  0  0  0  0
 60 61  2  0  0  0  0
 61 62  1  0  0  0  0
 62 63  2  0  0  0  0
 63 64  1  0  0  0  0
 64 65  2  0  0  0  0
 65 66  1  0  0  0  0
 66 67  2  0  0  0  0
 67 68  1  0  0  0  0
 68 69  3  0  0  0  0
 67 70  1  0  0  0  0
 70 71  3  0  0  0  0
 11  2  1  0  0  0  0
 23 17  1  0  0  0  0
 49 24  2  0  0  0  0
 66 57  1  0  0  0  0
 10  5  1  0  0  0  0
 22 18  1  0  0  0  0
 48 26  2  0  0  0  0
 65 60  1  0  0  0  0
 23  7  1  0  0  0  0
 46 27  2  0  0  0  0
 32 28  2  0  0  0  0
 45 33  2  0  0  0  0
 43 34  2  0  0  0  0
 42 36  2  0  0  0  0
  1 72  1  0  0  0  0
  6 73  1  0  0  0  0
  9 74  1  0  0  0  0
 17 75  1  0  0  0  0
 18 76  1  0  0  0  0
 19 77  1  0  0  0  0
 20 78  1  0  0  0  0
 21 79  1  0  0  0  0
 22 80  1  0  0  0  0
 22 81  1  0  0  0  0
 23 82  1  0  0  0  0
 38 83  1  0  0  0  0
 38 84  1  0  0  0  0
 39 85  1  0  0  0  0
 39 86  1  0  0  0  0
 39 87  1  0  0  0  0
 50 88  1  0  0  0  0
 50 89  1  0  0  0  0
 51 90  1  0  0  0  0
 51 91  1  0  0  0  0
 51 92  1  0  0  0  0
 52 93  1  0  0  0  0
 52 94  1  0  0  0  0
 53 95  1  0  0  0  0
 53 96  1  0  0  0  0
 53 97  1  0  0  0  0
 54 98  1  0  0  0  0
 54 99  1  0  0  0  0
 55100  1  0  0  0  0
 55101  1  0  0  0  0
 55102  1  0  0  0  0
 56103  1  0  0  0  0
 61104  1  0  0  0  0
 62105  1  0  0  0  0
 63106  1  0  0  0  0
 64107  1  0  0  0  0
M  END
