
  xtb     02022211433D
 energy: -225.305852539652 gnorm: 0.000470633418 xtb: 6.4.1 (unknown)
133149  0     0  0            999 V2000
   -2.7234   -7.0910    0.7727 C   0  0  0  0  0  0  0  0  0  0  0  0
   -2.9065   -7.4091   -0.5401 C   0  0  0  0  0  0  0  0  0  0  0  0
   -2.7190   -8.8086   -0.9987 C   0  0  0  0  0  0  0  0  0  0  0  0
   -2.6819   -9.8028   -0.3081 O   0  0  0  0  0  0  0  0  0  0  0  0
   -2.5247   -8.7115   -2.4607 C   0  0  0  0  0  0  0  0  0  0  0  0
   -2.1657   -9.7354   -3.3348 C   0  0  0  0  0  0  0  0  0  0  0  0
   -2.0220   -9.3324   -4.6410 C   0  0  0  0  0  0  0  0  0  0  0  0
   -2.2157   -8.0074   -5.0542 C   0  0  0  0  0  0  0  0  0  0  0  0
   -2.5756   -6.9872   -4.2059 C   0  0  0  0  0  0  0  0  0  0  0  0
   -2.7304   -7.3782   -2.8738 C   0  0  0  0  0  0  0  0  0  0  0  0
   -3.1276   -6.5919   -1.7094 C   0  0  0  0  0  0  0  0  0  0  0  0
   -3.8310   -5.4143   -1.7344 C   0  0  0  0  0  0  0  0  0  0  0  0
   -4.0887   -4.6675   -2.8985 C   0  0  0  0  0  0  0  0  0  0  0  0
   -4.3034   -4.0086   -3.8144 N   0  0  0  0  0  0  0  0  0  0  0  0
   -4.4541   -4.8888   -0.5836 C   0  0  0  0  0  0  0  0  0  0  0  0
   -5.0175   -4.4787    0.3289 N   0  0  0  0  0  0  0  0  0  0  0  0
   -1.8972   -8.3253   -6.4940 C   0  0  0  0  0  0  0  0  0  0  0  0
   -3.0982   -8.4368   -7.4569 C   0  0  0  0  0  0  0  0  0  0  0  0
   -2.5469   -9.2085   -8.6341 C   0  0  0  0  0  0  0  0  0  0  0  0
   -2.3650  -10.4637   -8.2441 C   0  0  0  0  0  0  0  0  0  0  0  0
   -2.7905  -10.5615   -6.7968 C   0  0  0  0  0  0  0  0  0  0  0  0
   -3.9321   -9.5368   -6.7874 C   0  0  0  0  0  0  0  0  0  0  0  0
   -1.6837   -9.8032   -6.0340 C   0  0  0  0  0  0  0  0  0  0  0  0
   -2.3726   -5.8529    1.3481 C   0  0  0  0  0  0  0  0  0  0  0  0
   -2.3289   -5.5769    2.7163 C   0  0  0  0  0  0  0  0  0  0  0  0
   -2.9227   -6.4354    3.7301 C   0  0  0  0  0  0  0  0  0  0  0  0
   -2.3029   -6.6081    4.9675 C   0  0  0  0  0  0  0  0  0  0  0  0
   -2.8754   -7.4175    5.9268 C   0  0  0  0  0  0  0  0  0  0  0  0
   -4.0799   -8.0700    5.6872 C   0  0  0  0  0  0  0  0  0  0  0  0
   -4.7242   -8.9067    6.7526 C   0  0  0  0  0  0  0  0  0  0  0  0
   -5.6641   -8.0500    7.6043 C   0  0  0  0  0  0  0  0  0  0  0  0
   -4.7036   -7.8824    4.4592 C   0  0  0  0  0  0  0  0  0  0  0  0
   -4.1381   -7.0783    3.4904 C   0  0  0  0  0  0  0  0  0  0  0  0
   -1.6987   -4.3491    2.9719 C   0  0  0  0  0  0  0  0  0  0  0  0
   -1.3218   -3.4837    4.4438 S   0  0  0  0  0  0  0  0  0  0  0  0
   -0.6232   -2.2159    3.4991 C   0  0  0  0  0  0  0  0  0  0  0  0
    0.0406   -0.9910    3.6852 C   0  0  0  0  0  0  0  0  0  0  0  0
    0.5699   -0.3388    4.8236 C   0  0  0  0  0  0  0  0  0  0  0  0
    1.3864    0.8350    4.6443 C   0  0  0  0  0  0  0  0  0  0  0  0
    1.8857    1.2780    5.7863 N   0  0  0  0  0  0  0  0  0  0  0  0
    1.3710    0.3182    6.9837 S   0  0  0  0  0  0  0  0  0  0  0  0
    0.4925   -0.7078    6.0916 N   0  0  0  0  0  0  0  0  0  0  0  0
    1.4967    1.4092    3.3559 C   0  0  0  0  0  0  0  0  0  0  0  0
    2.0578    2.6052    2.8784 C   0  0  0  0  0  0  0  0  0  0  0  0
    3.0365    3.9124    3.4504 S   0  0  0  0  0  0  0  0  0  0  0  0
    2.9094    4.6603    1.8699 C   0  0  0  0  0  0  0  0  0  0  0  0
    3.3843    5.8631    1.3536 C   0  0  0  0  0  0  0  0  0  0  0  0
    4.2067    6.8060    2.1054 C   0  0  0  0  0  0  0  0  0  0  0  0
    3.9091    8.1674    2.1398 C   0  0  0  0  0  0  0  0  0  0  0  0
    4.7230    9.0419    2.8304 C   0  0  0  0  0  0  0  0  0  0  0  0
    5.8519    8.5879    3.5009 C   0  0  0  0  0  0  0  0  0  0  0  0
    6.7236    9.5400    4.2642 C   0  0  0  0  0  0  0  0  0  0  0  0
    6.2347    9.6712    5.7085 C   0  0  0  0  0  0  0  0  0  0  0  0
    6.1271    7.2255    3.4919 C   0  0  0  0  0  0  0  0  0  0  0  0
    5.3158    6.3421    2.8104 C   0  0  0  0  0  0  0  0  0  0  0  0
    2.9740    6.0488    0.0181 C   0  0  0  0  0  0  0  0  0  0  0  0
    1.9640    4.7247   -0.5582 S   0  0  0  0  0  0  0  0  0  0  0  0
    2.1362    3.9224    0.9592 C   0  0  0  0  0  0  0  0  0  0  0  0
    1.6668    2.7404    1.5380 C   0  0  0  0  0  0  0  0  0  0  0  0
    0.9186    1.6549    1.1545 N   0  0  0  0  0  0  0  0  0  0  0  0
    0.8366    0.8159    2.2466 C   0  0  0  0  0  0  0  0  0  0  0  0
    0.2773   -0.4722    2.3857 C   0  0  0  0  0  0  0  0  0  0  0  0
   -0.1497   -1.3814    1.4376 N   0  0  0  0  0  0  0  0  0  0  0  0
   -0.6969   -2.4409    2.1170 C   0  0  0  0  0  0  0  0  0  0  0  0
   -1.2925   -3.6680    1.8181 C   0  0  0  0  0  0  0  0  0  0  0  0
   -1.6602   -4.5580    0.3883 S   0  0  0  0  0  0  0  0  0  0  0  0
    0.3940   -1.5546    0.1059 C   0  0  0  0  0  0  0  0  0  0  0  0
    1.4799   -2.6300    0.0885 C   0  0  0  0  0  0  0  0  0  0  0  0
   -0.0476    1.7668    0.0792 C   0  0  0  0  0  0  0  0  0  0  0  0
   -1.0630    2.8728    0.3631 C   0  0  0  0  0  0  0  0  0  0  0  0
    3.4166    7.1244   -0.7591 C   0  0  0  0  0  0  0  0  0  0  0  0
    3.0705    7.5094   -2.0312 C   0  0  0  0  0  0  0  0  0  0  0  0
    2.0734    6.8600   -2.8885 C   0  0  0  0  0  0  0  0  0  0  0  0
    1.4493    5.8368   -2.6584 O   0  0  0  0  0  0  0  0  0  0  0  0
    1.9721    7.6906   -4.0978 C   0  0  0  0  0  0  0  0  0  0  0  0
    1.1579    7.5318   -5.2010 C   0  0  0  0  0  0  0  0  0  0  0  0
    1.2435    8.4662   -6.2226 C   0  0  0  0  0  0  0  0  0  0  0  0
    2.1245    9.5401   -6.1459 C   0  0  0  0  0  0  0  0  0  0  0  0
    2.2056   10.5490   -7.2471 C   0  0  0  0  0  0  0  0  0  0  0  0
    2.9461    9.6909   -5.0266 C   0  0  0  0  0  0  0  0  0  0  0  0
    2.8730    8.7668   -4.0012 C   0  0  0  0  0  0  0  0  0  0  0  0
    3.5895    8.6675   -2.7283 C   0  0  0  0  0  0  0  0  0  0  0  0
    4.5740    9.5254   -2.3082 C   0  0  0  0  0  0  0  0  0  0  0  0
    5.2874    9.4480   -1.0937 C   0  0  0  0  0  0  0  0  0  0  0  0
    5.9210    9.4718   -0.1351 N   0  0  0  0  0  0  0  0  0  0  0  0
    5.0302   10.6304   -3.0568 C   0  0  0  0  0  0  0  0  0  0  0  0
    5.4505   11.5468   -3.6069 N   0  0  0  0  0  0  0  0  0  0  0  0
   -2.7273   -7.9339    1.4581 H   0  0  0  0  0  0  0  0  0  0  0  0
   -2.0198  -10.7432   -2.9786 H   0  0  0  0  0  0  0  0  0  0  0  0
   -2.7127   -5.9673   -4.5270 H   0  0  0  0  0  0  0  0  0  0  0  0
   -1.0548   -7.7869   -6.9245 H   0  0  0  0  0  0  0  0  0  0  0  0
   -3.5941   -7.4953   -7.6765 H   0  0  0  0  0  0  0  0  0  0  0  0
   -2.3017   -8.7644   -9.5810 H   0  0  0  0  0  0  0  0  0  0  0  0
   -1.9374  -11.2774   -8.8001 H   0  0  0  0  0  0  0  0  0  0  0  0
   -3.0062  -11.5563   -6.4165 H   0  0  0  0  0  0  0  0  0  0  0  0
   -4.2894   -9.2790   -5.7922 H   0  0  0  0  0  0  0  0  0  0  0  0
   -4.7716   -9.8504   -7.4056 H   0  0  0  0  0  0  0  0  0  0  0  0
   -0.6988  -10.2500   -6.1577 H   0  0  0  0  0  0  0  0  0  0  0  0
   -1.3587   -6.1232    5.1654 H   0  0  0  0  0  0  0  0  0  0  0  0
   -2.3788   -7.5490    6.8773 H   0  0  0  0  0  0  0  0  0  0  0  0
   -5.2935   -9.7172    6.2935 H   0  0  0  0  0  0  0  0  0  0  0  0
   -3.9577   -9.3459    7.3939 H   0  0  0  0  0  0  0  0  0  0  0  0
   -5.1132   -7.2408    8.0783 H   0  0  0  0  0  0  0  0  0  0  0  0
   -6.4448   -7.6145    6.9848 H   0  0  0  0  0  0  0  0  0  0  0  0
   -6.1308   -8.6539    8.3788 H   0  0  0  0  0  0  0  0  0  0  0  0
   -5.6470   -8.3703    4.2612 H   0  0  0  0  0  0  0  0  0  0  0  0
   -4.6543   -6.9102    2.5568 H   0  0  0  0  0  0  0  0  0  0  0  0
    3.0225    8.5340    1.6419 H   0  0  0  0  0  0  0  0  0  0  0  0
    4.4844   10.0951    2.8408 H   0  0  0  0  0  0  0  0  0  0  0  0
    7.7534    9.1782    4.2645 H   0  0  0  0  0  0  0  0  0  0  0  0
    6.7050   10.5200    3.7848 H   0  0  0  0  0  0  0  0  0  0  0  0
    5.2135   10.0453    5.7304 H   0  0  0  0  0  0  0  0  0  0  0  0
    6.2541    8.7032    6.2044 H   0  0  0  0  0  0  0  0  0  0  0  0
    6.8686   10.3589    6.2632 H   0  0  0  0  0  0  0  0  0  0  0  0
    6.9954    6.8538    4.0167 H   0  0  0  0  0  0  0  0  0  0  0  0
    5.5534    5.2887    2.7940 H   0  0  0  0  0  0  0  0  0  0  0  0
    0.8353   -0.6163   -0.2244 H   0  0  0  0  0  0  0  0  0  0  0  0
   -0.4198   -1.8354   -0.5702 H   0  0  0  0  0  0  0  0  0  0  0  0
    1.0753   -3.6000    0.3634 H   0  0  0  0  0  0  0  0  0  0  0  0
    1.9008   -2.7034   -0.9102 H   0  0  0  0  0  0  0  0  0  0  0  0
    2.2745   -2.3719    0.7854 H   0  0  0  0  0  0  0  0  0  0  0  0
    0.4870    1.9867   -0.8499 H   0  0  0  0  0  0  0  0  0  0  0  0
   -0.5845    0.8249   -0.0181 H   0  0  0  0  0  0  0  0  0  0  0  0
   -1.8076    2.8894   -0.4275 H   0  0  0  0  0  0  0  0  0  0  0  0
   -1.5630    2.6906    1.3121 H   0  0  0  0  0  0  0  0  0  0  0  0
   -0.5805    3.8450    0.3995 H   0  0  0  0  0  0  0  0  0  0  0  0
    4.1425    7.7456   -0.2487 H   0  0  0  0  0  0  0  0  0  0  0  0
    0.4743    6.6984   -5.2549 H   0  0  0  0  0  0  0  0  0  0  0  0
    0.6143    8.3609   -7.0943 H   0  0  0  0  0  0  0  0  0  0  0  0
    1.9103   11.5305   -6.8777 H   0  0  0  0  0  0  0  0  0  0  0  0
    3.2290   10.6304   -7.6099 H   0  0  0  0  0  0  0  0  0  0  0  0
    1.5580   10.2798   -8.0772 H   0  0  0  0  0  0  0  0  0  0  0  0
    3.6221   10.5297   -4.9831 H   0  0  0  0  0  0  0  0  0  0  0  0
  1  2  2  0  0  0  0
  2  3  1  0  0  0  0
  3  4  2  0  0  0  0
  3  5  1  0  0  0  0
  5  6  2  0  0  0  0
  6  7  1  0  0  0  0
  7  8  2  0  0  0  0
  8  9  1  0  0  0  0
  9 10  2  0  0  0  0
 10 11  1  0  0  0  0
 11 12  2  0  0  0  0
 12 13  1  0  0  0  0
 13 14  3  0  0  0  0
 12 15  1  0  0  0  0
 15 16  3  0  0  0  0
  8 17  1  0  0  0  0
 17 18  1  0  0  0  0
 18 19  1  0  0  0  0
 19 20  2  0  0  0  0
 20 21  1  0  0  0  0
 21 22  1  0  0  0  0
 21 23  1  0  0  0  0
  1 24  1  0  0  0  0
 24 25  2  0  0  0  0
 25 26  1  0  0  0  0
 26 27  2  0  0  0  0
 27 28  1  0  0  0  0
 28 29  2  0  0  0  0
 29 30  1  0  0  0  0
 30 31  1  0  0  0  0
 29 32  1  0  0  0  0
 32 33  2  0  0  0  0
 25 34  1  0  0  0  0
 34 35  1  0  0  0  0
 35 36  1  0  0  0  0
 36 37  1  0  0  0  0
 37 38  1  0  0  0  0
 38 39  1  0  0  0  0
 39 40  2  0  0  0  0
 40 41  1  0  0  0  0
 41 42  1  0  0  0  0
 39 43  1  0  0  0  0
 43 44  1  0  0  0  0
 44 45  1  0  0  0  0
 45 46  1  0  0  0  0
 46 47  1  0  0  0  0
 47 48  1  0  0  0  0
 48 49  2  0  0  0  0
 49 50  1  0  0  0  0
 50 51  2  0  0  0  0
 51 52  1  0  0  0  0
 52 53  1  0  0  0  0
 51 54  1  0  0  0  0
 54 55  2  0  0  0  0
 47 56  2  0  0  0  0
 56 57  1  0  0  0  0
 57 58  1  0  0  0  0
 58 59  1  0  0  0  0
 59 60  1  0  0  0  0
 60 61  1  0  0  0  0
 61 62  1  0  0  0  0
 62 63  1  0  0  0  0
 63 64  1  0  0  0  0
 64 65  1  0  0  0  0
 65 66  1  0  0  0  0
 63 67  1  0  0  0  0
 67 68  1  0  0  0  0
 60 69  1  0  0  0  0
 69 70  1  0  0  0  0
 56 71  1  0  0  0  0
 71 72  2  0  0  0  0
 72 73  1  0  0  0  0
 73 74  2  0  0  0  0
 73 75  1  0  0  0  0
 75 76  2  0  0  0  0
 76 77  1  0  0  0  0
 77 78  2  0  0  0  0
 78 79  1  0  0  0  0
 78 80  1  0  0  0  0
 80 81  2  0  0  0  0
 81 82  1  0  0  0  0
 82 83  2  0  0  0  0
 83 84  1  0  0  0  0
 84 85  3  0  0  0  0
 83 86  1  0  0  0  0
 86 87  3  0  0  0  0
 11  2  1  0  0  0  0
 23 17  1  0  0  0  0
 66 24  1  0  0  0  0
 82 72  1  0  0  0  0
 10  5  1  0  0  0  0
 22 18  1  0  0  0  0
 33 26  1  0  0  0  0
 65 34  2  0  0  0  0
 81 75  1  0  0  0  0
 23  7  1  0  0  0  0
 64 36  2  0  0  0  0
 62 37  2  0  0  0  0
 42 38  2  0  0  0  0
 61 43  2  0  0  0  0
 59 44  2  0  0  0  0
 58 46  2  0  0  0  0
 55 48  1  0  0  0  0
  1 88  1  0  0  0  0
  6 89  1  0  0  0  0
  9 90  1  0  0  0  0
 17 91  1  0  0  0  0
 18 92  1  0  0  0  0
 19 93  1  0  0  0  0
 20 94  1  0  0  0  0
 21 95  1  0  0  0  0
 22 96  1  0  0  0  0
 22 97  1  0  0  0  0
 23 98  1  0  0  0  0
 27 99  1  0  0  0  0
 28100  1  0  0  0  0
 30101  1  0  0  0  0
 30102  1  0  0  0  0
 31103  1  0  0  0  0
 31104  1  0  0  0  0
 31105  1  0  0  0  0
 32106  1  0  0  0  0
 33107  1  0  0  0  0
 49108  1  0  0  0  0
 50109  1  0  0  0  0
 52110  1  0  0  0  0
 52111  1  0  0  0  0
 53112  1  0  0  0  0
 53113  1  0  0  0  0
 53114  1  0  0  0  0
 54115  1  0  0  0  0
 55116  1  0  0  0  0
 67117  1  0  0  0  0
 67118  1  0  0  0  0
 68119  1  0  0  0  0
 68120  1  0  0  0  0
 68121  1  0  0  0  0
 69122  1  0  0  0  0
 69123  1  0  0  0  0
 70124  1  0  0  0  0
 70125  1  0  0  0  0
 70126  1  0  0  0  0
 71127  1  0  0  0  0
 76128  1  0  0  0  0
 77129  1  0  0  0  0
 79130  1  0  0  0  0
 79131  1  0  0  0  0
 79132  1  0  0  0  0
 80133  1  0  0  0  0
M  END
