104

C         -5.15600        1.80190       -0.86470
C         -5.26290        0.87090       -1.86530
C         -4.20630       -0.03440       -2.32610
O         -3.07110       -0.13260       -1.88830
C         -4.77960       -0.81160       -3.43610
C         -4.14140       -1.79260       -4.19120
C         -4.93170       -2.34800       -5.16860
C         -6.26180       -1.95940       -5.37640
C         -6.90440       -0.99610       -4.63540
C         -6.11720       -0.41380       -3.63830
C         -6.44700        0.62810       -2.66700
C         -7.66980        1.23790       -2.54460
C         -8.00870        2.22850       -1.59960
N         -8.36970        3.03430       -0.86360
C         -8.78990        0.95610       -3.35490
N         -9.74410        0.78730       -3.97100
C         -6.44760       -2.92090       -6.52300
C         -6.41860       -2.34320       -7.95960
C         -5.57980       -1.09070       -7.90120
C         -4.31990       -1.45610       -7.70550
C         -4.28390       -2.96250       -7.62830
C         -5.41570       -3.31080       -8.60820
C         -4.96490       -3.35250       -6.29280
C         -4.09050        2.11630       -0.01160
C         -4.16780        3.12630        0.96120
C         -5.32560        4.04440        1.17980
C         -5.28750        5.21080        0.18840
C         -2.98790        3.21760        1.68860
C         -2.00050        2.29570        1.30240
S         -2.53040        1.29650        0.00080
C         -0.85010        2.43470        2.08620
C         -0.98520        3.43310        3.06100
S         -2.50640        4.25250        3.01950
C          0.17990        3.41080        3.83760
C          0.50930        4.06730        5.04520
N         -0.18380        4.98370        5.70170
S          0.58680        5.31960        7.08440
N          1.83780        4.30930        6.89930
C          1.69800        3.67470        5.74660
C          2.57400        2.74630        5.13980
C          3.82530        2.25270        5.53390
S          4.89850        2.33930        6.88600
C          6.02170        1.30940        6.02890
C          7.27350        0.79880        6.33900
C          7.78940       -0.00570        5.33280
S          6.70420       -0.07380        3.94510
C          5.56310        0.93170        4.75230
C          4.30600        1.46540        4.47730
N          3.38960        1.43560        3.45680
C          3.85290        1.14900        2.11600
C          4.82310        2.22510        1.62820
C          2.30160        2.19270        3.85520
C          1.03010        2.41610        3.27090
N          0.36760        1.82200        2.21550
C          0.62240        0.56320        1.54890
C          0.94480        0.74770        0.06560
C          9.06150       -0.60670        5.34200
C          9.59160       -1.54580        4.50330
C         11.06450       -1.65540        4.36640
O         11.90630       -1.17020        5.08580
C         11.27370       -2.43270        3.12110
C         12.45430       -2.72210        2.46950
C         12.39650       -3.44790        1.28420
Cl        13.84810       -3.82440        0.44450
C         11.16120       -3.86460        0.78180
Br        11.08380       -4.82930       -0.84260
C          9.97200       -3.58590        1.44470
C         10.03050       -2.86500        2.62410
C          8.98500       -2.45550        3.55970
C          7.75820       -3.05480        3.68570
C          6.92800       -2.87370        4.81180
N          6.26080       -2.79550        5.74250
C          7.23830       -3.98200        2.76190
N          6.76000       -4.71400        2.01780
H         -6.03350        2.40750       -0.68600
H         -3.11600       -2.06400       -3.99420
H         -7.92860       -0.71190       -4.80880
H         -7.22380       -3.67230       -6.39340
H         -7.39500       -2.24570       -8.42640
H         -5.98420       -0.09660       -7.94960
H         -3.46100       -0.82790       -7.55710
H         -3.31630       -3.42880       -7.79460
H         -5.17870       -3.04430       -9.63700
H         -5.72570       -4.35370       -8.56030
H         -4.77200       -4.38700       -6.01540
H         -6.27380        3.51420        1.07890
H         -5.26100        4.43830        2.19600
H         -6.12780        5.87480        0.36910
H         -4.36460        5.77460        0.30300
H         -5.34840        4.84840       -0.83520
H          7.79080        0.97230        7.26460
H          4.35270        0.17550        2.13210
H          3.01100        1.10750        1.43620
H          5.13540        1.99940        0.61240
H          5.70730        2.26950        2.25830
H          4.34000        3.20010        1.63780
H         -0.28600       -0.04370        1.63000
H          1.41700        0.03770        2.08030
H          1.30410       -0.18940       -0.34990
H          1.69880        1.51660       -0.09110
H          0.05090        1.03900       -0.47830
H          9.75870       -0.19600        6.06640
H         13.39960       -2.39300        2.87090
H          9.03680       -3.92280        1.02630
