116

C          6.45200        2.99950        2.87200
C          6.04360        4.29190        2.65540
C          4.76330        4.71250        2.08150
O          3.87610        4.00110        1.63760
C          4.73680        6.18180        2.15450
C          3.70070        7.02190        1.75270
C          3.95130        8.35650        1.96290
C          5.14550        8.82150        2.52910
C          6.17830        8.00330        2.92210
C          5.94410        6.63990        2.71890
C          6.79000        5.48280        3.01110
C          8.06870        5.54360        3.50510
C          8.90990        4.43980        3.75530
N          9.66100        3.59890        3.97920
C          8.74770        6.73880        3.82190
N          9.36570        7.66490        4.10330
C          4.70960       10.26420        2.46070
C          4.23370       10.90420        3.78210
C          3.43650       12.10810        3.33460
C          2.30580       11.66700        2.79840
C          2.32010       10.15730        2.87390
C          3.08920        9.96630        4.18750
C          3.37840        9.74520        1.82850
C          5.82690        1.78070        2.58390
C          6.38880        0.53510        2.91310
C          7.71880        0.31760        3.55720
C          8.83930        0.35200        2.51410
C          5.57120       -0.51200        2.50830
S          5.72900       -2.25510        2.64160
C          4.20550       -2.42260        1.84150
C          3.36640       -3.43550        1.35860
C          3.55500       -4.83790        1.30910
C          2.58980       -5.63300        0.59750
N          2.86540       -6.92090        0.53730
Se         4.37820       -7.21560        1.39400
N          4.57330       -5.51200        1.80600
C          1.43420       -4.99410        0.08610
C          0.29890       -5.53340       -0.53350
S         -0.29180       -7.06300       -1.08000
C         -1.78460       -6.27610       -1.56460
C         -2.94040       -6.75310       -2.16440
C         -3.14930       -8.19670       -2.48510
C         -3.93350       -8.89310       -1.36920
C         -3.87710       -5.72120       -2.36700
S         -3.28340       -4.16130       -1.78960
C         -1.80360       -4.89440       -1.30060
C         -0.60490       -4.47970       -0.71690
N         -0.06000       -3.30600       -0.26210
C          1.20170       -3.59450        0.22750
C          2.24200       -2.79030        0.76290
N          2.43210       -1.42690        0.84190
C          3.61000       -1.20140        1.50070
C          4.38780       -0.10150        1.87170
S          4.26910        1.61440        1.77300
C          1.79390       -0.33930        0.13560
C          0.95090        0.53450        1.06340
C         -0.96900       -2.23260        0.08180
C         -1.49870       -2.40660        1.50380
C         -5.11470       -5.93070       -2.97780
C         -6.13610       -5.05660       -3.27290
C         -6.15700       -3.62420       -2.97540
O         -5.29890       -2.96710       -2.40740
C         -7.43190       -3.11150       -3.50310
C         -7.91410       -1.83540       -3.48390
C         -9.17170       -1.56690       -4.06890
C         -9.71740       -0.26740       -4.08250
C        -10.93350       -0.02020       -4.65660
C        -11.63790       -1.08380       -5.23600
F        -12.83250       -0.82090       -5.79720
C        -11.15480       -2.36290       -5.24870
C         -9.90380       -2.63540       -4.66240
C         -9.37760       -3.94920       -4.66290
C         -8.15680       -4.18600       -4.09090
C         -7.36770       -5.40880       -3.94810
C         -7.75570       -6.65000       -4.38920
C         -7.01440       -7.84200       -4.26270
N         -6.47560       -8.85570       -4.20030
C         -8.97790       -6.90870       -5.04310
N         -9.95360       -7.19010       -5.57970
H          7.41140        2.88150        3.35660
H          2.79800        6.62030        1.31950
H          7.09070        8.37940        3.35340
H          5.34400       10.92420        1.87230
H          5.01960       11.08090        4.51120
H          3.78990       13.12020        3.40170
H          1.52620       12.23670        2.32770
H          1.36230        9.65310        2.77590
H          3.40080        8.94030        4.37470
H          2.53520       10.34080        5.04670
H          3.12410       10.05990        0.81810
H          7.91340        1.07030        4.32230
H          7.70810       -0.66330        4.03670
H          9.79570        0.17190        2.99600
H          8.88010        1.32210        2.02470
H          8.67660       -0.41380        1.75940
H         -2.16970       -8.66940       -2.58050
H         -3.68110       -8.31780       -3.42990
H         -4.91580       -8.44240       -1.24930
H         -4.06500       -9.94320       -1.61310
H         -3.39760       -8.81670       -0.42590
H          1.21620       -0.74870       -0.69430
H          2.58820        0.28160       -0.29310
H          0.39310        1.26030        0.47850
H          1.59790        1.07720        1.74700
H          0.25550       -0.05970        1.65030
H         -1.79860       -2.28300       -0.62800
H         -0.49410       -1.26380       -0.02240
H         -2.02540       -3.35330        1.59760
H         -2.18950       -1.60240        1.74090
H         -0.68080       -2.39490        2.22180
H         -5.27660       -6.95870       -3.27110
H         -7.34210       -1.03970       -3.03040
H         -9.15550        0.53570       -3.62990
H        -11.36490        0.96810       -4.67640
H        -11.72480       -3.15760       -5.70410
H         -9.95850       -4.73330       -5.12060
