139

C         -5.16780        4.74410        1.92320
C         -4.94930        6.07680        2.09550
C         -3.63820        6.73290        1.85870
O         -2.56580        6.19890        1.67460
C         -3.93570        8.17220        1.74390
C         -3.02910        9.18630        1.44380
C         -3.59550       10.43470        1.35390
C         -4.96540       10.66150        1.54650
C         -5.87050        9.67180        1.84700
C         -5.31460        8.39260        1.94100
C         -5.95600        7.11170        2.21410
C         -7.25630        6.91600        2.59920
C         -7.79070        5.65890        2.95250
N         -8.27670        4.66960        3.27430
C         -8.21260        7.94300        2.73300
N         -9.03690        8.73350        2.85030
C         -4.83980       12.13930        1.27390
C         -5.29810       12.65560       -0.11280
C         -5.15170       11.50010       -1.07160
C         -3.85540       11.28530       -1.25200
C         -3.10160       12.29210       -0.41830
C         -4.06490       13.48690       -0.50100
C         -3.31380       11.88690        1.06180
C         -4.16500        3.73720        1.90990
C         -3.10010        3.50760        2.76400
C         -2.82630        4.25990        4.02660
C         -1.39840        4.79980        4.09090
C         -2.38700        2.35860        2.38210
S         -0.97140        1.56790        3.04010
C         -1.04370        0.41620        1.75610
C         -0.33660       -0.70330        1.29350
C          0.77130       -1.36280        1.87930
N          1.26300       -0.98200        3.05490
C          2.29150       -1.64170        3.56600
C          2.62090       -1.25700        4.91510
S          2.05970        0.30490        5.43500
C          2.64620        0.04580        7.03950
C          2.49560        1.06590        8.11450
C          1.02360        1.36430        8.40000
C          3.20770       -1.19700        7.12990
C          3.20450       -1.94840        5.94220
F          3.73460       -1.67150        8.27450
C          2.93670       -2.66290        2.80520
C          4.21350       -3.26150        3.10060
C          5.29560       -2.80250        3.80230
C          6.38320       -3.68690        3.70440
F          7.55810       -3.44500        4.31610
C          6.16410       -4.80590        2.95060
C          7.11440       -5.91440        2.65550
C          7.36840       -6.04920        1.15410
S          4.56090       -4.77020        2.30780
N          2.38590       -3.10320        1.68370
C          1.29380       -2.50200        1.22090
C          0.69360       -2.90190        0.00200
C          1.09190       -3.91010       -0.88520
S          2.29720       -5.14210       -1.00180
C          1.70410       -5.51930       -2.61080
C          2.11500       -6.43590       -3.56710
C          3.27770       -7.35020       -3.35970
C          4.56570       -6.72290       -3.90020
C          1.34650       -6.33280       -4.74280
S          0.09330       -5.09560       -4.60950
C          0.61780       -4.71990       -3.01260
C          0.27030       -3.80830       -2.01350
N         -0.64300       -2.80220       -1.83810
C         -1.40040       -2.32950       -2.97460
C         -0.82490       -1.02480       -3.52090
C         -0.40160       -2.21970       -0.60820
C         -0.98380       -1.13940        0.10120
N         -2.07610       -0.31740       -0.12520
C         -2.10950        0.61700        0.87530
C         -2.88960        1.71850        1.24250
S         -4.31400        2.49730        0.66560
C         -3.24560       -0.51530       -0.95150
C         -3.99300       -1.78920       -0.56440
C          1.58530       -7.10920       -5.87760
C          0.97760       -7.11850       -7.11280
C         -0.15020       -6.28100       -7.52470
O         -0.73980       -5.45070       -6.85510
C         -0.44200       -6.64740       -8.92350
C         -1.40880       -6.15880       -9.78570
Cl        -2.50440       -4.93550       -9.28620
C         -1.48080       -6.67770      -11.07690
C         -0.59750       -7.66350      -11.47780
C          0.37780       -8.16270      -10.62120
C          0.45470       -7.65050       -9.33800
C          1.35470       -7.96210       -8.22440
C          2.36810       -8.88690       -8.26930
C          3.25030       -9.19710       -7.21390
N          4.00890       -9.50960       -6.40880
C          2.68190       -9.67010       -9.39960
N          2.99670      -10.33950      -10.27780
H         -6.17260        4.40420        1.69710
H         -1.98240        8.96860        1.29910
H         -6.92290        9.85770        1.98450
H         -5.14040       12.80160        2.08310
H         -6.26140       13.15850       -0.11100
H         -5.97960       10.93870       -1.46360
H         -3.38380       10.50810       -1.82440
H         -2.06490       12.46430       -0.69530
H         -3.83480       14.27990        0.20910
H         -4.13590       13.90150       -1.50540
H         -2.61620       12.38450        1.73260
H         -2.98430        3.57130        4.86330
H         -3.53830        5.08010        4.12470
H         -1.20690        5.44120        3.23580
H         -1.26570        5.37740        5.00230
H         -0.67840        3.98600        4.08700
H          2.99570        1.98950        7.81100
H          2.98370        0.69200        9.01700
H          0.53490        1.73300        7.50100
H          0.93840        2.11670        9.17960
H          0.51090        0.46360        8.72900
H          3.59030       -2.94820        5.87390
H          5.33580       -1.87400        4.34010
H          8.05200       -5.71410        3.17830
H          6.70500       -6.85470        3.03500
H          8.06270       -6.86320        0.96320
H          6.43590       -6.25330        0.63290
H          7.79330       -5.13020        0.75730
H          3.11320       -8.31340       -3.84420
H          3.38840       -7.52020       -2.28690
H          5.40160       -7.39510       -3.72960
H          4.76590       -5.77930       -3.39810
H          4.48520       -6.53940       -4.96900
H         -1.32750       -3.10320       -3.74260
H         -2.45420       -2.23060       -2.71660
H          0.18960       -1.18920       -3.87640
H         -1.42810       -0.67260       -4.35300
H         -0.79480       -0.25460       -2.75310
H         -3.89470        0.34730       -0.78170
H         -2.97630       -0.51040       -2.00760
H         -3.35230       -2.66410       -0.65000
H         -4.85860       -1.92120       -1.20780
H         -4.33520       -1.71970        0.46550
H          2.40020       -7.80870       -5.75140
H         -2.23000       -6.30320      -11.75620
H         -0.66600       -8.05590      -12.48080
H          1.04970       -8.93080      -10.96530
