
  xtb     02022223353D
 energy: -208.461470282516 gnorm: 0.000925400334 xtb: 6.4.1 (unknown)
110124  0     0  0            999 V2000
   -5.2528    3.8582    0.6668 C   0  0  0  0  0  0  0  0  0  0  0  0
   -6.0829    3.0741   -0.0927 C   0  0  0  0  0  0  0  0  0  0  0  0
   -5.6710    2.0258   -1.0315 C   0  0  0  0  0  0  0  0  0  0  0  0
   -4.5444    1.5950   -1.2169 O   0  0  0  0  0  0  0  0  0  0  0  0
   -6.8899    1.5981   -1.7369 C   0  0  0  0  0  0  0  0  0  0  0  0
   -6.9808    0.6581   -2.7606 C   0  0  0  0  0  0  0  0  0  0  0  0
   -8.2547    0.4805   -3.2446 C   0  0  0  0  0  0  0  0  0  0  0  0
   -9.3567    1.1917   -2.7514 C   0  0  0  0  0  0  0  0  0  0  0  0
   -9.2804    2.1210   -1.7409 C   0  0  0  0  0  0  0  0  0  0  0  0
   -7.9945    2.3111   -1.2281 C   0  0  0  0  0  0  0  0  0  0  0  0
   -7.5259    3.2004   -0.1666 C   0  0  0  0  0  0  0  0  0  0  0  0
   -8.3308    3.9641    0.6398 C   0  0  0  0  0  0  0  0  0  0  0  0
   -9.7367    4.0233    0.5396 C   0  0  0  0  0  0  0  0  0  0  0  0
  -10.8809    4.1187    0.5246 N   0  0  0  0  0  0  0  0  0  0  0  0
   -7.8918    4.7745    1.7074 C   0  0  0  0  0  0  0  0  0  0  0  0
   -7.6196    5.4484    2.5977 N   0  0  0  0  0  0  0  0  0  0  0  0
  -10.3173    0.5163   -3.6975 C   0  0  0  0  0  0  0  0  0  0  0  0
  -11.2264   -0.6002   -3.1271 C   0  0  0  0  0  0  0  0  0  0  0  0
  -10.4959   -1.1838   -1.9431 C   0  0  0  0  0  0  0  0  0  0  0  0
   -9.4526   -1.8605   -2.4046 C   0  0  0  0  0  0  0  0  0  0  0  0
   -9.4590   -1.7471   -3.9093 C   0  0  0  0  0  0  0  0  0  0  0  0
  -10.9729   -1.6999   -4.1708 C   0  0  0  0  0  0  0  0  0  0  0  0
   -9.0901   -0.2801   -4.2434 C   0  0  0  0  0  0  0  0  0  0  0  0
   -3.8624    3.8247    0.8356 C   0  0  0  0  0  0  0  0  0  0  0  0
   -3.1669    4.7440    1.6384 C   0  0  0  0  0  0  0  0  0  0  0  0
   -3.7721    5.8619    2.4229 C   0  0  0  0  0  0  0  0  0  0  0  0
   -4.2763    5.3658    3.7810 C   0  0  0  0  0  0  0  0  0  0  0  0
   -1.8069    4.4608    1.6688 C   0  0  0  0  0  0  0  0  0  0  0  0
   -0.4535    5.2426    2.4673 S   0  0  0  0  0  0  0  0  0  0  0  0
    0.5981    4.0569    1.7771 C   0  0  0  0  0  0  0  0  0  0  0  0
    1.9637    3.7393    1.7402 C   0  0  0  0  0  0  0  0  0  0  0  0
    3.0883    4.4323    2.2506 C   0  0  0  0  0  0  0  0  0  0  0  0
    4.4014    3.9186    1.9601 C   0  0  0  0  0  0  0  0  0  0  0  0
    5.3988    4.6517    2.4135 N   0  0  0  0  0  0  0  0  0  0  0  0
    4.7340    6.0514    3.2549 Se  0  0  0  0  0  2  0  0  0  0  0  0
    3.0722    5.5581    2.9365 N   0  0  0  0  0  0  0  0  0  0  0  0
    4.5046    2.6697    1.2999 C   0  0  0  0  0  0  0  0  0  0  0  0
    5.6176    1.8481    1.0769 C   0  0  0  0  0  0  0  0  0  0  0  0
    7.3248    1.8721    1.3309 S   0  0  0  0  0  0  0  0  0  0  0  0
    7.4068    0.2212    0.7584 C   0  0  0  0  0  0  0  0  0  0  0  0
    8.4706   -0.6689    0.6097 C   0  0  0  0  0  0  0  0  0  0  0  0
    9.8727   -0.3592    1.0089 C   0  0  0  0  0  0  0  0  0  0  0  0
   10.1536   -0.8965    2.4149 C   0  0  0  0  0  0  0  0  0  0  0  0
    8.0346   -1.9111    0.1534 C   0  0  0  0  0  0  0  0  0  0  0  0
    6.2937   -1.9344   -0.1386 S   0  0  0  0  0  0  0  0  0  0  0  0
    6.1564   -0.2989    0.3865 C   0  0  0  0  0  0  0  0  0  0  0  0
    5.1364    0.6368    0.5587 C   0  0  0  0  0  0  0  0  0  0  0  0
    3.7739    0.6965    0.4299 N   0  0  0  0  0  0  0  0  0  0  0  0
    3.3624    1.9416    0.8596 C   0  0  0  0  0  0  0  0  0  0  0  0
    2.0871    2.5553    0.9570 C   0  0  0  0  0  0  0  0  0  0  0  0
    0.8349    2.2006    0.4891 N   0  0  0  0  0  0  0  0  0  0  0  0
   -0.0630    3.1090    0.9869 C   0  0  0  0  0  0  0  0  0  0  0  0
   -1.4396    3.3381    0.9091 C   0  0  0  0  0  0  0  0  0  0  0  0
   -2.7901    2.6238    0.1133 S   0  0  0  0  0  0  0  0  0  0  0  0
    0.4667    1.4744   -0.7078 C   0  0  0  0  0  0  0  0  0  0  0  0
    0.4550    2.4012   -1.9231 C   0  0  0  0  0  0  0  0  0  0  0  0
    3.0173   -0.5169    0.2152 C   0  0  0  0  0  0  0  0  0  0  0  0
    3.0567   -0.9645   -1.2460 C   0  0  0  0  0  0  0  0  0  0  0  0
    8.8365   -3.0291   -0.1342 C   0  0  0  0  0  0  0  0  0  0  0  0
    8.4418   -4.3215   -0.3272 C   0  0  0  0  0  0  0  0  0  0  0  0
    9.3045   -5.2768   -1.0544 C   0  0  0  0  0  0  0  0  0  0  0  0
   10.4713   -5.1384   -1.3339 O   0  0  0  0  0  0  0  0  0  0  0  0
    8.4010   -6.3985   -1.4241 C   0  0  0  0  0  0  0  0  0  0  0  0
    8.6485   -7.4816   -2.2492 C   0  0  0  0  0  0  0  0  0  0  0  0
   10.2019   -7.7725   -2.8920 Cl  0  0  0  0  0  0  0  0  0  0  0  0
    7.5822   -8.3410   -2.5551 C   0  0  0  0  0  0  0  0  0  0  0  0
    7.8487   -9.7057   -3.5503 Cl  0  0  0  0  0  0  0  0  0  0  0  0
    6.2995   -8.0670   -2.0821 C   0  0  0  0  0  0  0  0  0  0  0  0
    4.9996   -9.0788   -2.5427 Cl  0  0  0  0  0  0  0  0  0  0  0  0
    6.0550   -6.9685   -1.2434 C   0  0  0  0  0  0  0  0  0  0  0  0
    4.4374   -6.5939   -0.8140 Cl  0  0  0  0  0  0  0  0  0  0  0  0
    7.1242   -6.1689   -0.8706 C   0  0  0  0  0  0  0  0  0  0  0  0
    7.2164   -5.0110    0.0167 C   0  0  0  0  0  0  0  0  0  0  0  0
    6.5275   -4.8187    1.1852 C   0  0  0  0  0  0  0  0  0  0  0  0
    6.8935   -3.8141    2.1094 C   0  0  0  0  0  0  0  0  0  0  0  0
    7.1832   -3.0341    2.8999 N   0  0  0  0  0  0  0  0  0  0  0  0
    5.5308   -5.6602    1.7196 C   0  0  0  0  0  0  0  0  0  0  0  0
    4.7583   -6.3094    2.2663 N   0  0  0  0  0  0  0  0  0  0  0  0
   -5.7316    4.6474    1.2309 H   0  0  0  0  0  0  0  0  0  0  0  0
   -6.1045    0.1386   -3.1159 H   0  0  0  0  0  0  0  0  0  0  0  0
  -10.1377    2.6631   -1.3784 H   0  0  0  0  0  0  0  0  0  0  0  0
  -10.8468    1.1718   -4.3862 H   0  0  0  0  0  0  0  0  0  0  0  0
  -12.2563   -0.2995   -2.9552 H   0  0  0  0  0  0  0  0  0  0  0  0
  -10.7719   -1.0023   -0.9208 H   0  0  0  0  0  0  0  0  0  0  0  0
   -8.6822   -2.3576   -1.8447 H   0  0  0  0  0  0  0  0  0  0  0  0
   -8.8805   -2.4921   -4.4495 H   0  0  0  0  0  0  0  0  0  0  0  0
  -11.2288   -1.4013   -5.1866 H   0  0  0  0  0  0  0  0  0  0  0  0
  -11.4720   -2.6362   -3.9258 H   0  0  0  0  0  0  0  0  0  0  0  0
   -8.8210   -0.1484   -5.2899 H   0  0  0  0  0  0  0  0  0  0  0  0
   -4.5954    6.3246    1.8770 H   0  0  0  0  0  0  0  0  0  0  0  0
   -3.0009    6.6181    2.5842 H   0  0  0  0  0  0  0  0  0  0  0  0
   -4.6704    6.2005    4.3533 H   0  0  0  0  0  0  0  0  0  0  0  0
   -5.0705    4.6344    3.6542 H   0  0  0  0  0  0  0  0  0  0  0  0
   -3.4642    4.9086    4.3414 H   0  0  0  0  0  0  0  0  0  0  0  0
   10.0075    0.7240    0.9996 H   0  0  0  0  0  0  0  0  0  0  0  0
   10.5742   -0.8050    0.3011 H   0  0  0  0  0  0  0  0  0  0  0  0
   11.1758   -0.6673    2.7033 H   0  0  0  0  0  0  0  0  0  0  0  0
    9.4768   -0.4420    3.1335 H   0  0  0  0  0  0  0  0  0  0  0  0
   10.0101   -1.9738    2.4469 H   0  0  0  0  0  0  0  0  0  0  0  0
    1.1563    0.6590   -0.8880 H   0  0  0  0  0  0  0  0  0  0  0  0
   -0.5355    1.0662   -0.5473 H   0  0  0  0  0  0  0  0  0  0  0  0
   -0.2650    3.2038   -1.7855 H   0  0  0  0  0  0  0  0  0  0  0  0
    0.1766    1.8380   -2.8093 H   0  0  0  0  0  0  0  0  0  0  0  0
    1.4400    2.8385   -2.0773 H   0  0  0  0  0  0  0  0  0  0  0  0
    3.4697   -1.3019    0.8322 H   0  0  0  0  0  0  0  0  0  0  0  0
    1.9981   -0.3680    0.5737 H   0  0  0  0  0  0  0  0  0  0  0  0
    2.3932   -1.8128   -1.3885 H   0  0  0  0  0  0  0  0  0  0  0  0
    2.7584   -0.1642   -1.9198 H   0  0  0  0  0  0  0  0  0  0  0  0
    4.0643   -1.2697   -1.5154 H   0  0  0  0  0  0  0  0  0  0  0  0
    9.8889   -2.8327   -0.3112 H   0  0  0  0  0  0  0  0  0  0  0  0
  1  2  2  0  0  0  0
  2  3  1  0  0  0  0
  3  4  2  0  0  0  0
  3  5  1  0  0  0  0
  5  6  2  0  0  0  0
  6  7  1  0  0  0  0
  7  8  2  0  0  0  0
  8  9  1  0  0  0  0
  9 10  2  0  0  0  0
 10 11  1  0  0  0  0
 11 12  2  0  0  0  0
 12 13  1  0  0  0  0
 13 14  3  0  0  0  0
 12 15  1  0  0  0  0
 15 16  3  0  0  0  0
  8 17  1  0  0  0  0
 17 18  1  0  0  0  0
 18 19  1  0  0  0  0
 19 20  2  0  0  0  0
 20 21  1  0  0  0  0
 21 22  1  0  0  0  0
 21 23  1  0  0  0  0
  1 24  1  0  0  0  0
 24 25  2  0  0  0  0
 25 26  1  0  0  0  0
 26 27  1  0  0  0  0
 25 28  1  0  0  0  0
 28 29  1  0  0  0  0
 29 30  1  0  0  0  0
 30 31  1  0  0  0  0
 31 32  1  0  0  0  0
 32 33  1  0  0  0  0
 33 34  2  0  0  0  0
 34 35  1  0  0  0  0
 35 36  1  0  0  0  0
 33 37  1  0  0  0  0
 37 38  1  0  0  0  0
 38 39  1  0  0  0  0
 39 40  1  0  0  0  0
 40 41  1  0  0  0  0
 41 42  1  0  0  0  0
 42 43  1  0  0  0  0
 41 44  2  0  0  0  0
 44 45  1  0  0  0  0
 45 46  1  0  0  0  0
 46 47  1  0  0  0  0
 47 48  1  0  0  0  0
 48 49  1  0  0  0  0
 49 50  1  0  0  0  0
 50 51  1  0  0  0  0
 51 52  1  0  0  0  0
 52 53  1  0  0  0  0
 53 54  1  0  0  0  0
 51 55  1  0  0  0  0
 55 56  1  0  0  0  0
 48 57  1  0  0  0  0
 57 58  1  0  0  0  0
 44 59  1  0  0  0  0
 59 60  2  0  0  0  0
 60 61  1  0  0  0  0
 61 62  2  0  0  0  0
 61 63  1  0  0  0  0
 63 64  2  0  0  0  0
 64 65  1  0  0  0  0
 64 66  1  0  0  0  0
 66 67  1  0  0  0  0
 66 68  2  0  0  0  0
 68 69  1  0  0  0  0
 68 70  1  0  0  0  0
 70 71  1  0  0  0  0
 70 72  2  0  0  0  0
 72 73  1  0  0  0  0
 73 74  2  0  0  0  0
 74 75  1  0  0  0  0
 75 76  3  0  0  0  0
 74 77  1  0  0  0  0
 77 78  3  0  0  0  0
 11  2  1  0  0  0  0
 23 17  1  0  0  0  0
 54 24  1  0  0  0  0
 73 60  1  0  0  0  0
 10  5  1  0  0  0  0
 22 18  1  0  0  0  0
 53 28  2  0  0  0  0
 72 63  1  0  0  0  0
 23  7  1  0  0  0  0
 52 30  2  0  0  0  0
 50 31  2  0  0  0  0
 36 32  2  0  0  0  0
 49 37  2  0  0  0  0
 47 38  2  0  0  0  0
 46 40  2  0  0  0  0
  1 79  1  0  0  0  0
  6 80  1  0  0  0  0
  9 81  1  0  0  0  0
 17 82  1  0  0  0  0
 18 83  1  0  0  0  0
 19 84  1  0  0  0  0
 20 85  1  0  0  0  0
 21 86  1  0  0  0  0
 22 87  1  0  0  0  0
 22 88  1  0  0  0  0
 23 89  1  0  0  0  0
 26 90  1  0  0  0  0
 26 91  1  0  0  0  0
 27 92  1  0  0  0  0
 27 93  1  0  0  0  0
 27 94  1  0  0  0  0
 42 95  1  0  0  0  0
 42 96  1  0  0  0  0
 43 97  1  0  0  0  0
 43 98  1  0  0  0  0
 43 99  1  0  0  0  0
 55100  1  0  0  0  0
 55101  1  0  0  0  0
 56102  1  0  0  0  0
 56103  1  0  0  0  0
 56104  1  0  0  0  0
 57105  1  0  0  0  0
 57106  1  0  0  0  0
 58107  1  0  0  0  0
 58108  1  0  0  0  0
 58109  1  0  0  0  0
 59110  1  0  0  0  0
M  END
