
  xtb     02022201473D
 energy: -243.161004857100 gnorm: 0.000379772464 xtb: 6.4.1 (unknown)
136152  0     0  0            999 V2000
   -2.6343   -3.4541   -6.1641 C   0  0  0  0  0  0  0  0  0  0  0  0
   -3.1774   -4.6344   -5.7643 C   0  0  0  0  0  0  0  0  0  0  0  0
   -4.1389   -5.3498   -6.6450 C   0  0  0  0  0  0  0  0  0  0  0  0
   -4.3783   -5.0988   -7.8053 O   0  0  0  0  0  0  0  0  0  0  0  0
   -4.7569   -6.3838   -5.7935 C   0  0  0  0  0  0  0  0  0  0  0  0
   -5.7707   -7.2718   -6.1464 C   0  0  0  0  0  0  0  0  0  0  0  0
   -6.1335   -8.1367   -5.1422 C   0  0  0  0  0  0  0  0  0  0  0  0
   -5.5497   -8.1086   -3.8680 C   0  0  0  0  0  0  0  0  0  0  0  0
   -4.5503   -7.2386   -3.5040 C   0  0  0  0  0  0  0  0  0  0  0  0
   -4.1491   -6.3672   -4.5197 C   0  0  0  0  0  0  0  0  0  0  0  0
   -3.0628   -5.3920   -4.5360 C   0  0  0  0  0  0  0  0  0  0  0  0
   -1.9833   -5.4045   -3.6902 C   0  0  0  0  0  0  0  0  0  0  0  0
   -1.8930   -6.1835   -2.5205 C   0  0  0  0  0  0  0  0  0  0  0  0
   -1.7672   -6.7588   -1.5345 N   0  0  0  0  0  0  0  0  0  0  0  0
   -0.7859   -4.7003   -3.9347 C   0  0  0  0  0  0  0  0  0  0  0  0
    0.2332   -4.2017   -4.1137 N   0  0  0  0  0  0  0  0  0  0  0  0
   -6.3843   -9.2623   -3.3724 C   0  0  0  0  0  0  0  0  0  0  0  0
   -5.6961  -10.6458   -3.2667 C   0  0  0  0  0  0  0  0  0  0  0  0
   -4.5732  -10.6433   -4.2746 C   0  0  0  0  0  0  0  0  0  0  0  0
   -5.1160  -10.6756   -5.4844 C   0  0  0  0  0  0  0  0  0  0  0  0
   -6.6153  -10.7008   -5.3163 C   0  0  0  0  0  0  0  0  0  0  0  0
   -6.7273  -11.5073   -4.0127 C   0  0  0  0  0  0  0  0  0  0  0  0
   -7.0268   -9.3009   -4.7948 C   0  0  0  0  0  0  0  0  0  0  0  0
   -1.9803   -2.4763   -5.3746 C   0  0  0  0  0  0  0  0  0  0  0  0
   -0.9856   -1.6047   -5.7872 C   0  0  0  0  0  0  0  0  0  0  0  0
   -0.4412   -1.5036   -7.1737 C   0  0  0  0  0  0  0  0  0  0  0  0
   -1.1189   -0.3547   -7.9252 C   0  0  0  0  0  0  0  0  0  0  0  0
   -0.5162   -0.8283   -4.7208 C   0  0  0  0  0  0  0  0  0  0  0  0
    0.7957    0.3165   -4.5881 S   0  0  0  0  0  0  0  0  0  0  0  0
    0.4671    0.4622   -2.9004 C   0  0  0  0  0  0  0  0  0  0  0  0
    1.0122    1.0878   -1.7655 C   0  0  0  0  0  0  0  0  0  0  0  0
    2.2320    1.7904   -1.5873 C   0  0  0  0  0  0  0  0  0  0  0  0
    3.0666    1.9705   -2.6084 N   0  0  0  0  0  0  0  0  0  0  0  0
    4.2398    2.5417   -2.3823 C   0  0  0  0  0  0  0  0  0  0  0  0
    5.1395    2.5215   -3.5156 C   0  0  0  0  0  0  0  0  0  0  0  0
    6.8666    2.3833   -3.3656 S   0  0  0  0  0  0  0  0  0  0  0  0
    7.0717    2.2656   -5.0792 C   0  0  0  0  0  0  0  0  0  0  0  0
    8.4114    2.0883   -5.7047 C   0  0  0  0  0  0  0  0  0  0  0  0
    8.9620    0.6837   -5.4501 C   0  0  0  0  0  0  0  0  0  0  0  0
    5.8523    2.3231   -5.6911 C   0  0  0  0  0  0  0  0  0  0  0  0
    4.7522    2.4534   -4.8265 C   0  0  0  0  0  0  0  0  0  0  0  0
    5.7149    2.2655   -7.0282 F   0  0  0  0  0  0  0  0  0  0  0  0
    4.5533    3.0494   -1.0875 C   0  0  0  0  0  0  0  0  0  0  0  0
    5.7022    3.8685   -0.7834 C   0  0  0  0  0  0  0  0  0  0  0  0
    6.3581    4.7997   -1.5415 C   0  0  0  0  0  0  0  0  0  0  0  0
    7.3834    5.4256   -0.8126 C   0  0  0  0  0  0  0  0  0  0  0  0
    8.1714    6.3729   -1.3559 F   0  0  0  0  0  0  0  0  0  0  0  0
    7.5213    5.0082    0.4810 C   0  0  0  0  0  0  0  0  0  0  0  0
    8.5328    5.4451    1.4836 C   0  0  0  0  0  0  0  0  0  0  0  0
    9.4814    4.3031    1.8511 C   0  0  0  0  0  0  0  0  0  0  0  0
    6.3320    3.8056    0.8338 S   0  0  0  0  0  0  0  0  0  0  0  0
    3.7577    2.8050   -0.0579 N   0  0  0  0  0  0  0  0  0  0  0  0
    2.6141    2.1580   -0.2688 C   0  0  0  0  0  0  0  0  0  0  0  0
    1.7038    1.9105    0.7908 C   0  0  0  0  0  0  0  0  0  0  0  0
    1.7317    2.2853    2.1439 C   0  0  0  0  0  0  0  0  0  0  0  0
    2.8092    3.0462    3.2582 S   0  0  0  0  0  0  0  0  0  0  0  0
    1.5680    2.9243    4.4912 C   0  0  0  0  0  0  0  0  0  0  0  0
    1.5265    3.3275    5.8189 C   0  0  0  0  0  0  0  0  0  0  0  0
    2.6976    3.9412    6.5137 C   0  0  0  0  0  0  0  0  0  0  0  0
    3.4979    2.8748    7.2667 C   0  0  0  0  0  0  0  0  0  0  0  0
    0.2845    3.0287    6.4058 C   0  0  0  0  0  0  0  0  0  0  0  0
   -0.8149    2.2361    5.2746 S   0  0  0  0  0  0  0  0  0  0  0  0
    0.3825    2.3173    4.0388 C   0  0  0  0  0  0  0  0  0  0  0  0
    0.4878    1.9465    2.6966 C   0  0  0  0  0  0  0  0  0  0  0  0
   -0.2981    1.3424    1.7447 N   0  0  0  0  0  0  0  0  0  0  0  0
   -1.7424    1.3706    1.8508 C   0  0  0  0  0  0  0  0  0  0  0  0
   -2.2620    2.8058    1.9271 C   0  0  0  0  0  0  0  0  0  0  0  0
    0.4424    1.2899    0.5831 C   0  0  0  0  0  0  0  0  0  0  0  0
    0.1786    0.7217   -0.6777 C   0  0  0  0  0  0  0  0  0  0  0  0
   -0.8019   -0.1522   -1.1130 N   0  0  0  0  0  0  0  0  0  0  0  0
   -0.6195   -0.3084   -2.4666 C   0  0  0  0  0  0  0  0  0  0  0  0
   -1.1727   -1.0585   -3.5058 C   0  0  0  0  0  0  0  0  0  0  0  0
   -2.3996   -2.2578   -3.6742 S   0  0  0  0  0  0  0  0  0  0  0  0
   -1.3963   -1.2295   -0.3449 C   0  0  0  0  0  0  0  0  0  0  0  0
   -0.5601   -2.5052   -0.4467 C   0  0  0  0  0  0  0  0  0  0  0  0
   -0.0269    3.3470    7.7315 C   0  0  0  0  0  0  0  0  0  0  0  0
   -1.1701    3.1519    8.4643 C   0  0  0  0  0  0  0  0  0  0  0  0
   -2.4162    2.5112    8.0107 C   0  0  0  0  0  0  0  0  0  0  0  0
   -2.6567    2.0454    6.9126 O   0  0  0  0  0  0  0  0  0  0  0  0
   -3.3235    2.5554    9.1705 C   0  0  0  0  0  0  0  0  0  0  0  0
   -4.6316    2.1561    9.4813 C   0  0  0  0  0  0  0  0  0  0  0  0
   -4.9398    2.4829   10.7740 C   0  0  0  0  0  0  0  0  0  0  0  0
   -6.4177    2.1845   11.5667 Cl  0  0  0  0  0  0  0  0  0  0  0  0
   -3.6432    3.2813   11.6298 S   0  0  0  0  0  0  0  0  0  0  0  0
   -2.6674    3.1733   10.2226 C   0  0  0  0  0  0  0  0  0  0  0  0
   -1.3356    3.5670    9.8481 C   0  0  0  0  0  0  0  0  0  0  0  0
   -0.4537    4.2122   10.6808 C   0  0  0  0  0  0  0  0  0  0  0  0
    0.8496    4.6232   10.3483 C   0  0  0  0  0  0  0  0  0  0  0  0
    1.9208    4.9827   10.1378 N   0  0  0  0  0  0  0  0  0  0  0  0
   -0.8214    4.5297   12.0048 C   0  0  0  0  0  0  0  0  0  0  0  0
   -1.1113    4.7928   13.0836 N   0  0  0  0  0  0  0  0  0  0  0  0
   -2.7636   -3.2186   -7.2160 H   0  0  0  0  0  0  0  0  0  0  0  0
   -6.1985   -7.2590   -7.1367 H   0  0  0  0  0  0  0  0  0  0  0  0
   -4.1092   -7.2227   -2.5208 H   0  0  0  0  0  0  0  0  0  0  0  0
   -7.0341   -9.0546   -2.5247 H   0  0  0  0  0  0  0  0  0  0  0  0
   -5.4318  -10.9425   -2.2553 H   0  0  0  0  0  0  0  0  0  0  0  0
   -3.5344  -10.5624   -4.0131 H   0  0  0  0  0  0  0  0  0  0  0  0
   -4.6207  -10.6274   -6.4365 H   0  0  0  0  0  0  0  0  0  0  0  0
   -7.1880  -11.0494   -6.1716 H   0  0  0  0  0  0  0  0  0  0  0  0
   -6.4064  -12.5414   -4.1288 H   0  0  0  0  0  0  0  0  0  0  0  0
   -7.7210  -11.4780   -3.5678 H   0  0  0  0  0  0  0  0  0  0  0  0
   -8.0978   -9.1264   -4.8775 H   0  0  0  0  0  0  0  0  0  0  0  0
    0.6311   -1.3092   -7.1112 H   0  0  0  0  0  0  0  0  0  0  0  0
   -0.5909   -2.4402   -7.7100 H   0  0  0  0  0  0  0  0  0  0  0  0
   -0.7088   -0.2733   -8.9281 H   0  0  0  0  0  0  0  0  0  0  0  0
   -0.9542    0.5863   -7.4057 H   0  0  0  0  0  0  0  0  0  0  0  0
   -2.1905   -0.5260   -8.0009 H   0  0  0  0  0  0  0  0  0  0  0  0
    9.1058    2.8271   -5.2976 H   0  0  0  0  0  0  0  0  0  0  0  0
    8.3146    2.2579   -6.7792 H   0  0  0  0  0  0  0  0  0  0  0  0
    8.2919   -0.0664   -5.8635 H   0  0  0  0  0  0  0  0  0  0  0  0
    9.9369    0.5743   -5.9175 H   0  0  0  0  0  0  0  0  0  0  0  0
    9.0643    0.5070   -4.3817 H   0  0  0  0  0  0  0  0  0  0  0  0
    3.7286    2.4985   -5.1465 H   0  0  0  0  0  0  0  0  0  0  0  0
    6.1163    5.0513   -2.5572 H   0  0  0  0  0  0  0  0  0  0  0  0
    8.0250    5.7941    2.3863 H   0  0  0  0  0  0  0  0  0  0  0  0
    9.0990    6.2784    1.0626 H   0  0  0  0  0  0  0  0  0  0  0  0
    8.9219    3.4723    2.2744 H   0  0  0  0  0  0  0  0  0  0  0  0
   10.0105    3.9511    0.9687 H   0  0  0  0  0  0  0  0  0  0  0  0
   10.2110    4.6426    2.5814 H   0  0  0  0  0  0  0  0  0  0  0  0
    3.3387    4.4008    5.7590 H   0  0  0  0  0  0  0  0  0  0  0  0
    2.3804    4.7167    7.2122 H   0  0  0  0  0  0  0  0  0  0  0  0
    4.3511    3.3334    7.7581 H   0  0  0  0  0  0  0  0  0  0  0  0
    2.8821    2.3941    8.0231 H   0  0  0  0  0  0  0  0  0  0  0  0
    3.8574    2.1152    6.5766 H   0  0  0  0  0  0  0  0  0  0  0  0
   -2.0382    0.8224    2.7505 H   0  0  0  0  0  0  0  0  0  0  0  0
   -2.1732    0.8953    0.9713 H   0  0  0  0  0  0  0  0  0  0  0  0
   -1.9335    3.3719    1.0578 H   0  0  0  0  0  0  0  0  0  0  0  0
   -3.3479    2.7965    1.9496 H   0  0  0  0  0  0  0  0  0  0  0  0
   -1.9050    3.3015    2.8250 H   0  0  0  0  0  0  0  0  0  0  0  0
   -1.4594   -0.9401    0.7023 H   0  0  0  0  0  0  0  0  0  0  0  0
   -2.4032   -1.4091   -0.7345 H   0  0  0  0  0  0  0  0  0  0  0  0
   -1.0332   -3.3001    0.1229 H   0  0  0  0  0  0  0  0  0  0  0  0
    0.4370   -2.3332   -0.0472 H   0  0  0  0  0  0  0  0  0  0  0  0
   -0.4641   -2.8329   -1.4785 H   0  0  0  0  0  0  0  0  0  0  0  0
    0.7835    3.8364    8.2554 H   0  0  0  0  0  0  0  0  0  0  0  0
   -5.3044    1.6625    8.8058 H   0  0  0  0  0  0  0  0  0  0  0  0
  1  2  2  0  0  0  0
  2  3  1  0  0  0  0
  3  4  2  0  0  0  0
  3  5  1  0  0  0  0
  5  6  2  0  0  0  0
  6  7  1  0  0  0  0
  7  8  2  0  0  0  0
  8  9  1  0  0  0  0
  9 10  2  0  0  0  0
 10 11  1  0  0  0  0
 11 12  2  0  0  0  0
 12 13  1  0  0  0  0
 13 14  3  0  0  0  0
 12 15  1  0  0  0  0
 15 16  3  0  0  0  0
  8 17  1  0  0  0  0
 17 18  1  0  0  0  0
 18 19  1  0  0  0  0
 19 20  2  0  0  0  0
 20 21  1  0  0  0  0
 21 22  1  0  0  0  0
 21 23  1  0  0  0  0
  1 24  1  0  0  0  0
 24 25  2  0  0  0  0
 25 26  1  0  0  0  0
 26 27  1  0  0  0  0
 25 28  1  0  0  0  0
 28 29  1  0  0  0  0
 29 30  1  0  0  0  0
 30 31  1  0  0  0  0
 31 32  2  0  0  0  0
 32 33  1  0  0  0  0
 33 34  2  0  0  0  0
 34 35  1  0  0  0  0
 35 36  1  0  0  0  0
 36 37  1  0  0  0  0
 37 38  1  0  0  0  0
 38 39  1  0  0  0  0
 37 40  2  0  0  0  0
 40 41  1  0  0  0  0
 40 42  1  0  0  0  0
 34 43  1  0  0  0  0
 43 44  1  0  0  0  0
 44 45  2  0  0  0  0
 45 46  1  0  0  0  0
 46 47  1  0  0  0  0
 46 48  2  0  0  0  0
 48 49  1  0  0  0  0
 49 50  1  0  0  0  0
 48 51  1  0  0  0  0
 43 52  2  0  0  0  0
 52 53  1  0  0  0  0
 53 54  2  0  0  0  0
 54 55  1  0  0  0  0
 55 56  1  0  0  0  0
 56 57  1  0  0  0  0
 57 58  1  0  0  0  0
 58 59  1  0  0  0  0
 59 60  1  0  0  0  0
 58 61  2  0  0  0  0
 61 62  1  0  0  0  0
 62 63  1  0  0  0  0
 63 64  1  0  0  0  0
 64 65  1  0  0  0  0
 65 66  1  0  0  0  0
 66 67  1  0  0  0  0
 65 68  1  0  0  0  0
 68 69  2  0  0  0  0
 69 70  1  0  0  0  0
 70 71  1  0  0  0  0
 71 72  1  0  0  0  0
 72 73  1  0  0  0  0
 70 74  1  0  0  0  0
 74 75  1  0  0  0  0
 61 76  1  0  0  0  0
 76 77  2  0  0  0  0
 77 78  1  0  0  0  0
 78 79  2  0  0  0  0
 78 80  1  0  0  0  0
 80 81  1  0  0  0  0
 81 82  2  0  0  0  0
 82 83  1  0  0  0  0
 82 84  1  0  0  0  0
 84 85  1  0  0  0  0
 85 86  1  0  0  0  0
 86 87  2  0  0  0  0
 87 88  1  0  0  0  0
 88 89  3  0  0  0  0
 87 90  1  0  0  0  0
 90 91  3  0  0  0  0
 11  2  1  0  0  0  0
 23 17  1  0  0  0  0
 73 24  1  0  0  0  0
 86 77  1  0  0  0  0
 10  5  1  0  0  0  0
 22 18  1  0  0  0  0
 72 28  2  0  0  0  0
 85 80  2  0  0  0  0
 23  7  1  0  0  0  0
 71 30  2  0  0  0  0
 69 31  1  0  0  0  0
 53 32  1  0  0  0  0
 68 54  1  0  0  0  0
 41 35  2  0  0  0  0
 51 44  1  0  0  0  0
 64 55  2  0  0  0  0
 63 57  2  0  0  0  0
  1 92  1  0  0  0  0
  6 93  1  0  0  0  0
  9 94  1  0  0  0  0
 17 95  1  0  0  0  0
 18 96  1  0  0  0  0
 19 97  1  0  0  0  0
 20 98  1  0  0  0  0
 21 99  1  0  0  0  0
 22100  1  0  0  0  0
 22101  1  0  0  0  0
 23102  1  0  0  0  0
 26103  1  0  0  0  0
 26104  1  0  0  0  0
 27105  1  0  0  0  0
 27106  1  0  0  0  0
 27107  1  0  0  0  0
 38108  1  0  0  0  0
 38109  1  0  0  0  0
 39110  1  0  0  0  0
 39111  1  0  0  0  0
 39112  1  0  0  0  0
 41113  1  0  0  0  0
 45114  1  0  0  0  0
 49115  1  0  0  0  0
 49116  1  0  0  0  0
 50117  1  0  0  0  0
 50118  1  0  0  0  0
 50119  1  0  0  0  0
 59120  1  0  0  0  0
 59121  1  0  0  0  0
 60122  1  0  0  0  0
 60123  1  0  0  0  0
 60124  1  0  0  0  0
 66125  1  0  0  0  0
 66126  1  0  0  0  0
 67127  1  0  0  0  0
 67128  1  0  0  0  0
 67129  1  0  0  0  0
 74130  1  0  0  0  0
 74131  1  0  0  0  0
 75132  1  0  0  0  0
 75133  1  0  0  0  0
 75134  1  0  0  0  0
 76135  1  0  0  0  0
 81136  1  0  0  0  0
M  END
