
  xtb     02112201253D
 energy: -180.382991768578 gnorm: 0.000884666159 xtb: 6.4.1 (unknown)
 98111  0     0  0            999 V2000
    1.0547    2.7867    4.6725 C   0  0  0  0  0  0  0  0  0  0  0  0
    0.5622    4.0303    4.3731 C   0  0  0  0  0  0  0  0  0  0  0  0
    0.0308    4.5470    3.0930 C   0  0  0  0  0  0  0  0  0  0  0  0
   -0.2468    3.9405    2.0746 O   0  0  0  0  0  0  0  0  0  0  0  0
   -0.1139    6.0024    3.2704 C   0  0  0  0  0  0  0  0  0  0  0  0
   -0.5144    6.9194    2.3001 C   0  0  0  0  0  0  0  0  0  0  0  0
   -0.5445    8.2202    2.7398 C   0  0  0  0  0  0  0  0  0  0  0  0
   -0.1961    8.5839    4.0477 C   0  0  0  0  0  0  0  0  0  0  0  0
    0.1994    7.6896    5.0136 C   0  0  0  0  0  0  0  0  0  0  0  0
    0.2290    6.3572    4.5886 C   0  0  0  0  0  0  0  0  0  0  0  0
    0.5805    5.1401    5.3152 C   0  0  0  0  0  0  0  0  0  0  0  0
    0.8057    5.0725    6.6659 C   0  0  0  0  0  0  0  0  0  0  0  0
    1.0445    3.9006    7.4159 C   0  0  0  0  0  0  0  0  0  0  0  0
    1.2264    3.0064    8.1143 N   0  0  0  0  0  0  0  0  0  0  0  0
    0.7793    6.1853    7.5335 C   0  0  0  0  0  0  0  0  0  0  0  0
    0.7717    7.0383    8.3024 N   0  0  0  0  0  0  0  0  0  0  0  0
   -0.4516   10.0487    3.7936 C   0  0  0  0  0  0  0  0  0  0  0  0
   -1.7698   10.6253    4.3520 C   0  0  0  0  0  0  0  0  0  0  0  0
   -1.9720   11.8969    3.5600 C   0  0  0  0  0  0  0  0  0  0  0  0
   -2.3028   11.5528    2.3218 C   0  0  0  0  0  0  0  0  0  0  0  0
   -2.3298   10.0427    2.2562 C   0  0  0  0  0  0  0  0  0  0  0  0
   -2.8133    9.7256    3.6772 C   0  0  0  0  0  0  0  0  0  0  0  0
   -0.8411    9.6429    2.3358 C   0  0  0  0  0  0  0  0  0  0  0  0
    1.1211    1.5936    3.9286 C   0  0  0  0  0  0  0  0  0  0  0  0
    1.9643    0.0848    4.7778 Se  0  0  0  0  0  2  0  0  0  0  0  0
    1.5659   -0.8346    3.2319 C   0  0  0  0  0  0  0  0  0  0  0  0
    1.6760   -2.1168    2.6719 C   0  0  0  0  0  0  0  0  0  0  0  0
    2.1061   -3.3555    3.1987 C   0  0  0  0  0  0  0  0  0  0  0  0
    1.9286   -4.5535    2.4218 C   0  0  0  0  0  0  0  0  0  0  0  0
    2.2990   -5.6379    3.0835 N   0  0  0  0  0  0  0  0  0  0  0  0
    2.8314   -5.1965    4.5466 S   0  0  0  0  0  0  0  0  0  0  0  0
    2.6076   -3.5995    4.3980 N   0  0  0  0  0  0  0  0  0  0  0  0
    1.4681   -4.4445    1.0876 C   0  0  0  0  0  0  0  0  0  0  0  0
    1.3007   -5.3716    0.0472 C   0  0  0  0  0  0  0  0  0  0  0  0
    1.3854   -7.0800   -0.2119 S   0  0  0  0  0  0  0  0  0  0  0  0
    0.9549   -6.8186   -1.8929 C   0  0  0  0  0  0  0  0  0  0  0  0
    0.7415   -7.6880   -2.9523 C   0  0  0  0  0  0  0  0  0  0  0  0
    0.9220   -9.1660   -2.8380 C   0  0  0  0  0  0  0  0  0  0  0  0
    2.3151   -9.5834   -3.3176 C   0  0  0  0  0  0  0  0  0  0  0  0
    0.3918   -6.9898   -4.1248 C   0  0  0  0  0  0  0  0  0  0  0  0
    0.3380   -5.2428   -3.8711 S   0  0  0  0  0  0  0  0  0  0  0  0
    0.7723   -5.4626   -2.2200 C   0  0  0  0  0  0  0  0  0  0  0  0
    0.9676   -4.6447   -1.1069 C   0  0  0  0  0  0  0  0  0  0  0  0
    0.9033   -3.3049   -0.8176 N   0  0  0  0  0  0  0  0  0  0  0  0
    1.1667   -3.1703    0.5303 C   0  0  0  0  0  0  0  0  0  0  0  0
    1.1115   -2.0404    1.3727 C   0  0  0  0  0  0  0  0  0  0  0  0
    0.6084   -0.7730    1.1647 N   0  0  0  0  0  0  0  0  0  0  0  0
    0.8940   -0.0295    2.2875 C   0  0  0  0  0  0  0  0  0  0  0  0
    0.6492    1.2865    2.6618 C   0  0  0  0  0  0  0  0  0  0  0  0
   -0.5188   -0.4267    0.3208 C   0  0  0  0  0  0  0  0  0  0  0  0
   -1.8137   -0.3458    1.1292 C   0  0  0  0  0  0  0  0  0  0  0  0
    1.1473   -2.3167   -1.8504 C   0  0  0  0  0  0  0  0  0  0  0  0
    2.4997   -2.5457   -2.5241 C   0  0  0  0  0  0  0  0  0  0  0  0
    0.1042   -7.6311   -5.3313 C   0  0  0  0  0  0  0  0  0  0  0  0
   -0.2624   -7.1319   -6.5601 C   0  0  0  0  0  0  0  0  0  0  0  0
   -0.4306   -5.7124   -6.9044 C   0  0  0  0  0  0  0  0  0  0  0  0
   -0.2658   -4.7478   -6.1789 O   0  0  0  0  0  0  0  0  0  0  0  0
   -0.8407   -5.7000   -8.3124 C   0  0  0  0  0  0  0  0  0  0  0  0
   -0.9139   -7.0453   -8.7979 C   0  0  0  0  0  0  0  0  0  0  0  0
   -1.2933   -7.1240  -10.1006 C   0  0  0  0  0  0  0  0  0  0  0  0
   -1.5713   -5.5544  -10.7669 S   0  0  0  0  0  0  0  0  0  0  0  0
   -1.1665   -4.7737   -9.2549 C   0  0  0  0  0  0  0  0  0  0  0  0
   -1.2096   -3.0867   -9.0961 Cl  0  0  0  0  0  0  0  0  0  0  0  0
   -0.5543   -7.9505   -7.7210 C   0  0  0  0  0  0  0  0  0  0  0  0
   -0.5219   -9.3174   -7.8446 C   0  0  0  0  0  0  0  0  0  0  0  0
   -0.8462   -9.9476   -9.0632 C   0  0  0  0  0  0  0  0  0  0  0  0
   -1.1066  -10.4791  -10.0465 N   0  0  0  0  0  0  0  0  0  0  0  0
   -0.1815  -10.2360   -6.8346 C   0  0  0  0  0  0  0  0  0  0  0  0
    0.0858  -11.0370   -6.0546 N   0  0  0  0  0  0  0  0  0  0  0  0
    1.4924    2.6867    5.6606 H   0  0  0  0  0  0  0  0  0  0  0  0
   -0.7658    6.5949    1.3024 H   0  0  0  0  0  0  0  0  0  0  0  0
    0.4735    7.9889    6.0110 H   0  0  0  0  0  0  0  0  0  0  0  0
    0.3991   10.7115    3.9406 H   0  0  0  0  0  0  0  0  0  0  0  0
   -1.8063   10.7109    5.4345 H   0  0  0  0  0  0  0  0  0  0  0  0
   -1.8047   12.8821    3.9539 H   0  0  0  0  0  0  0  0  0  0  0  0
   -2.4669   12.1931    1.4749 H   0  0  0  0  0  0  0  0  0  0  0  0
   -2.8775    9.5986    1.4292 H   0  0  0  0  0  0  0  0  0  0  0  0
   -2.7352    8.6744    3.9487 H   0  0  0  0  0  0  0  0  0  0  0  0
   -3.8304   10.0721    3.8527 H   0  0  0  0  0  0  0  0  0  0  0  0
   -0.2502   10.0353    1.5101 H   0  0  0  0  0  0  0  0  0  0  0  0
    0.1661   -9.7003   -3.4153 H   0  0  0  0  0  0  0  0  0  0  0  0
    0.8092   -9.4428   -1.7878 H   0  0  0  0  0  0  0  0  0  0  0  0
    2.4307  -10.6586   -3.2175 H   0  0  0  0  0  0  0  0  0  0  0  0
    3.0826   -9.0915   -2.7246 H   0  0  0  0  0  0  0  0  0  0  0  0
    2.4587   -9.3180   -4.3623 H   0  0  0  0  0  0  0  0  0  0  0  0
    0.1604    2.0213    2.0469 H   0  0  0  0  0  0  0  0  0  0  0  0
   -0.6418   -1.1934   -0.4417 H   0  0  0  0  0  0  0  0  0  0  0  0
   -0.3176    0.5365   -0.1578 H   0  0  0  0  0  0  0  0  0  0  0  0
   -2.6446   -0.1402    0.4600 H   0  0  0  0  0  0  0  0  0  0  0  0
   -1.7635    0.4444    1.8726 H   0  0  0  0  0  0  0  0  0  0  0  0
   -1.9995   -1.2904    1.6362 H   0  0  0  0  0  0  0  0  0  0  0  0
    1.1521   -1.3256   -1.4004 H   0  0  0  0  0  0  0  0  0  0  0  0
    0.3486   -2.3829   -2.5956 H   0  0  0  0  0  0  0  0  0  0  0  0
    2.5184   -3.4961   -3.0494 H   0  0  0  0  0  0  0  0  0  0  0  0
    3.2966   -2.5363   -1.7832 H   0  0  0  0  0  0  0  0  0  0  0  0
    2.6822   -1.7530   -3.2439 H   0  0  0  0  0  0  0  0  0  0  0  0
    0.1801   -8.7086   -5.2721 H   0  0  0  0  0  0  0  0  0  0  0  0
   -1.4315   -7.9873  -10.7206 H   0  0  0  0  0  0  0  0  0  0  0  0
  1  2  2  0  0  0  0
  2  3  1  0  0  0  0
  3  4  2  0  0  0  0
  3  5  1  0  0  0  0
  5  6  2  0  0  0  0
  6  7  1  0  0  0  0
  7  8  2  0  0  0  0
  8  9  1  0  0  0  0
  9 10  2  0  0  0  0
 10 11  1  0  0  0  0
 11 12  2  0  0  0  0
 12 13  1  0  0  0  0
 13 14  3  0  0  0  0
 12 15  1  0  0  0  0
 15 16  3  0  0  0  0
  8 17  1  0  0  0  0
 17 18  1  0  0  0  0
 18 19  1  0  0  0  0
 19 20  2  0  0  0  0
 20 21  1  0  0  0  0
 21 22  1  0  0  0  0
 21 23  1  0  0  0  0
  1 24  1  0  0  0  0
 24 25  1  0  0  0  0
 25 26  1  0  0  0  0
 26 27  1  0  0  0  0
 27 28  1  0  0  0  0
 28 29  1  0  0  0  0
 29 30  2  0  0  0  0
 30 31  1  0  0  0  0
 31 32  1  0  0  0  0
 29 33  1  0  0  0  0
 33 34  1  0  0  0  0
 34 35  1  0  0  0  0
 35 36  1  0  0  0  0
 36 37  1  0  0  0  0
 37 38  1  0  0  0  0
 38 39  1  0  0  0  0
 37 40  2  0  0  0  0
 40 41  1  0  0  0  0
 41 42  1  0  0  0  0
 42 43  1  0  0  0  0
 43 44  1  0  0  0  0
 44 45  1  0  0  0  0
 45 46  1  0  0  0  0
 46 47  1  0  0  0  0
 47 48  1  0  0  0  0
 48 49  1  0  0  0  0
 47 50  1  0  0  0  0
 50 51  1  0  0  0  0
 44 52  1  0  0  0  0
 52 53  1  0  0  0  0
 40 54  1  0  0  0  0
 54 55  2  0  0  0  0
 55 56  1  0  0  0  0
 56 57  2  0  0  0  0
 56 58  1  0  0  0  0
 58 59  1  0  0  0  0
 59 60  2  0  0  0  0
 60 61  1  0  0  0  0
 61 62  1  0  0  0  0
 62 63  1  0  0  0  0
 59 64  1  0  0  0  0
 64 65  2  0  0  0  0
 65 66  1  0  0  0  0
 66 67  3  0  0  0  0
 65 68  1  0  0  0  0
 68 69  3  0  0  0  0
 11  2  1  0  0  0  0
 23 17  1  0  0  0  0
 49 24  2  0  0  0  0
 64 55  1  0  0  0  0
 10  5  1  0  0  0  0
 22 18  1  0  0  0  0
 48 26  2  0  0  0  0
 62 58  2  0  0  0  0
 23  7  1  0  0  0  0
 46 27  2  0  0  0  0
 32 28  2  0  0  0  0
 45 33  2  0  0  0  0
 43 34  2  0  0  0  0
 42 36  2  0  0  0  0
  1 70  1  0  0  0  0
  6 71  1  0  0  0  0
  9 72  1  0  0  0  0
 17 73  1  0  0  0  0
 18 74  1  0  0  0  0
 19 75  1  0  0  0  0
 20 76  1  0  0  0  0
 21 77  1  0  0  0  0
 22 78  1  0  0  0  0
 22 79  1  0  0  0  0
 23 80  1  0  0  0  0
 38 81  1  0  0  0  0
 38 82  1  0  0  0  0
 39 83  1  0  0  0  0
 39 84  1  0  0  0  0
 39 85  1  0  0  0  0
 49 86  1  0  0  0  0
 50 87  1  0  0  0  0
 50 88  1  0  0  0  0
 51 89  1  0  0  0  0
 51 90  1  0  0  0  0
 51 91  1  0  0  0  0
 52 92  1  0  0  0  0
 52 93  1  0  0  0  0
 53 94  1  0  0  0  0
 53 95  1  0  0  0  0
 53 96  1  0  0  0  0
 54 97  1  0  0  0  0
 60 98  1  0  0  0  0
M  END
