
  xtb     02022209063D
 energy: -186.723918699577 gnorm: 0.000640721691 xtb: 6.4.1 (unknown)
102116  0     0  0            999 V2000
   -0.4698   -0.5846   -7.8408 C   0  0  0  0  0  0  0  0  0  0  0  0
    0.0050   -1.8595   -8.0288 C   0  0  0  0  0  0  0  0  0  0  0  0
    0.6175   -2.6918   -7.0013 C   0  0  0  0  0  0  0  0  0  0  0  0
    0.7858   -2.4041   -5.8202 O   0  0  0  0  0  0  0  0  0  0  0  0
    1.0037   -3.9524   -7.6467 C   0  0  0  0  0  0  0  0  0  0  0  0
    1.6311   -5.0468   -7.0541 C   0  0  0  0  0  0  0  0  0  0  0  0
    1.8584   -6.0932   -7.9154 C   0  0  0  0  0  0  0  0  0  0  0  0
    1.4937   -6.0519   -9.2675 C   0  0  0  0  0  0  0  0  0  0  0  0
    0.8802   -4.9761   -9.8658 C   0  0  0  0  0  0  0  0  0  0  0  0
    0.6336   -3.9015   -9.0071 C   0  0  0  0  0  0  0  0  0  0  0  0
    0.0002   -2.6089   -9.2711 C   0  0  0  0  0  0  0  0  0  0  0  0
   -0.5162   -2.2124  -10.4772 C   0  0  0  0  0  0  0  0  0  0  0  0
   -0.5032   -2.9970  -11.6500 C   0  0  0  0  0  0  0  0  0  0  0  0
   -0.5325   -3.5747  -12.6418 N   0  0  0  0  0  0  0  0  0  0  0  0
   -1.1464   -0.9774  -10.7391 C   0  0  0  0  0  0  0  0  0  0  0  0
   -1.6754   -0.0031  -11.0401 N   0  0  0  0  0  0  0  0  0  0  0  0
    2.0058   -7.4453   -9.5315 C   0  0  0  0  0  0  0  0  0  0  0  0
    0.9420   -8.5596   -9.6312 C   0  0  0  0  0  0  0  0  0  0  0  0
    1.7294   -9.8309   -9.4103 C   0  0  0  0  0  0  0  0  0  0  0  0
    2.0794   -9.8715   -8.1310 C   0  0  0  0  0  0  0  0  0  0  0  0
    1.5335   -8.6286   -7.4654 C   0  0  0  0  0  0  0  0  0  0  0  0
    0.2411   -8.4443   -8.2713 C   0  0  0  0  0  0  0  0  0  0  0  0
    2.4148   -7.4913   -8.0242 C   0  0  0  0  0  0  0  0  0  0  0  0
   -0.5369    0.2018   -6.6823 C   0  0  0  0  0  0  0  0  0  0  0  0
   -1.0713    1.4923   -6.7257 C   0  0  0  0  0  0  0  0  0  0  0  0
   -1.1181    2.1498   -5.5111 C   0  0  0  0  0  0  0  0  0  0  0  0
   -1.6899    3.7583   -5.1014 S   0  0  0  0  0  0  0  0  0  0  0  0
   -1.2829    3.4490   -3.4500 C   0  0  0  0  0  0  0  0  0  0  0  0
   -1.3023    4.0955   -2.2075 C   0  0  0  0  0  0  0  0  0  0  0  0
   -1.6318    5.4239   -1.8575 C   0  0  0  0  0  0  0  0  0  0  0  0
   -1.4595    5.8430   -0.4980 C   0  0  0  0  0  0  0  0  0  0  0  0
   -1.7482    7.1226   -0.3230 N   0  0  0  0  0  0  0  0  0  0  0  0
   -2.2034    7.7455   -1.7460 S   0  0  0  0  0  0  0  0  0  0  0  0
   -2.0486    6.4059   -2.6407 N   0  0  0  0  0  0  0  0  0  0  0  0
   -1.0892    4.8834    0.4718 C   0  0  0  0  0  0  0  0  0  0  0  0
   -1.0129    4.9810    1.8648 C   0  0  0  0  0  0  0  0  0  0  0  0
   -0.7604    3.6767    2.3456 C   0  0  0  0  0  0  0  0  0  0  0  0
   -0.6502    2.8032    1.2962 N   0  0  0  0  0  0  0  0  0  0  0  0
   -0.7317    1.3859    1.5783 C   0  0  0  0  0  0  0  0  0  0  0  0
   -1.9628    0.7394    0.9530 C   0  0  0  0  0  0  0  0  0  0  0  0
   -0.8331    3.5197    0.1274 C   0  0  0  0  0  0  0  0  0  0  0  0
   -0.8133    3.1614   -1.2445 C   0  0  0  0  0  0  0  0  0  0  0  0
   -0.4653    1.9965   -1.9080 N   0  0  0  0  0  0  0  0  0  0  0  0
   -0.7458    2.1739   -3.2377 C   0  0  0  0  0  0  0  0  0  0  0  0
   -0.6305    1.4198   -4.4073 C   0  0  0  0  0  0  0  0  0  0  0  0
   -0.0094   -0.2643   -4.9175 Se  0  0  0  0  0  2  0  0  0  0  0  0
    0.4805    0.9623   -1.5559 C   0  0  0  0  0  0  0  0  0  0  0  0
    1.9012    1.3619   -1.9487 C   0  0  0  0  0  0  0  0  0  0  0  0
   -0.7292    3.6323    3.7262 C   0  0  0  0  0  0  0  0  0  0  0  0
   -0.9440    4.8979    4.2752 C   0  0  0  0  0  0  0  0  0  0  0  0
   -1.1936    6.1729    3.0993 S   0  0  0  0  0  0  0  0  0  0  0  0
   -0.9137    4.7076    5.6734 C   0  0  0  0  0  0  0  0  0  0  0  0
   -1.0870    5.6347    6.6562 C   0  0  0  0  0  0  0  0  0  0  0  0
   -0.5796    2.7743    5.4858 Se  0  0  0  0  0  2  0  0  0  0  0  0
   -1.1109    5.6015    8.0622 C   0  0  0  0  0  0  0  0  0  0  0  0
   -0.9634    4.6129    9.0078 C   0  0  0  0  0  0  0  0  0  0  0  0
   -0.6950    3.1896    8.8161 C   0  0  0  0  0  0  0  0  0  0  0  0
   -0.5509    2.5562    7.7745 O   0  0  0  0  0  0  0  0  0  0  0  0
   -0.6158    2.5918   10.1554 C   0  0  0  0  0  0  0  0  0  0  0  0
   -0.3749    1.2705   10.4749 C   0  0  0  0  0  0  0  0  0  0  0  0
   -0.3436    0.9214   11.8255 C   0  0  0  0  0  0  0  0  0  0  0  0
   -0.1211   -0.3246   12.2936 O   0  0  0  0  0  0  0  0  0  0  0  0
    0.1008   -1.3670   11.3700 C   0  0  0  0  0  0  0  0  0  0  0  0
   -0.5546    1.9098   12.7987 C   0  0  0  0  0  0  0  0  0  0  0  0
   -0.7940    3.2280   12.4664 C   0  0  0  0  0  0  0  0  0  0  0  0
   -0.8270    3.5863   11.1231 C   0  0  0  0  0  0  0  0  0  0  0  0
   -1.0505    4.8564   10.4453 C   0  0  0  0  0  0  0  0  0  0  0  0
   -1.3022    6.0438   11.0833 C   0  0  0  0  0  0  0  0  0  0  0  0
   -1.3648    6.1826   12.4869 C   0  0  0  0  0  0  0  0  0  0  0  0
   -1.4320    6.3775   13.6164 N   0  0  0  0  0  0  0  0  0  0  0  0
   -1.5392    7.3004   10.4865 C   0  0  0  0  0  0  0  0  0  0  0  0
   -1.7495    8.3665   10.1120 N   0  0  0  0  0  0  0  0  0  0  0  0
   -0.8678   -0.0818   -8.7148 H   0  0  0  0  0  0  0  0  0  0  0  0
    1.8982   -5.0335   -6.0091 H   0  0  0  0  0  0  0  0  0  0  0  0
    0.6135   -4.9615  -10.9091 H   0  0  0  0  0  0  0  0  0  0  0  0
    2.7842   -7.5315  -10.2870 H   0  0  0  0  0  0  0  0  0  0  0  0
    0.3204   -8.5162  -10.5212 H   0  0  0  0  0  0  0  0  0  0  0  0
    1.9892  -10.5191  -10.1929 H   0  0  0  0  0  0  0  0  0  0  0  0
    2.6902  -10.6005   -7.6315 H   0  0  0  0  0  0  0  0  0  0  0  0
    1.4504   -8.6504   -6.3821 H   0  0  0  0  0  0  0  0  0  0  0  0
   -0.2533   -7.4888   -8.1057 H   0  0  0  0  0  0  0  0  0  0  0  0
   -0.4670   -9.2541   -8.1039 H   0  0  0  0  0  0  0  0  0  0  0  0
    3.4678   -7.6051   -7.7734 H   0  0  0  0  0  0  0  0  0  0  0  0
   -1.4210    1.9287   -7.6462 H   0  0  0  0  0  0  0  0  0  0  0  0
   -0.7963    1.3022    2.6682 H   0  0  0  0  0  0  0  0  0  0  0  0
    0.1889    0.8736    1.2814 H   0  0  0  0  0  0  0  0  0  0  0  0
   -1.9521    0.8188   -0.1306 H   0  0  0  0  0  0  0  0  0  0  0  0
   -2.8628    1.2246    1.3235 H   0  0  0  0  0  0  0  0  0  0  0  0
   -1.9997   -0.3120    1.2244 H   0  0  0  0  0  0  0  0  0  0  0  0
    0.4407    0.7552   -0.4932 H   0  0  0  0  0  0  0  0  0  0  0  0
    0.1898    0.0551   -2.1018 H   0  0  0  0  0  0  0  0  0  0  0  0
    2.5955    0.5766   -1.6642 H   0  0  0  0  0  0  0  0  0  0  0  0
    2.1881    2.2850   -1.4490 H   0  0  0  0  0  0  0  0  0  0  0  0
    1.9712    1.5102   -3.0246 H   0  0  0  0  0  0  0  0  0  0  0  0
   -1.2515    6.6307    6.2488 H   0  0  0  0  0  0  0  0  0  0  0  0
   -1.2905    6.5847    8.4799 H   0  0  0  0  0  0  0  0  0  0  0  0
   -0.2206    0.5581    9.6806 H   0  0  0  0  0  0  0  0  0  0  0  0
   -0.7604   -1.5067   10.7101 H   0  0  0  0  0  0  0  0  0  0  0  0
    0.2459   -2.2640   11.9692 H   0  0  0  0  0  0  0  0  0  0  0  0
    0.9960   -1.1834   10.7685 H   0  0  0  0  0  0  0  0  0  0  0  0
   -0.5238    1.6055   13.8329 H   0  0  0  0  0  0  0  0  0  0  0  0
   -0.9497    3.9512   13.2494 H   0  0  0  0  0  0  0  0  0  0  0  0
  1  2  2  0  0  0  0
  2  3  1  0  0  0  0
  3  4  2  0  0  0  0
  3  5  1  0  0  0  0
  5  6  2  0  0  0  0
  6  7  1  0  0  0  0
  7  8  2  0  0  0  0
  8  9  1  0  0  0  0
  9 10  2  0  0  0  0
 10 11  1  0  0  0  0
 11 12  2  0  0  0  0
 12 13  1  0  0  0  0
 13 14  3  0  0  0  0
 12 15  1  0  0  0  0
 15 16  3  0  0  0  0
  8 17  1  0  0  0  0
 17 18  1  0  0  0  0
 18 19  1  0  0  0  0
 19 20  2  0  0  0  0
 20 21  1  0  0  0  0
 21 22  1  0  0  0  0
 21 23  1  0  0  0  0
  1 24  1  0  0  0  0
 24 25  2  0  0  0  0
 25 26  1  0  0  0  0
 26 27  1  0  0  0  0
 27 28  1  0  0  0  0
 28 29  1  0  0  0  0
 29 30  1  0  0  0  0
 30 31  1  0  0  0  0
 31 32  2  0  0  0  0
 32 33  1  0  0  0  0
 33 34  1  0  0  0  0
 31 35  1  0  0  0  0
 35 36  1  0  0  0  0
 36 37  2  0  0  0  0
 37 38  1  0  0  0  0
 38 39  1  0  0  0  0
 39 40  1  0  0  0  0
 38 41  1  0  0  0  0
 41 42  1  0  0  0  0
 42 43  1  0  0  0  0
 43 44  1  0  0  0  0
 44 45  1  0  0  0  0
 45 46  1  0  0  0  0
 43 47  1  0  0  0  0
 47 48  1  0  0  0  0
 37 49  1  0  0  0  0
 49 50  2  0  0  0  0
 50 51  1  0  0  0  0
 50 52  1  0  0  0  0
 52 53  2  0  0  0  0
 53 54  1  0  0  0  0
 53 55  1  0  0  0  0
 55 56  2  0  0  0  0
 56 57  1  0  0  0  0
 57 58  2  0  0  0  0
 57 59  1  0  0  0  0
 59 60  2  0  0  0  0
 60 61  1  0  0  0  0
 61 62  1  0  0  0  0
 62 63  1  0  0  0  0
 61 64  2  0  0  0  0
 64 65  1  0  0  0  0
 65 66  2  0  0  0  0
 66 67  1  0  0  0  0
 67 68  2  0  0  0  0
 68 69  1  0  0  0  0
 69 70  3  0  0  0  0
 68 71  1  0  0  0  0
 71 72  3  0  0  0  0
 11  2  1  0  0  0  0
 23 17  1  0  0  0  0
 46 24  1  0  0  0  0
 54 49  1  0  0  0  0
 67 56  1  0  0  0  0
 10  5  1  0  0  0  0
 22 18  1  0  0  0  0
 45 26  2  0  0  0  0
 66 59  1  0  0  0  0
 23  7  1  0  0  0  0
 44 28  2  0  0  0  0
 42 29  2  0  0  0  0
 34 30  2  0  0  0  0
 41 35  2  0  0  0  0
 51 36  1  0  0  0  0
  1 73  1  0  0  0  0
  6 74  1  0  0  0  0
  9 75  1  0  0  0  0
 17 76  1  0  0  0  0
 18 77  1  0  0  0  0
 19 78  1  0  0  0  0
 20 79  1  0  0  0  0
 21 80  1  0  0  0  0
 22 81  1  0  0  0  0
 22 82  1  0  0  0  0
 23 83  1  0  0  0  0
 25 84  1  0  0  0  0
 39 85  1  0  0  0  0
 39 86  1  0  0  0  0
 40 87  1  0  0  0  0
 40 88  1  0  0  0  0
 40 89  1  0  0  0  0
 47 90  1  0  0  0  0
 47 91  1  0  0  0  0
 48 92  1  0  0  0  0
 48 93  1  0  0  0  0
 48 94  1  0  0  0  0
 52 95  1  0  0  0  0
 55 96  1  0  0  0  0
 60 97  1  0  0  0  0
 63 98  1  0  0  0  0
 63 99  1  0  0  0  0
 63100  1  0  0  0  0
 64101  1  0  0  0  0
 65102  1  0  0  0  0
M  END
