105

C          3.72190       -1.36440       -4.12320
C          3.05430       -1.55960       -5.30640
C          1.60340       -1.49800       -5.57810
O          0.67230       -1.49210       -4.79290
C          1.46980       -1.42360       -7.04510
C          0.28790       -1.26050       -7.76400
C          0.46570       -1.19510       -9.12460
C          1.72680       -1.29010       -9.72780
C          2.89900       -1.46200       -9.03050
C          2.73970       -1.52650       -7.64360
C          3.73190       -1.69280       -6.58500
C          5.05270       -2.00310       -6.78360
C          5.65720       -2.13620       -8.05090
N          6.21760       -2.26000       -9.04560
C          5.99320       -2.29050       -5.77110
N          6.81910       -2.56390       -5.02040
C          1.16360       -1.12040      -11.11650
C          1.32500        0.26250      -11.79490
C          1.42320        1.27680      -10.68260
C          0.22980        1.36740      -10.11090
C         -0.69700        0.41590      -10.82640
C         -0.12390        0.49910      -12.25010
C         -0.24160       -1.01450      -10.44440
C          3.25810       -1.21780       -2.80490
Se         4.54020       -0.66870       -1.47630
C          3.12940       -0.72770       -0.29440
C          2.84750       -0.53710        1.06360
C          3.70690       -0.26180        2.14680
C          3.17180       -0.26200        3.47630
N          4.10360       -0.05460        4.39400
S          5.52800        0.12980        3.64750
N          5.01290       -0.04940        2.12110
C          1.77740       -0.41440        3.64440
C          0.97170       -0.32510        4.79080
S          1.14190       -0.10200        6.49760
C         -0.59630       -0.11360        6.65030
C         -1.45820        0.00430        7.76570
C         -0.97880        0.17440        9.17150
C         -0.24230        1.50190        9.34580
C         -2.76710       -0.07650        7.38580
S         -2.96900       -0.32120        5.65880
C         -1.25370       -0.28740        5.43590
C         -0.35500       -0.40940        4.36570
N         -0.40890       -0.58650        3.00760
C          0.90020       -0.59970        2.53840
C          1.45810       -0.78920        1.24820
N          0.92820       -1.17890        0.03560
C          1.92810       -1.13290       -0.90640
C          1.99510       -1.41460       -2.26550
C         -0.29640       -1.88710       -0.26040
C         -1.26180       -1.05150       -1.10020
C         -1.61510       -0.18600        2.31490
C         -1.55340        1.28730        1.91750
C         -3.95690       -0.11170        8.22550
C         -4.57080        0.94740        8.76590
C         -4.10490        2.31810        8.46130
O         -2.99010        2.58420        8.07570
N         -5.04360        3.33470        8.62760
C         -4.57650        4.70170        8.39430
C         -4.67670        5.08110        6.92320
C         -6.39820        3.17180        8.80830
O         -7.15960        4.10480        8.78270
C         -6.86890        1.73420        9.02800
C         -8.05690        1.75110        9.85400
N         -8.97080        1.74560       10.53790
C         -5.77200        0.86410        9.66870
C         -6.27840       -0.55000        9.93150
H          4.79940       -1.26100       -4.20730
H         -0.66290       -1.19150       -7.25890
H          3.86130       -1.53030       -9.50940
H          1.33850       -1.94360      -11.80640
H          2.10210        0.30510      -12.55320
H          2.33580        1.76660      -10.39760
H         -0.05330        1.94790       -9.25240
H         -1.76140        0.59920      -10.70370
H         -0.26760        1.47800      -12.70510
H         -0.50180       -0.27530      -12.91620
H         -0.98540       -1.76790      -10.69680
H         -1.83270        0.13300        9.85030
H         -0.30270       -0.65050        9.41340
H          0.04140        1.63800       10.38640
H          0.65660        1.52160        8.73540
H         -0.88780        2.32130        9.04260
H          1.17140       -1.74060       -2.87360
H         -0.74540       -2.22000        0.67670
H         -0.02730       -2.78580       -0.82710
H         -0.84340       -0.87400       -2.08700
H         -1.45750       -0.08710       -0.63920
H         -2.20210       -1.58390       -1.21780
H         -2.44310       -0.34690        3.01030
H         -1.79190       -0.80320        1.43930
H         -1.42530        1.91020        2.79990
H         -2.47440        1.57680        1.41880
H         -0.71570        1.46690        1.24650
H         -4.36680       -1.10210        8.38540
H         -3.53910        4.74930        8.72900
H         -5.19730        5.36310        9.00070
H         -4.06930        4.41020        6.32020
H         -4.31780        6.09670        6.78470
H         -5.71080        5.02840        6.59070
H         -7.14440        1.32020        8.04780
H         -5.50110        1.31980       10.63160
H         -5.50380       -1.15030       10.40230
H         -7.13390       -0.51330       10.60220
H         -6.59130       -1.03190        9.00740
