92

C          3.87670       -0.12020        2.55370
C          3.93560       -0.00210        3.91530
C          2.82970        0.40190        4.79600
O          1.69960        0.71390        4.46840
C          3.35810        0.35770        6.16910
C          2.66510        0.64980        7.34120
C          3.41510        0.50690        8.48360
C          4.75890        0.10960        8.46080
C          5.45560       -0.17500        7.31050
C          4.70940       -0.04330        6.13560
C          5.09710       -0.26780        4.74420
C          6.34140       -0.66290        4.32350
C          6.73380       -0.87960        2.98630
N          7.14180       -1.07880        1.93040
C          7.43380       -0.91620        5.18010
N          8.37020       -1.14180        5.80530
C          4.88190        0.15930        9.96290
C          4.85650       -1.18560       10.73070
C          4.07730       -2.15370        9.87530
C          2.80510       -1.77920        9.89640
C          2.70100       -0.55110       10.76670
C          3.79990       -0.85590       11.79720
C          3.38450        0.60070        9.98820
C          2.81070        0.07970        1.65900
S          1.17080        0.58150        2.07090
C          0.73450        0.48600        0.41620
C         -0.37920        0.68510       -0.41910
C         -1.67420        1.20920       -0.19910
C         -2.55710        1.40060       -1.32170
N         -3.69970        1.96770       -0.97010
S         -3.67730        2.23060        0.62530
N         -2.20740        1.63410        0.93510
C         -2.17040        0.91920       -2.59430
C         -2.84290        0.80620       -3.82300
C         -2.00270        0.06970       -4.68660
N         -0.82620       -0.24790       -4.04270
C         -0.08800       -1.44190       -4.40530
C         -0.96940       -2.68820       -4.32290
C         -0.90730        0.29310       -2.77140
C          0.03820        0.33160       -1.73000
N          1.38280        0.00160       -1.72060
C          1.80290        0.08420       -0.41060
C          2.97660       -0.13660        0.28760
C          2.31100        0.23010       -2.81070
C          3.01840        1.57750       -2.66570
C         -2.56200       -0.15280       -5.92900
C         -3.83710        0.41960       -6.03420
S         -4.32580        1.25020       -4.55340
C         -4.59320        0.28050       -7.20450
C         -5.84630        0.74120       -7.52750
C         -6.69660        1.58480       -6.68100
O         -6.46810        1.98900       -5.55790
C         -7.91160        1.86220       -7.47810
C         -9.00790        2.62330       -7.12930
C        -10.04220        2.74740       -8.04960
Cl       -11.43860        3.68120       -7.68110
C         -9.93900        2.10430       -9.28490
F        -10.93740        2.22880      -10.16770
C         -8.83980        1.33740       -9.64030
C         -7.80970        1.21480       -8.72110
C         -6.53800        0.49420       -8.77640
C         -6.12100       -0.28510       -9.82560
C         -4.91410       -1.01200       -9.88750
N         -3.95930       -1.63820      -10.01770
C         -6.86550       -0.48180      -11.00810
N         -7.41590       -0.68260      -11.99520
H          4.78730       -0.42890        2.05470
H          1.63080        0.95480        7.31100
H          6.48930       -0.47710        7.31330
H          5.62440        0.84930       10.35850
H          5.82880       -1.52600       11.07650
H          4.52640       -2.95220        9.31430
H          1.97850       -2.20220        9.35600
H          1.71050       -0.31400       11.14590
H          4.06210       -0.00030       12.41800
H          3.55920       -1.70920       12.42940
H          3.14760        1.57890       10.40200
H          0.29560       -1.32020       -5.42300
H          0.74660       -1.56760       -3.71820
H         -1.80450       -2.62420       -5.01470
H         -0.38030       -3.56740       -4.56870
H         -1.36250       -2.80220       -3.31490
H          3.91320       -0.45440       -0.13470
H          3.04730       -0.57980       -2.82040
H          1.76240        0.23080       -3.75130
H          2.28790        2.38350       -2.64540
H          3.68480        1.73210       -3.50970
H          3.60140        1.61600       -1.74970
H         -2.10590       -0.68880       -6.74210
H         -4.08410       -0.29670       -7.96690
H         -9.05720        3.10760       -6.16710
H         -8.82530        0.86910      -10.61070
