108

C          5.30720        1.79230       -1.59990
C          6.18530        1.37980       -2.56190
C          6.14660        0.05390       -3.22370
O          5.44650       -0.89690       -2.94270
C          7.05050        0.16390       -4.38420
C          7.31940       -0.82730       -5.32470
C          8.20020       -0.44270       -6.30670
C          8.76200        0.84020       -6.36020
C          8.49850        1.83030       -5.44410
C          7.61390        1.45510       -4.42860
C          7.11350        2.22000       -3.29090
C          7.51490        3.47870       -2.92450
C          7.08500        4.14750       -1.75920
N          6.79950        4.74060       -0.81790
C          8.43790        4.26490       -3.64400
N          9.17590        4.95980       -4.18340
C          9.55450        0.52760       -7.60480
C         11.06970        0.25120       -7.44260
C         11.26220       -0.27050       -6.04030
C         10.73390       -1.48580       -5.98450
C         10.17490       -1.80800       -7.34830
C         11.18140       -1.06000       -8.23700
C          8.93260       -0.90310       -7.54160
C          4.50180        0.96160       -0.78890
C          4.75760       -0.27490       -0.21030
C          6.08120       -0.96230       -0.22940
C          6.55610       -1.35220        1.16920
C          3.64160       -0.73320        0.50730
C          2.54920        0.14490        0.50520
S          2.90930        1.58970       -0.36060
C          1.45160       -0.38230        1.19430
C          1.72120       -1.65180        1.71320
S          3.31560       -2.22010        1.37150
C          0.57160       -2.06420        2.39960
C          0.33580       -3.22050        3.17410
N          1.14840       -4.23880        3.41040
S          0.40000       -5.26870        4.40940
N         -0.98900       -4.45530        4.57920
C         -0.91610       -3.34870        3.85620
C         -1.90010       -2.35510        3.66220
C         -3.21970       -2.28520        4.12640
S         -4.30840       -3.19790        5.11160
C         -5.56090       -2.03100        4.75920
C         -6.89430       -1.92240        5.13720
C         -7.52080       -0.82150        4.57960
S         -6.40010        0.13420        3.61500
C         -5.12900       -0.98850        3.92240
C         -3.78850       -1.13850        3.56070
N         -2.86530       -0.48910        2.78520
C         -3.32590        0.50320        1.83870
C         -3.35630       -0.05200        0.41710
C         -1.68570       -1.21700        2.82900
C         -0.39860       -1.02850        2.25470
N          0.17440       -0.00720        1.51270
C         -0.21520        1.37570        1.35470
C         -0.28000        2.09490        2.70010
C         -8.85450       -0.42860        4.82410
C         -9.62120        0.50730        4.20080
C        -10.79190        1.08820        4.92030
O        -11.31790        0.64610        5.91690
C        -11.10570        2.32740        4.19300
C        -12.01820        3.31810        4.49710
C        -12.11610        4.42340        3.66700
C        -11.30020        4.53820        2.53880
O        -11.31500        5.58280        1.68490
C        -12.21610        6.64370        1.90560
C        -10.37990        3.52650        2.22200
C        -10.28980        2.42800        3.04680
C         -9.47840        1.21530        2.94910
C         -8.93900        0.71500        1.79330
C         -8.46830       -0.60930        1.67130
N         -8.13060       -1.69580        1.51820
C         -8.87500        1.42560        0.57880
N         -8.76250        1.96500       -0.42840
H          5.14520        2.85680       -1.47290
H          6.85940       -1.80030       -5.25040
H          8.93020        2.81570       -5.50290
H          9.33520        1.14080       -8.47640
H         11.71300        1.07460       -7.74090
H         11.69790        0.30280       -5.24300
H         10.63960       -2.13120       -5.13080
H         10.00420       -2.86010       -7.56090
H         12.18010       -1.49220       -8.19800
H         10.86040       -0.96810       -9.27370
H          8.30990       -1.22630       -8.37370
H          6.81930       -0.30270       -0.68910
H          5.99930       -1.85460       -0.85610
H          7.55710       -1.77160        1.10870
H          6.58710       -0.47840        1.81690
H          5.90160       -2.09450        1.61650
H         -7.40720       -2.62560        5.76730
H         -4.34220        0.76970        2.13940
H         -2.72600        1.40970        1.90840
H         -2.37360       -0.40220        0.10910
H         -3.69120        0.71670       -0.27400
H         -4.04850       -0.88900        0.36150
H         -1.15510        1.44960        0.80830
H          0.55240        1.84520        0.73460
H          0.70330        2.10050        3.16440
H         -0.97170        1.60120        3.37900
H         -0.59920        3.12350        2.55620
H         -9.30960       -0.88140        5.70040
H        -12.64490        3.22600        5.37070
H        -12.83060        5.19470        3.90590
H        -12.02280        7.14200        2.86050
H        -12.04450        7.34600        1.09180
H        -13.25460        6.30090        1.87420
H         -9.76620        3.65010        1.34500
