114

C          6.08610       -0.52840        1.49050
C          7.12400       -0.27560        2.34650
C          7.01400        0.43920        3.63450
O          6.02900        0.97680        4.10230
C          8.31330        0.25460        4.30880
C          8.68090        0.74510        5.55920
C          9.95530        0.40240        5.94260
C         10.80330       -0.37410        5.14180
C         10.45210       -0.86810        3.90830
C          9.15800       -0.53210        3.50030
C          8.44420       -0.86900        2.27240
C          8.96240       -1.55470        1.20370
C         10.25750       -2.11080        1.16220
N         11.29370       -2.59600        1.06410
C          8.28880       -1.78090       -0.01490
N          7.82010       -1.98420       -1.04380
C         11.92080       -0.34180        6.15370
C         12.14740       -1.60790        7.01620
C         10.81760       -2.31590        7.09540
C         10.01340       -1.58310        7.85400
C         10.78510       -0.36630        8.30170
C         12.19590       -0.96620        8.41200
C         10.97550        0.52200        7.04690
C          4.86300        0.16240        1.37450
C          4.53980        1.51110        1.50970
C          5.54290        2.55900        1.85360
C          5.30760        3.90260        1.17590
C          3.19360        1.74800        1.18720
Se         2.09880        3.29960        1.17600
C          0.74020        2.15620        0.64230
C         -0.61930        2.21270        0.31700
C         -1.51140        3.30330        0.37220
C         -2.88740        3.07750        0.06130
N         -3.62620        4.16850        0.18770
S         -2.65930        5.38270        0.66010
N         -1.26500        4.55690        0.71860
C         -3.27820        1.79570       -0.37790
C         -4.51840        1.35910       -0.85530
Se        -6.22760        2.03360       -1.12260
C         -6.60560        0.33010       -1.86100
C         -7.76380       -0.22820       -2.42370
C         -9.08470        0.47270       -2.39140
C         -9.07410        1.76450       -3.20730
C         -7.54960       -1.53560       -2.83440
S         -5.91530       -2.08310       -2.46020
C         -5.50180       -0.53300       -1.82920
C         -4.34510        0.03800       -1.28010
N         -3.05340       -0.35820       -1.04960
C         -2.36700        0.70780       -0.49150
C         -1.02840        0.89880       -0.04660
N          0.06820        0.06240        0.09200
C          1.13260        0.82140        0.50800
C          2.48290        0.59790        0.80840
S          3.49970       -0.79210        0.79580
C          0.11750       -1.37630        0.22520
C         -0.73530       -1.85430        1.39820
C         -2.55320       -1.56770       -1.66200
C         -1.64370       -1.25870       -2.84900
C         -8.41330       -2.51960       -3.36720
C         -9.43250       -2.39160       -4.27110
C         -9.58210       -1.24050       -5.15200
O         -8.74770       -0.36700       -5.28200
N        -10.74140       -1.21950       -5.92060
C        -10.93860       -0.04000       -6.75680
C        -10.35870       -0.24180       -8.15020
C        -11.62630       -2.25660       -6.01170
S        -12.97250       -2.13620       -6.96150
N        -11.36650       -3.40150       -5.31280
C        -12.24790       -4.55290       -5.47500
C        -11.85590       -5.37830       -6.69300
C        -10.28540       -3.56650       -4.45800
O        -10.10500       -4.62090       -3.88190
H          6.17800       -1.38530        0.83210
H          7.99670        1.34040        6.14350
H         11.11340       -1.46920        3.30700
H         12.85480        0.10500        5.81880
H         12.99670       -2.21420        6.71310
H         10.58750       -3.21900        6.56110
H          8.97670       -1.75150        8.07980
H         10.39420        0.15710        9.17030
H         12.97920       -0.21680        8.51810
H         12.27960       -1.70150        9.21090
H         11.29330        1.53210        7.29820
H          5.53220        2.69060        2.94130
H          6.53640        2.18280        1.59270
H          6.17140        4.54420        1.33230
H          4.43630        4.40830        1.59370
H          5.15880        3.77680        0.10500
H         -9.30410        0.71550       -1.34570
H         -9.86610       -0.19430       -2.75710
H         -8.78690        1.55140       -4.23250
H         -8.36410        2.47670       -2.78650
H        -10.06300        2.21600       -3.19790
H         -0.17120       -1.85940       -0.70780
H          1.16120       -1.63930        0.41040
H         -0.35850       -1.43120        2.32670
H         -0.69360       -2.93760        1.47060
H         -1.77260       -1.54740        1.28330
H         -2.05430       -2.19220       -0.92100
H         -3.42450       -2.12460       -2.01420
H         -0.80720       -0.62990       -2.55260
H         -2.20510       -0.73420       -3.61860
H         -1.25860       -2.18260       -3.27180
H         -8.24550       -3.53370       -3.01310
H        -10.43160        0.78700       -6.25740
H        -12.00930        0.16180       -6.81200
H         -9.29280       -0.44700       -8.08540
H        -10.85340       -1.07050       -8.65120
H        -10.50780        0.65880       -8.73850
H        -12.14850       -5.15120       -4.56790
H        -13.27250       -4.19020       -5.57010
H        -10.83250       -5.73230       -6.59300
H        -12.51660       -6.23610       -6.77690
H        -11.94140       -4.78370       -7.59950
