
  xtb     02102221243D
 energy: -182.465423804008 gnorm: 0.000573482913 xtb: 6.4.1 (unknown)
102115  0     0  0            999 V2000
    3.1128   -4.9987    2.0524 C   0  0  0  0  0  0  0  0  0  0  0  0
    4.1633   -5.2350    1.2034 C   0  0  0  0  0  0  0  0  0  0  0  0
    4.5989   -4.4725    0.0140 C   0  0  0  0  0  0  0  0  0  0  0  0
    4.2040   -3.3958   -0.3963 O   0  0  0  0  0  0  0  0  0  0  0  0
    5.6503   -5.2809   -0.6273 C   0  0  0  0  0  0  0  0  0  0  0  0
    6.3178   -4.9814   -1.8129 C   0  0  0  0  0  0  0  0  0  0  0  0
    7.2362   -5.9295   -2.1922 C   0  0  0  0  0  0  0  0  0  0  0  0
    7.4740   -7.0911   -1.4453 C   0  0  0  0  0  0  0  0  0  0  0  0
    6.8293   -7.3928   -0.2695 C   0  0  0  0  0  0  0  0  0  0  0  0
    5.8902   -6.4393    0.1353 C   0  0  0  0  0  0  0  0  0  0  0  0
    5.0228   -6.4052    1.3104 C   0  0  0  0  0  0  0  0  0  0  0  0
    5.0739   -7.3050    2.3439 C   0  0  0  0  0  0  0  0  0  0  0  0
    4.3148   -7.2670    3.5336 C   0  0  0  0  0  0  0  0  0  0  0  0
    3.7640   -7.3232    4.5405 N   0  0  0  0  0  0  0  0  0  0  0  0
    5.9442   -8.4151    2.3922 C   0  0  0  0  0  0  0  0  0  0  0  0
    6.6169   -9.3385    2.5088 N   0  0  0  0  0  0  0  0  0  0  0  0
    8.5021   -7.6043   -2.4219 C   0  0  0  0  0  0  0  0  0  0  0  0
    8.0725   -8.7293   -3.3959 C   0  0  0  0  0  0  0  0  0  0  0  0
    6.5814   -8.5932   -3.5788 C   0  0  0  0  0  0  0  0  0  0  0  0
    6.3587   -7.4930   -4.2853 C   0  0  0  0  0  0  0  0  0  0  0  0
    7.6957   -6.8648   -4.5923 C   0  0  0  0  0  0  0  0  0  0  0  0
    8.5640   -8.1265   -4.7217 C   0  0  0  0  0  0  0  0  0  0  0  0
    8.2392   -6.3089   -3.2528 C   0  0  0  0  0  0  0  0  0  0  0  0
    2.1612   -3.9642    2.1186 C   0  0  0  0  0  0  0  0  0  0  0  0
    0.8059   -4.1196    3.4781 Se  0  0  0  0  0  2  0  0  0  0  0  0
    0.1568   -2.5335    2.8063 C   0  0  0  0  0  0  0  0  0  0  0  0
   -0.8702   -1.6100    3.0284 C   0  0  0  0  0  0  0  0  0  0  0  0
   -1.8491   -1.5732    4.0425 C   0  0  0  0  0  0  0  0  0  0  0  0
   -2.7356   -0.4521    4.1110 C   0  0  0  0  0  0  0  0  0  0  0  0
   -3.5654   -0.5276    5.1400 N   0  0  0  0  0  0  0  0  0  0  0  0
   -3.2559   -1.8950    5.9494 S   0  0  0  0  0  0  0  0  0  0  0  0
   -2.0501   -2.4455    5.0172 N   0  0  0  0  0  0  0  0  0  0  0  0
   -2.6629    0.5272    3.0949 C   0  0  0  0  0  0  0  0  0  0  0  0
   -3.4695    1.6455    2.8478 C   0  0  0  0  0  0  0  0  0  0  0  0
   -4.8012    2.4812    3.5651 S   0  0  0  0  0  0  0  0  0  0  0  0
   -4.7967    3.5911    2.2143 C   0  0  0  0  0  0  0  0  0  0  0  0
   -5.6016    4.6903    1.8975 C   0  0  0  0  0  0  0  0  0  0  0  0
   -6.6720    5.2153    2.7925 C   0  0  0  0  0  0  0  0  0  0  0  0
   -6.1272    6.3568    3.6547 C   0  0  0  0  0  0  0  0  0  0  0  0
   -5.2024    5.2868    0.7085 C   0  0  0  0  0  0  0  0  0  0  0  0
   -3.8501    4.4341   -0.0384 S   0  0  0  0  0  0  0  0  0  0  0  0
   -3.8036    3.3092    1.2679 C   0  0  0  0  0  0  0  0  0  0  0  0
   -3.0395    2.1983    1.6356 C   0  0  0  0  0  0  0  0  0  0  0  0
   -1.9814    1.4849    1.1443 N   0  0  0  0  0  0  0  0  0  0  0  0
   -1.7179    0.4498    2.0277 C   0  0  0  0  0  0  0  0  0  0  0  0
   -0.7389   -0.5800    2.0540 C   0  0  0  0  0  0  0  0  0  0  0  0
    0.3760   -0.8613    1.2835 N   0  0  0  0  0  0  0  0  0  0  0  0
    0.9213   -2.0405    1.7322 C   0  0  0  0  0  0  0  0  0  0  0  0
    2.0158   -2.8140    1.3581 C   0  0  0  0  0  0  0  0  0  0  0  0
    1.1637    0.0182    0.4472 C   0  0  0  0  0  0  0  0  0  0  0  0
    1.6393    1.2463    1.2200 C   0  0  0  0  0  0  0  0  0  0  0  0
   -1.5743    1.6706   -0.2303 C   0  0  0  0  0  0  0  0  0  0  0  0
   -1.9874    0.4865   -1.1009 C   0  0  0  0  0  0  0  0  0  0  0  0
   -5.8249    6.3806    0.0688 C   0  0  0  0  0  0  0  0  0  0  0  0
   -5.3364    7.1987   -0.9029 C   0  0  0  0  0  0  0  0  0  0  0  0
   -6.2785    7.9539   -1.7792 C   0  0  0  0  0  0  0  0  0  0  0  0
   -7.4566    8.1265   -1.5760 O   0  0  0  0  0  0  0  0  0  0  0  0
   -5.4602    8.3712   -2.9340 C   0  0  0  0  0  0  0  0  0  0  0  0
   -5.8509    8.9969   -4.1165 C   0  0  0  0  0  0  0  0  0  0  0  0
   -7.1378    9.3220   -4.3102 O   0  0  0  0  0  0  0  0  0  0  0  0
   -4.8594    9.2600   -5.0681 C   0  0  0  0  0  0  0  0  0  0  0  0
   -3.5418    8.9075   -4.8459 C   0  0  0  0  0  0  0  0  0  0  0  0
   -3.1453    8.2906   -3.6657 C   0  0  0  0  0  0  0  0  0  0  0  0
   -4.1122    8.0295   -2.7123 C   0  0  0  0  0  0  0  0  0  0  0  0
   -3.9972    7.4410   -1.3793 C   0  0  0  0  0  0  0  0  0  0  0  0
   -2.8565    7.4020   -0.6190 C   0  0  0  0  0  0  0  0  0  0  0  0
   -1.5699    7.7067   -1.1012 C   0  0  0  0  0  0  0  0  0  0  0  0
   -0.4944    7.9117   -1.4481 N   0  0  0  0  0  0  0  0  0  0  0  0
   -2.8807    7.1356    0.7659 C   0  0  0  0  0  0  0  0  0  0  0  0
   -2.8810    6.9767    1.9029 N   0  0  0  0  0  0  0  0  0  0  0  0
    2.9554   -5.7551    2.8143 H   0  0  0  0  0  0  0  0  0  0  0  0
    6.1008   -4.0749   -2.3564 H   0  0  0  0  0  0  0  0  0  0  0  0
    7.0258   -8.2917    0.2898 H   0  0  0  0  0  0  0  0  0  0  0  0
    9.5024   -7.7609   -2.0232 H   0  0  0  0  0  0  0  0  0  0  0  0
    8.4349   -9.7187   -3.1301 H   0  0  0  0  0  0  0  0  0  0  0  0
    5.8610   -9.2589   -3.1406 H   0  0  0  0  0  0  0  0  0  0  0  0
    5.4151   -7.0557   -4.5547 H   0  0  0  0  0  0  0  0  0  0  0  0
    7.7156   -6.1567   -5.4168 H   0  0  0  0  0  0  0  0  0  0  0  0
    9.6330   -7.9182   -4.7338 H   0  0  0  0  0  0  0  0  0  0  0  0
    8.2977   -8.7342   -5.5852 H   0  0  0  0  0  0  0  0  0  0  0  0
    9.0683   -5.6184   -3.3956 H   0  0  0  0  0  0  0  0  0  0  0  0
   -7.5159    5.5762    2.2012 H   0  0  0  0  0  0  0  0  0  0  0  0
   -7.0176    4.4044    3.4369 H   0  0  0  0  0  0  0  0  0  0  0  0
   -6.9069    6.7332    4.3115 H   0  0  0  0  0  0  0  0  0  0  0  0
   -5.7704    7.1701    3.0272 H   0  0  0  0  0  0  0  0  0  0  0  0
   -5.2966    6.0062    4.2619 H   0  0  0  0  0  0  0  0  0  0  0  0
    2.6995   -2.5900    0.5586 H   0  0  0  0  0  0  0  0  0  0  0  0
    0.6096    0.2962   -0.4494 H   0  0  0  0  0  0  0  0  0  0  0  0
    2.0318   -0.5572    0.1213 H   0  0  0  0  0  0  0  0  0  0  0  0
    2.2810    0.9402    2.0430 H   0  0  0  0  0  0  0  0  0  0  0  0
    2.2076    1.9005    0.5643 H   0  0  0  0  0  0  0  0  0  0  0  0
    0.8025    1.8044    1.6336 H   0  0  0  0  0  0  0  0  0  0  0  0
   -0.5032    1.8635   -0.2908 H   0  0  0  0  0  0  0  0  0  0  0  0
   -2.0812    2.5716   -0.5847 H   0  0  0  0  0  0  0  0  0  0  0  0
   -1.6563    0.6457   -2.1236 H   0  0  0  0  0  0  0  0  0  0  0  0
   -3.0702    0.3850   -1.1000 H   0  0  0  0  0  0  0  0  0  0  0  0
   -1.5602   -0.4432   -0.7323 H   0  0  0  0  0  0  0  0  0  0  0  0
   -6.8688    6.5425    0.3217 H   0  0  0  0  0  0  0  0  0  0  0  0
   -7.2595    9.7559   -5.1645 H   0  0  0  0  0  0  0  0  0  0  0  0
   -5.1370    9.7479   -5.9932 H   0  0  0  0  0  0  0  0  0  0  0  0
   -2.8048    9.1185   -5.6058 H   0  0  0  0  0  0  0  0  0  0  0  0
   -2.1141    8.0190   -3.5127 H   0  0  0  0  0  0  0  0  0  0  0  0
  1  2  2  0  0  0  0
  2  3  1  0  0  0  0
  3  4  2  0  0  0  0
  3  5  1  0  0  0  0
  5  6  2  0  0  0  0
  6  7  1  0  0  0  0
  7  8  2  0  0  0  0
  8  9  1  0  0  0  0
  9 10  2  0  0  0  0
 10 11  1  0  0  0  0
 11 12  2  0  0  0  0
 12 13  1  0  0  0  0
 13 14  3  0  0  0  0
 12 15  1  0  0  0  0
 15 16  3  0  0  0  0
  8 17  1  0  0  0  0
 17 18  1  0  0  0  0
 18 19  1  0  0  0  0
 19 20  2  0  0  0  0
 20 21  1  0  0  0  0
 21 22  1  0  0  0  0
 21 23  1  0  0  0  0
  1 24  1  0  0  0  0
 24 25  1  0  0  0  0
 25 26  1  0  0  0  0
 26 27  1  0  0  0  0
 27 28  1  0  0  0  0
 28 29  1  0  0  0  0
 29 30  2  0  0  0  0
 30 31  1  0  0  0  0
 31 32  1  0  0  0  0
 29 33  1  0  0  0  0
 33 34  1  0  0  0  0
 34 35  1  0  0  0  0
 35 36  1  0  0  0  0
 36 37  1  0  0  0  0
 37 38  1  0  0  0  0
 38 39  1  0  0  0  0
 37 40  2  0  0  0  0
 40 41  1  0  0  0  0
 41 42  1  0  0  0  0
 42 43  1  0  0  0  0
 43 44  1  0  0  0  0
 44 45  1  0  0  0  0
 45 46  1  0  0  0  0
 46 47  1  0  0  0  0
 47 48  1  0  0  0  0
 48 49  1  0  0  0  0
 47 50  1  0  0  0  0
 50 51  1  0  0  0  0
 44 52  1  0  0  0  0
 52 53  1  0  0  0  0
 40 54  1  0  0  0  0
 54 55  2  0  0  0  0
 55 56  1  0  0  0  0
 56 57  2  0  0  0  0
 56 58  1  0  0  0  0
 58 59  2  0  0  0  0
 59 60  1  0  0  0  0
 59 61  1  0  0  0  0
 61 62  2  0  0  0  0
 62 63  1  0  0  0  0
 63 64  2  0  0  0  0
 64 65  1  0  0  0  0
 65 66  2  0  0  0  0
 66 67  1  0  0  0  0
 67 68  3  0  0  0  0
 66 69  1  0  0  0  0
 69 70  3  0  0  0  0
 11  2  1  0  0  0  0
 23 17  1  0  0  0  0
 49 24  2  0  0  0  0
 65 55  1  0  0  0  0
 10  5  1  0  0  0  0
 22 18  1  0  0  0  0
 48 26  2  0  0  0  0
 64 58  1  0  0  0  0
 23  7  1  0  0  0  0
 46 27  2  0  0  0  0
 32 28  2  0  0  0  0
 45 33  2  0  0  0  0
 43 34  2  0  0  0  0
 42 36  2  0  0  0  0
  1 71  1  0  0  0  0
  6 72  1  0  0  0  0
  9 73  1  0  0  0  0
 17 74  1  0  0  0  0
 18 75  1  0  0  0  0
 19 76  1  0  0  0  0
 20 77  1  0  0  0  0
 21 78  1  0  0  0  0
 22 79  1  0  0  0  0
 22 80  1  0  0  0  0
 23 81  1  0  0  0  0
 38 82  1  0  0  0  0
 38 83  1  0  0  0  0
 39 84  1  0  0  0  0
 39 85  1  0  0  0  0
 39 86  1  0  0  0  0
 49 87  1  0  0  0  0
 50 88  1  0  0  0  0
 50 89  1  0  0  0  0
 51 90  1  0  0  0  0
 51 91  1  0  0  0  0
 51 92  1  0  0  0  0
 52 93  1  0  0  0  0
 52 94  1  0  0  0  0
 53 95  1  0  0  0  0
 53 96  1  0  0  0  0
 53 97  1  0  0  0  0
 54 98  1  0  0  0  0
 60 99  1  0  0  0  0
 61100  1  0  0  0  0
 62101  1  0  0  0  0
 63102  1  0  0  0  0
M  END
