107

C         -2.41310        5.04310       -2.25740
C         -1.73780        5.87030       -1.40140
C         -0.65830        5.42610       -0.48940
O         -0.41640        4.30290       -0.09100
C          0.13650        6.63670       -0.20910
C          1.32880        6.70090        0.50930
C          1.86020        7.96480        0.59940
C          1.25410        9.08600        0.01690
C          0.07920        9.03740       -0.69600
C         -0.47800        7.75960       -0.79910
C         -1.68650        7.31440       -1.48450
C         -2.65470        8.11080       -2.03700
C         -2.59610        9.51780       -2.08580
N         -2.59720       10.66370       -2.15680
C         -3.86090        7.60980       -2.57120
N         -4.87400        7.26160       -2.98420
C          2.33720       10.01990        0.49710
C          2.00090       10.90000        1.71950
C          3.35450       11.32760        2.23930
C          3.92880       10.26630        2.79100
C          2.97310        9.10310        2.65300
C          1.63550        9.84490        2.77160
C          3.01260        8.76960        1.14680
C         -2.41930        3.63410       -2.16450
S         -2.23350        2.72280       -3.66990
C         -1.98390        1.30140       -2.75150
C         -1.66860       -0.04660       -2.95550
C         -1.59770       -0.80300       -4.14470
C         -1.39710       -2.21750       -4.04520
N         -1.42020       -2.81780       -5.22500
S         -1.66690       -1.69470       -6.36450
N         -1.75680       -0.40070       -5.39580
C         -1.14360       -2.77880       -2.77490
C         -0.77860       -4.08590       -2.42140
S         -0.51310       -5.61870       -3.17100
C          0.02090       -6.25900       -1.63170
C          0.55420       -7.49870       -1.24950
C          0.61270       -8.69630       -2.13620
C         -0.72280       -8.97470       -2.82380
C          0.91110       -7.49280        0.09360
S          0.50140       -5.97440        0.89450
C         -0.03980       -5.31140       -0.59960
C         -0.49940       -4.07190       -1.05350
N         -0.70470       -2.81620       -0.53560
C         -1.11200       -1.99600       -1.58370
C         -1.51590       -0.63300       -1.66450
N         -1.83380        0.32510       -0.72400
C         -2.10990        1.50700       -1.37020
C         -2.42360        2.83550       -1.02430
C         -3.01050        3.32350        0.26420
C         -4.46890        2.86110        0.36490
C         -1.87420        0.23680        0.71350
C         -0.62050        0.85030        1.34030
C          0.03800       -2.50090        0.66840
C          1.49650       -2.18540        0.33980
C          1.50480       -8.49220        0.89450
C          2.49030       -9.35480        0.49970
C          3.39940       -9.11020       -0.64540
O          3.31070       -8.25140       -1.49760
C          4.51660      -10.05970       -0.46260
C          5.65560      -10.20460       -1.22970
C          6.58390      -11.16440       -0.85040
C          6.36850      -11.94670        0.27490
C          5.22580      -11.80230        1.05120
C          4.29020      -10.85070        0.67750
C          3.01430      -10.46130        1.27130
C          2.37840      -11.08810        2.31060
C          1.09050      -10.74280        2.77170
N          0.03690      -10.52690        3.17420
C          2.91240      -12.18180        3.02200
N          3.30120      -13.06680        3.64120
H         -2.85550        5.46820       -3.15070
H          1.76720        5.81270        0.93690
H         -0.37070        9.90320       -1.15300
H          2.87650       10.55880       -0.27950
H          1.27830       11.68830        1.52770
H          3.76460       12.31150        2.10690
H          4.91430       10.18630        3.21100
H          3.13660        8.25470        3.31230
H          0.76830        9.24060        2.51120
H          1.49270       10.28070        3.75900
H          4.00200        8.47440        0.80190
H          1.38950       -8.53150       -2.88790
H          0.90330       -9.56620       -1.54480
H         -0.65250       -9.89700       -3.39460
H         -1.51400       -9.08570       -2.08530
H         -0.99090       -8.17150       -3.50410
H         -2.99860        4.41170        0.28030
H         -2.43740        2.97410        1.12120
H         -5.05670        3.31300       -0.43080
H         -4.89030        3.16570        1.31980
H         -4.55670        1.78020        0.27420
H         -2.02540       -0.80510        0.99960
H         -2.75170        0.78870        1.05720
H         -0.67950        0.79730        2.42460
H         -0.52970        1.89240        1.04210
H          0.28030        0.33990        1.01080
H         -0.01210       -3.38640        1.30830
H         -0.40540       -1.67410        1.20870
H          2.03820       -1.94860        1.25140
H          1.55950       -1.33740       -0.33970
H          1.97330       -3.04000       -0.13420
H          1.19360       -8.50490        1.93320
H          5.80520       -9.58250       -2.09880
H          7.48180      -11.30290       -1.43360
H          7.10470      -12.68390        0.55840
H          5.08610      -12.41690        1.92570
