
  xtb     02022206153D
 energy: -191.950629052835 gnorm: 0.000544649963 xtb: 6.4.1 (unknown)
107120  0     0  0            999 V2000
   -0.4041    1.5055   -5.8000 C   0  0  0  0  0  0  0  0  0  0  0  0
   -1.3741    2.4026   -6.1357 C   0  0  0  0  0  0  0  0  0  0  0  0
   -1.7108    3.6129   -5.3501 C   0  0  0  0  0  0  0  0  0  0  0  0
   -1.1983    3.9786   -4.3126 O   0  0  0  0  0  0  0  0  0  0  0  0
   -2.6846    4.3616   -6.1641 C   0  0  0  0  0  0  0  0  0  0  0  0
   -3.3277    5.5478   -5.8174 C   0  0  0  0  0  0  0  0  0  0  0  0
   -4.2062    6.0076   -6.7685 C   0  0  0  0  0  0  0  0  0  0  0  0
   -4.4115    5.3506   -7.9895 C   0  0  0  0  0  0  0  0  0  0  0  0
   -3.7717    4.1900   -8.3522 C   0  0  0  0  0  0  0  0  0  0  0  0
   -2.8896    3.6924   -7.3883 C   0  0  0  0  0  0  0  0  0  0  0  0
   -2.0825    2.4766   -7.3984 C   0  0  0  0  0  0  0  0  0  0  0  0
   -2.0761    1.5227   -8.3830 C   0  0  0  0  0  0  0  0  0  0  0  0
   -1.3852    0.2945   -8.3110 C   0  0  0  0  0  0  0  0  0  0  0  0
   -0.8812   -0.7374   -8.3153 N   0  0  0  0  0  0  0  0  0  0  0  0
   -2.7883    1.6201   -9.5962 C   0  0  0  0  0  0  0  0  0  0  0  0
   -3.3357    1.6362  -10.6055 N   0  0  0  0  0  0  0  0  0  0  0  0
   -5.4370    6.3558   -8.4494 C   0  0  0  0  0  0  0  0  0  0  0  0
   -6.9274    5.9400   -8.3787 C   0  0  0  0  0  0  0  0  0  0  0  0
   -7.0320    4.9053   -7.2858 C   0  0  0  0  0  0  0  0  0  0  0  0
   -6.8424    5.5211   -6.1265 C   0  0  0  0  0  0  0  0  0  0  0  0
   -6.6068    6.9832   -6.4145 C   0  0  0  0  0  0  0  0  0  0  0  0
   -7.5045    7.1634   -7.6490 C   0  0  0  0  0  0  0  0  0  0  0  0
   -5.2141    7.0833   -7.0862 C   0  0  0  0  0  0  0  0  0  0  0  0
    0.1376    1.2294   -4.5157 C   0  0  0  0  0  0  0  0  0  0  0  0
    1.8467    0.8037   -4.5153 S   0  0  0  0  0  0  0  0  0  0  0  0
    1.7316    0.4133   -2.8616 C   0  0  0  0  0  0  0  0  0  0  0  0
    2.5768   -0.0555   -1.8506 C   0  0  0  0  0  0  0  0  0  0  0  0
    3.9755   -0.2444   -1.8272 C   0  0  0  0  0  0  0  0  0  0  0  0
    4.5951   -0.6262   -0.5936 C   0  0  0  0  0  0  0  0  0  0  0  0
    5.9126   -0.7089   -0.6923 N   0  0  0  0  0  0  0  0  0  0  0  0
    6.3353   -0.3417   -2.2111 S   0  0  0  0  0  0  0  0  0  0  0  0
    4.8547   -0.0624   -2.7998 N   0  0  0  0  0  0  0  0  0  0  0  0
    3.7720   -0.9225    0.5155 C   0  0  0  0  0  0  0  0  0  0  0  0
    4.0918   -1.4600    1.7677 C   0  0  0  0  0  0  0  0  0  0  0  0
    5.4882   -1.9396    2.6669 S   0  0  0  0  0  0  0  0  0  0  0  0
    4.4289   -2.4959    3.9509 C   0  0  0  0  0  0  0  0  0  0  0  0
    4.6802   -3.1002    5.1720 C   0  0  0  0  0  0  0  0  0  0  0  0
    6.0595   -3.3704    5.6761 C   0  0  0  0  0  0  0  0  0  0  0  0
    6.5328   -2.2470    6.6029 C   0  0  0  0  0  0  0  0  0  0  0  0
    3.4841   -3.3651    5.8706 C   0  0  0  0  0  0  0  0  0  0  0  0
    2.0581   -2.8559    4.9600 S   0  0  0  0  0  0  0  0  0  0  0  0
    3.0612   -2.3005    3.6757 C   0  0  0  0  0  0  0  0  0  0  0  0
    2.8805   -1.7042    2.4272 C   0  0  0  0  0  0  0  0  0  0  0  0
    1.8274   -1.3073    1.6436 N   0  0  0  0  0  0  0  0  0  0  0  0
    2.3486   -0.8128    0.4582 C   0  0  0  0  0  0  0  0  0  0  0  0
    1.7600   -0.2519   -0.7074 C   0  0  0  0  0  0  0  0  0  0  0  0
    0.4671    0.1537   -1.0103 N   0  0  0  0  0  0  0  0  0  0  0  0
    0.4391    0.5623   -2.3341 C   0  0  0  0  0  0  0  0  0  0  0  0
   -0.4916    1.0434   -3.2846 C   0  0  0  0  0  0  0  0  0  0  0  0
   -1.9863    1.1137   -3.1580 C   0  0  0  0  0  0  0  0  0  0  0  0
   -2.5362    2.2848   -2.3383 C   0  0  0  0  0  0  0  0  0  0  0  0
   -0.4892    0.5962   -0.0177 C   0  0  0  0  0  0  0  0  0  0  0  0
   -1.7489   -0.2690    0.0668 C   0  0  0  0  0  0  0  0  0  0  0  0
    0.5287   -1.8902    1.9110 C   0  0  0  0  0  0  0  0  0  0  0  0
    0.3008   -3.1291    1.0485 C   0  0  0  0  0  0  0  0  0  0  0  0
    3.4582   -3.9581    7.1310 C   0  0  0  0  0  0  0  0  0  0  0  0
    2.4056   -4.2574    7.9702 C   0  0  0  0  0  0  0  0  0  0  0  0
    0.9923   -4.0028    7.7044 C   0  0  0  0  0  0  0  0  0  0  0  0
    0.4859   -3.5218    6.7052 O   0  0  0  0  0  0  0  0  0  0  0  0
    0.2643   -4.4561    8.9078 C   0  0  0  0  0  0  0  0  0  0  0  0
   -1.0899   -4.4157    9.1603 C   0  0  0  0  0  0  0  0  0  0  0  0
   -1.5440   -4.9009   10.3802 C   0  0  0  0  0  0  0  0  0  0  0  0
   -3.3957   -4.8564   10.7609 Br  0  0  0  0  0  0  0  0  0  0  0  0
   -0.6426   -5.4132   11.3132 C   0  0  0  0  0  0  0  0  0  0  0  0
   -1.2682   -6.0701   12.9733 Br  0  0  0  0  0  0  0  0  0  0  0  0
    0.7236   -5.4535   11.0532 C   0  0  0  0  0  0  0  0  0  0  0  0
    1.1822   -4.9702    9.8397 C   0  0  0  0  0  0  0  0  0  0  0  0
    2.5300   -4.8674    9.2764 C   0  0  0  0  0  0  0  0  0  0  0  0
    3.6753   -5.2898    9.9039 C   0  0  0  0  0  0  0  0  0  0  0  0
    4.9827   -5.2015    9.3831 C   0  0  0  0  0  0  0  0  0  0  0  0
    6.0763   -5.1671    9.0314 N   0  0  0  0  0  0  0  0  0  0  0  0
    3.6994   -5.8851   11.1827 C   0  0  0  0  0  0  0  0  0  0  0  0
    3.7838   -6.3781   12.2159 N   0  0  0  0  0  0  0  0  0  0  0  0
    0.0481    0.9280   -6.5986 H   0  0  0  0  0  0  0  0  0  0  0  0
   -3.1355    6.0260   -4.8695 H   0  0  0  0  0  0  0  0  0  0  0  0
   -3.9353    3.7004   -9.2976 H   0  0  0  0  0  0  0  0  0  0  0  0
   -5.1995    6.8980   -9.3622 H   0  0  0  0  0  0  0  0  0  0  0  0
   -7.3674    5.6730   -9.3356 H   0  0  0  0  0  0  0  0  0  0  0  0
   -7.1719    3.8556   -7.4667 H   0  0  0  0  0  0  0  0  0  0  0  0
   -6.7920    5.0883   -5.1444 H   0  0  0  0  0  0  0  0  0  0  0  0
   -6.7566    7.6662   -5.5824 H   0  0  0  0  0  0  0  0  0  0  0  0
   -8.5634    7.0553   -7.4188 H   0  0  0  0  0  0  0  0  0  0  0  0
   -7.3362    8.1020   -8.1751 H   0  0  0  0  0  0  0  0  0  0  0  0
   -4.8367    8.1037   -7.1070 H   0  0  0  0  0  0  0  0  0  0  0  0
    6.1029   -4.3215    6.2089 H   0  0  0  0  0  0  0  0  0  0  0  0
    6.7306   -3.4286    4.8170 H   0  0  0  0  0  0  0  0  0  0  0  0
    5.8815   -2.1605    7.4694 H   0  0  0  0  0  0  0  0  0  0  0  0
    7.5400   -2.4582    6.9499 H   0  0  0  0  0  0  0  0  0  0  0  0
    6.5363   -1.2967    6.0742 H   0  0  0  0  0  0  0  0  0  0  0  0
   -2.3406    0.1669   -2.7406 H   0  0  0  0  0  0  0  0  0  0  0  0
   -2.3953    1.1905   -4.1673 H   0  0  0  0  0  0  0  0  0  0  0  0
   -3.5996    2.3949   -2.5404 H   0  0  0  0  0  0  0  0  0  0  0  0
   -2.4137    2.1405   -1.2703 H   0  0  0  0  0  0  0  0  0  0  0  0
   -2.0356    3.2056   -2.6200 H   0  0  0  0  0  0  0  0  0  0  0  0
    0.0307    0.6253    0.9419 H   0  0  0  0  0  0  0  0  0  0  0  0
   -0.7654    1.6275   -0.2566 H   0  0  0  0  0  0  0  0  0  0  0  0
   -1.5078   -1.3248   -0.0126 H   0  0  0  0  0  0  0  0  0  0  0  0
   -2.4440   -0.0298   -0.7298 H   0  0  0  0  0  0  0  0  0  0  0  0
   -2.2558   -0.0901    1.0124 H   0  0  0  0  0  0  0  0  0  0  0  0
   -0.2662   -1.1669    1.7630 H   0  0  0  0  0  0  0  0  0  0  0  0
    0.5254   -2.1734    2.9662 H   0  0  0  0  0  0  0  0  0  0  0  0
    0.3433   -2.8771   -0.0094 H   0  0  0  0  0  0  0  0  0  0  0  0
    1.0662   -3.8743    1.2525 H   0  0  0  0  0  0  0  0  0  0  0  0
   -0.6702   -3.5621    1.2722 H   0  0  0  0  0  0  0  0  0  0  0  0
    4.4406   -4.2114    7.5051 H   0  0  0  0  0  0  0  0  0  0  0  0
   -1.7762   -4.0167    8.4298 H   0  0  0  0  0  0  0  0  0  0  0  0
    1.3872   -5.8565   11.8006 H   0  0  0  0  0  0  0  0  0  0  0  0
  1  2  2  0  0  0  0
  2  3  1  0  0  0  0
  3  4  2  0  0  0  0
  3  5  1  0  0  0  0
  5  6  2  0  0  0  0
  6  7  1  0  0  0  0
  7  8  2  0  0  0  0
  8  9  1  0  0  0  0
  9 10  2  0  0  0  0
 10 11  1  0  0  0  0
 11 12  2  0  0  0  0
 12 13  1  0  0  0  0
 13 14  3  0  0  0  0
 12 15  1  0  0  0  0
 15 16  3  0  0  0  0
  8 17  1  0  0  0  0
 17 18  1  0  0  0  0
 18 19  1  0  0  0  0
 19 20  2  0  0  0  0
 20 21  1  0  0  0  0
 21 22  1  0  0  0  0
 21 23  1  0  0  0  0
  1 24  1  0  0  0  0
 24 25  1  0  0  0  0
 25 26  1  0  0  0  0
 26 27  1  0  0  0  0
 27 28  1  0  0  0  0
 28 29  1  0  0  0  0
 29 30  2  0  0  0  0
 30 31  1  0  0  0  0
 31 32  1  0  0  0  0
 29 33  1  0  0  0  0
 33 34  1  0  0  0  0
 34 35  1  0  0  0  0
 35 36  1  0  0  0  0
 36 37  1  0  0  0  0
 37 38  1  0  0  0  0
 38 39  1  0  0  0  0
 37 40  2  0  0  0  0
 40 41  1  0  0  0  0
 41 42  1  0  0  0  0
 42 43  1  0  0  0  0
 43 44  1  0  0  0  0
 44 45  1  0  0  0  0
 45 46  1  0  0  0  0
 46 47  1  0  0  0  0
 47 48  1  0  0  0  0
 48 49  1  0  0  0  0
 49 50  1  0  0  0  0
 50 51  1  0  0  0  0
 47 52  1  0  0  0  0
 52 53  1  0  0  0  0
 44 54  1  0  0  0  0
 54 55  1  0  0  0  0
 40 56  1  0  0  0  0
 56 57  2  0  0  0  0
 57 58  1  0  0  0  0
 58 59  2  0  0  0  0
 58 60  1  0  0  0  0
 60 61  2  0  0  0  0
 61 62  1  0  0  0  0
 62 63  1  0  0  0  0
 62 64  2  0  0  0  0
 64 65  1  0  0  0  0
 64 66  1  0  0  0  0
 66 67  2  0  0  0  0
 67 68  1  0  0  0  0
 68 69  2  0  0  0  0
 69 70  1  0  0  0  0
 70 71  3  0  0  0  0
 69 72  1  0  0  0  0
 72 73  3  0  0  0  0
 11  2  1  0  0  0  0
 23 17  1  0  0  0  0
 49 24  2  0  0  0  0
 68 57  1  0  0  0  0
 10  5  1  0  0  0  0
 22 18  1  0  0  0  0
 48 26  2  0  0  0  0
 67 60  1  0  0  0  0
 23  7  1  0  0  0  0
 46 27  2  0  0  0  0
 32 28  2  0  0  0  0
 45 33  2  0  0  0  0
 43 34  2  0  0  0  0
 42 36  2  0  0  0  0
  1 74  1  0  0  0  0
  6 75  1  0  0  0  0
  9 76  1  0  0  0  0
 17 77  1  0  0  0  0
 18 78  1  0  0  0  0
 19 79  1  0  0  0  0
 20 80  1  0  0  0  0
 21 81  1  0  0  0  0
 22 82  1  0  0  0  0
 22 83  1  0  0  0  0
 23 84  1  0  0  0  0
 38 85  1  0  0  0  0
 38 86  1  0  0  0  0
 39 87  1  0  0  0  0
 39 88  1  0  0  0  0
 39 89  1  0  0  0  0
 50 90  1  0  0  0  0
 50 91  1  0  0  0  0
 51 92  1  0  0  0  0
 51 93  1  0  0  0  0
 51 94  1  0  0  0  0
 52 95  1  0  0  0  0
 52 96  1  0  0  0  0
 53 97  1  0  0  0  0
 53 98  1  0  0  0  0
 53 99  1  0  0  0  0
 54100  1  0  0  0  0
 54101  1  0  0  0  0
 55102  1  0  0  0  0
 55103  1  0  0  0  0
 55104  1  0  0  0  0
 56105  1  0  0  0  0
 61106  1  0  0  0  0
 66107  1  0  0  0  0
M  END
