
  xtb     02022206383D
 energy: -193.565459565292 gnorm: 0.000508273812 xtb: 6.4.1 (unknown)
107122  0     0  0            999 V2000
   -6.3406   -1.5643   -3.0830 C   0  0  0  0  0  0  0  0  0  0  0  0
   -5.7122   -2.0754   -4.1908 C   0  0  0  0  0  0  0  0  0  0  0  0
   -4.3081   -1.8791   -4.5610 C   0  0  0  0  0  0  0  0  0  0  0  0
   -3.4348   -1.3326   -3.9068 O   0  0  0  0  0  0  0  0  0  0  0  0
   -4.1478   -2.4624   -5.9035 C   0  0  0  0  0  0  0  0  0  0  0  0
   -2.9968   -2.4583   -6.6885 C   0  0  0  0  0  0  0  0  0  0  0  0
   -3.1534   -3.0624   -7.9129 C   0  0  0  0  0  0  0  0  0  0  0  0
   -4.3663   -3.6283   -8.3268 C   0  0  0  0  0  0  0  0  0  0  0  0
   -5.5093   -3.6378   -7.5628 C   0  0  0  0  0  0  0  0  0  0  0  0
   -5.3719   -3.0294   -6.3116 C   0  0  0  0  0  0  0  0  0  0  0  0
   -6.3528   -2.8374   -5.2443 C   0  0  0  0  0  0  0  0  0  0  0  0
   -7.6307   -3.3369   -5.2447 C   0  0  0  0  0  0  0  0  0  0  0  0
   -8.5684   -3.1996   -4.2004 C   0  0  0  0  0  0  0  0  0  0  0  0
   -9.3893   -3.1442   -3.3978 N   0  0  0  0  0  0  0  0  0  0  0  0
   -8.1912   -4.0977   -6.2918 C   0  0  0  0  0  0  0  0  0  0  0  0
   -8.7142   -4.7230   -7.1006 N   0  0  0  0  0  0  0  0  0  0  0  0
   -3.8051   -4.0547   -9.6604 C   0  0  0  0  0  0  0  0  0  0  0  0
   -3.4496   -5.5486   -9.8143 C   0  0  0  0  0  0  0  0  0  0  0  0
   -2.5062   -5.5749  -10.9952 C   0  0  0  0  0  0  0  0  0  0  0  0
   -1.3572   -5.0376  -10.6057 C   0  0  0  0  0  0  0  0  0  0  0  0
   -1.5044   -4.6396   -9.1547 C   0  0  0  0  0  0  0  0  0  0  0  0
   -2.4465   -5.7495   -8.6709 C   0  0  0  0  0  0  0  0  0  0  0  0
   -2.4525   -3.4226   -9.1995 C   0  0  0  0  0  0  0  0  0  0  0  0
   -5.8389   -0.8304   -2.0017 C   0  0  0  0  0  0  0  0  0  0  0  0
   -6.6530   -0.3399   -0.9667 C   0  0  0  0  0  0  0  0  0  0  0  0
   -8.1306   -0.5238   -0.8469 C   0  0  0  0  0  0  0  0  0  0  0  0
   -8.4608   -1.8638   -0.1837 C   0  0  0  0  0  0  0  0  0  0  0  0
   -5.9021    0.3184   -0.0017 C   0  0  0  0  0  0  0  0  0  0  0  0
   -4.5220    0.3402   -0.2646 C   0  0  0  0  0  0  0  0  0  0  0  0
   -4.1357   -0.4399   -1.7516 S   0  0  0  0  0  0  0  0  0  0  0  0
   -3.8301    1.0157    0.7445 C   0  0  0  0  0  0  0  0  0  0  0  0
   -4.6798    1.5154    1.7381 C   0  0  0  0  0  0  0  0  0  0  0  0
   -6.3489    1.1440    1.4806 S   0  0  0  0  0  0  0  0  0  0  0  0
   -3.8754    2.2075    2.6537 C   0  0  0  0  0  0  0  0  0  0  0  0
   -4.2114    3.0139    3.7644 C   0  0  0  0  0  0  0  0  0  0  0  0
   -5.4102    3.2814    4.2568 N   0  0  0  0  0  0  0  0  0  0  0  0
   -5.2412    4.3296    5.4791 S   0  0  0  0  0  0  0  0  0  0  0  0
   -3.6299    4.4794    5.4295 N   0  0  0  0  0  0  0  0  0  0  0  0
   -3.1669    3.7136    4.4549 C   0  0  0  0  0  0  0  0  0  0  0  0
   -1.8239    3.4627    4.0929 C   0  0  0  0  0  0  0  0  0  0  0  0
   -0.6207    3.8397    4.7013 C   0  0  0  0  0  0  0  0  0  0  0  0
   -0.0752    4.8136    6.0236 S   0  0  0  0  0  0  0  0  0  0  0  0
    1.5585    4.2634    5.7108 C   0  0  0  0  0  0  0  0  0  0  0  0
    2.7723    4.5092    6.3210 C   0  0  0  0  0  0  0  0  0  0  0  0
    3.8273    3.8094    5.7299 C   0  0  0  0  0  0  0  0  0  0  0  0
    3.2773    2.8314    4.3744 S   0  0  0  0  0  0  0  0  0  0  0  0
    1.6580    3.3729    4.6218 C   0  0  0  0  0  0  0  0  0  0  0  0
    0.4066    3.1492    4.0428 C   0  0  0  0  0  0  0  0  0  0  0  0
   -0.1206    2.3877    3.0336 N   0  0  0  0  0  0  0  0  0  0  0  0
    0.6879    1.3677    2.4049 C   0  0  0  0  0  0  0  0  0  0  0  0
    1.6334    1.9508    1.3547 C   0  0  0  0  0  0  0  0  0  0  0  0
   -1.4869    2.5774    3.0256 C   0  0  0  0  0  0  0  0  0  0  0  0
   -2.5278    2.0602    2.2116 C   0  0  0  0  0  0  0  0  0  0  0  0
   -2.5279    1.3389    1.0295 N   0  0  0  0  0  0  0  0  0  0  0  0
   -1.5882    1.3655   -0.0714 C   0  0  0  0  0  0  0  0  0  0  0  0
   -1.8132    2.5964   -0.9483 C   0  0  0  0  0  0  0  0  0  0  0  0
    5.1408    3.9068    6.2074 C   0  0  0  0  0  0  0  0  0  0  0  0
    6.2880    3.2784    5.7916 C   0  0  0  0  0  0  0  0  0  0  0  0
    6.3801    2.3040    4.7008 C   0  0  0  0  0  0  0  0  0  0  0  0
    5.4858    1.9353    3.9559 O   0  0  0  0  0  0  0  0  0  0  0  0
    7.7767    1.8444    4.6742 C   0  0  0  0  0  0  0  0  0  0  0  0
    8.3476    0.9095    3.8453 C   0  0  0  0  0  0  0  0  0  0  0  0
    9.7047    0.6232    4.0225 C   0  0  0  0  0  0  0  0  0  0  0  0
   10.5294   -0.2960    3.3148 C   0  0  0  0  0  0  0  0  0  0  0  0
   11.8015   -0.3094    3.7693 C   0  0  0  0  0  0  0  0  0  0  0  0
   12.0821    0.7868    5.0773 S   0  0  0  0  0  0  0  0  0  0  0  0
   10.4254    1.3016    5.0337 C   0  0  0  0  0  0  0  0  0  0  0  0
    9.8479    2.2507    5.8699 C   0  0  0  0  0  0  0  0  0  0  0  0
    8.5061    2.5217    5.6838 C   0  0  0  0  0  0  0  0  0  0  0  0
    7.6051    3.4363    6.3783 C   0  0  0  0  0  0  0  0  0  0  0  0
    7.9709    4.2897    7.3887 C   0  0  0  0  0  0  0  0  0  0  0  0
    9.2809    4.3930    7.9010 C   0  0  0  0  0  0  0  0  0  0  0  0
   10.3227    4.5264    8.3651 N   0  0  0  0  0  0  0  0  0  0  0  0
    7.1194    5.1934    8.0566 C   0  0  0  0  0  0  0  0  0  0  0  0
    6.4978    5.9568    8.6494 N   0  0  0  0  0  0  0  0  0  0  0  0
   -7.4067   -1.7371   -3.0227 H   0  0  0  0  0  0  0  0  0  0  0  0
   -2.0850   -2.0047   -6.3325 H   0  0  0  0  0  0  0  0  0  0  0  0
   -6.4364   -4.0681   -7.9022 H   0  0  0  0  0  0  0  0  0  0  0  0
   -4.3012   -3.6429  -10.5372 H   0  0  0  0  0  0  0  0  0  0  0  0
   -4.3044   -6.2179   -9.8549 H   0  0  0  0  0  0  0  0  0  0  0  0
   -2.7810   -5.9188  -11.9750 H   0  0  0  0  0  0  0  0  0  0  0  0
   -0.4806   -4.8427  -11.1953 H   0  0  0  0  0  0  0  0  0  0  0  0
   -0.5862   -4.4817   -8.5952 H   0  0  0  0  0  0  0  0  0  0  0  0
   -2.8629   -5.5776   -7.6800 H   0  0  0  0  0  0  0  0  0  0  0  0
   -1.9769   -6.7311   -8.7033 H   0  0  0  0  0  0  0  0  0  0  0  0
   -2.0475   -2.5879   -9.7688 H   0  0  0  0  0  0  0  0  0  0  0  0
   -8.6141   -0.4734   -1.8233 H   0  0  0  0  0  0  0  0  0  0  0  0
   -8.5236    0.2858   -0.2283 H   0  0  0  0  0  0  0  0  0  0  0  0
   -9.5365   -1.9623   -0.0709 H   0  0  0  0  0  0  0  0  0  0  0  0
   -8.1041   -2.6925   -0.7903 H   0  0  0  0  0  0  0  0  0  0  0  0
   -7.9982   -1.9234    0.7986 H   0  0  0  0  0  0  0  0  0  0  0  0
    2.9136    5.1599    7.1649 H   0  0  0  0  0  0  0  0  0  0  0  0
    1.2923    0.8969    3.1882 H   0  0  0  0  0  0  0  0  0  0  0  0
    0.0306    0.6010    1.9922 H   0  0  0  0  0  0  0  0  0  0  0  0
    2.4012    2.5480    1.8385 H   0  0  0  0  0  0  0  0  0  0  0  0
    1.1050    2.5869    0.6480 H   0  0  0  0  0  0  0  0  0  0  0  0
    2.1215    1.1460    0.8124 H   0  0  0  0  0  0  0  0  0  0  0  0
   -1.7563    0.4597   -0.6604 H   0  0  0  0  0  0  0  0  0  0  0  0
   -0.5676    1.3626    0.2904 H   0  0  0  0  0  0  0  0  0  0  0  0
   -1.1101    2.5898   -1.7761 H   0  0  0  0  0  0  0  0  0  0  0  0
   -1.6700    3.5072   -0.3700 H   0  0  0  0  0  0  0  0  0  0  0  0
   -2.8220    2.5966   -1.3531 H   0  0  0  0  0  0  0  0  0  0  0  0
    5.2318    4.5836    7.0482 H   0  0  0  0  0  0  0  0  0  0  0  0
    7.7636    0.4127    3.0861 H   0  0  0  0  0  0  0  0  0  0  0  0
   10.1715   -0.9102    2.5083 H   0  0  0  0  0  0  0  0  0  0  0  0
   12.6201   -0.9059    3.4163 H   0  0  0  0  0  0  0  0  0  0  0  0
   10.4416    2.7370    6.6255 H   0  0  0  0  0  0  0  0  0  0  0  0
  1  2  2  0  0  0  0
  2  3  1  0  0  0  0
  3  4  2  0  0  0  0
  3  5  1  0  0  0  0
  5  6  2  0  0  0  0
  6  7  1  0  0  0  0
  7  8  2  0  0  0  0
  8  9  1  0  0  0  0
  9 10  2  0  0  0  0
 10 11  1  0  0  0  0
 11 12  2  0  0  0  0
 12 13  1  0  0  0  0
 13 14  3  0  0  0  0
 12 15  1  0  0  0  0
 15 16  3  0  0  0  0
  8 17  1  0  0  0  0
 17 18  1  0  0  0  0
 18 19  1  0  0  0  0
 19 20  2  0  0  0  0
 20 21  1  0  0  0  0
 21 22  1  0  0  0  0
 21 23  1  0  0  0  0
  1 24  1  0  0  0  0
 24 25  2  0  0  0  0
 25 26  1  0  0  0  0
 26 27  1  0  0  0  0
 25 28  1  0  0  0  0
 28 29  2  0  0  0  0
 29 30  1  0  0  0  0
 29 31  1  0  0  0  0
 31 32  2  0  0  0  0
 32 33  1  0  0  0  0
 32 34  1  0  0  0  0
 34 35  1  0  0  0  0
 35 36  2  0  0  0  0
 36 37  1  0  0  0  0
 37 38  1  0  0  0  0
 38 39  2  0  0  0  0
 39 40  1  0  0  0  0
 40 41  1  0  0  0  0
 41 42  1  0  0  0  0
 42 43  1  0  0  0  0
 43 44  1  0  0  0  0
 44 45  2  0  0  0  0
 45 46  1  0  0  0  0
 46 47  1  0  0  0  0
 47 48  1  0  0  0  0
 48 49  1  0  0  0  0
 49 50  1  0  0  0  0
 50 51  1  0  0  0  0
 49 52  1  0  0  0  0
 52 53  1  0  0  0  0
 53 54  1  0  0  0  0
 54 55  1  0  0  0  0
 55 56  1  0  0  0  0
 45 57  1  0  0  0  0
 57 58  2  0  0  0  0
 58 59  1  0  0  0  0
 59 60  2  0  0  0  0
 59 61  1  0  0  0  0
 61 62  2  0  0  0  0
 62 63  1  0  0  0  0
 63 64  1  0  0  0  0
 64 65  2  0  0  0  0
 65 66  1  0  0  0  0
 66 67  1  0  0  0  0
 67 68  1  0  0  0  0
 68 69  2  0  0  0  0
 69 70  1  0  0  0  0
 70 71  2  0  0  0  0
 71 72  1  0  0  0  0
 72 73  3  0  0  0  0
 71 74  1  0  0  0  0
 74 75  3  0  0  0  0
 11  2  1  0  0  0  0
 23 17  1  0  0  0  0
 30 24  1  0  0  0  0
 54 31  1  0  0  0  0
 70 58  1  0  0  0  0
 10  5  1  0  0  0  0
 22 18  1  0  0  0  0
 33 28  1  0  0  0  0
 53 34  2  0  0  0  0
 69 61  1  0  0  0  0
 23  7  1  0  0  0  0
 39 35  1  0  0  0  0
 52 40  2  0  0  0  0
 67 63  2  0  0  0  0
 48 41  2  0  0  0  0
 47 43  2  0  0  0  0
  1 76  1  0  0  0  0
  6 77  1  0  0  0  0
  9 78  1  0  0  0  0
 17 79  1  0  0  0  0
 18 80  1  0  0  0  0
 19 81  1  0  0  0  0
 20 82  1  0  0  0  0
 21 83  1  0  0  0  0
 22 84  1  0  0  0  0
 22 85  1  0  0  0  0
 23 86  1  0  0  0  0
 26 87  1  0  0  0  0
 26 88  1  0  0  0  0
 27 89  1  0  0  0  0
 27 90  1  0  0  0  0
 27 91  1  0  0  0  0
 44 92  1  0  0  0  0
 50 93  1  0  0  0  0
 50 94  1  0  0  0  0
 51 95  1  0  0  0  0
 51 96  1  0  0  0  0
 51 97  1  0  0  0  0
 55 98  1  0  0  0  0
 55 99  1  0  0  0  0
 56100  1  0  0  0  0
 56101  1  0  0  0  0
 56102  1  0  0  0  0
 57103  1  0  0  0  0
 62104  1  0  0  0  0
 64105  1  0  0  0  0
 65106  1  0  0  0  0
 68107  1  0  0  0  0
M  END
