
  xtb     02102222583D
 energy: -175.395550585854 gnorm: 0.000226305753 xtb: 6.4.1 (unknown)
100112  0     0  0            999 V2000
    4.1048    4.2432   -2.3840 C   0  0  0  0  0  0  0  0  0  0  0  0
    4.2969    5.0575   -1.3008 C   0  0  0  0  0  0  0  0  0  0  0  0
    3.5883    5.0235   -0.0007 C   0  0  0  0  0  0  0  0  0  0  0  0
    2.9356    4.1234    0.4925 O   0  0  0  0  0  0  0  0  0  0  0  0
    3.7958    6.3546    0.5992 C   0  0  0  0  0  0  0  0  0  0  0  0
    3.2169    6.8375    1.7716 C   0  0  0  0  0  0  0  0  0  0  0  0
    3.5717    8.1284    2.0798 C   0  0  0  0  0  0  0  0  0  0  0  0
    4.4374    8.8877    1.2806 C   0  0  0  0  0  0  0  0  0  0  0  0
    5.0170    8.4237    0.1237 C   0  0  0  0  0  0  0  0  0  0  0  0
    4.6705    7.1099   -0.2060 C   0  0  0  0  0  0  0  0  0  0  0  0
    5.0660    6.2897   -1.3454 C   0  0  0  0  0  0  0  0  0  0  0  0
    6.0579    6.5870   -2.2420 C   0  0  0  0  0  0  0  0  0  0  0  0
    6.8125    7.7783   -2.2246 C   0  0  0  0  0  0  0  0  0  0  0  0
    7.4598    8.7257   -2.2634 N   0  0  0  0  0  0  0  0  0  0  0  0
    6.5070    5.7188   -3.2605 C   0  0  0  0  0  0  0  0  0  0  0  0
    6.9452    5.0563   -4.0897 N   0  0  0  0  0  0  0  0  0  0  0  0
    4.3414   10.0931    2.1822 C   0  0  0  0  0  0  0  0  0  0  0  0
    5.5385   10.3507    3.1216 C   0  0  0  0  0  0  0  0  0  0  0  0
    4.9731   11.2663    4.1832 C   0  0  0  0  0  0  0  0  0  0  0  0
    4.1539   10.5483    4.9409 C   0  0  0  0  0  0  0  0  0  0  0  0
    4.1519    9.1350    4.4041 C   0  0  0  0  0  0  0  0  0  0  0  0
    5.6017    9.0374    3.9121 C   0  0  0  0  0  0  0  0  0  0  0  0
    3.3773    9.2464    3.0738 C   0  0  0  0  0  0  0  0  0  0  0  0
    3.3935    3.0298   -2.4759 C   0  0  0  0  0  0  0  0  0  0  0  0
    2.7822    2.4667   -4.2101 Se  0  0  0  0  0  2  0  0  0  0  0  0
    1.9981    1.0594   -3.3148 C   0  0  0  0  0  0  0  0  0  0  0  0
    1.2062   -0.0692   -3.5535 C   0  0  0  0  0  0  0  0  0  0  0  0
    0.7258   -0.5833   -4.7746 C   0  0  0  0  0  0  0  0  0  0  0  0
   -0.0247   -1.7995   -4.7666 C   0  0  0  0  0  0  0  0  0  0  0  0
   -0.3814   -2.1816   -5.9835 N   0  0  0  0  0  0  0  0  0  0  0  0
    0.1807   -1.0969   -7.0454 S   0  0  0  0  0  0  0  0  0  0  0  0
    0.9013   -0.0974   -5.9934 N   0  0  0  0  0  0  0  0  0  0  0  0
   -0.3202   -2.3985   -3.5222 C   0  0  0  0  0  0  0  0  0  0  0  0
   -1.1174   -3.5113   -3.2246 C   0  0  0  0  0  0  0  0  0  0  0  0
   -2.0664   -4.7000   -4.0437 S   0  0  0  0  0  0  0  0  0  0  0  0
   -2.5531   -5.3550   -2.4952 C   0  0  0  0  0  0  0  0  0  0  0  0
   -3.4263   -6.3939   -2.1278 C   0  0  0  0  0  0  0  0  0  0  0  0
   -4.0608   -7.3275   -3.1062 C   0  0  0  0  0  0  0  0  0  0  0  0
   -3.0586   -7.8817   -4.1184 C   0  0  0  0  0  0  0  0  0  0  0  0
   -3.5231   -6.4996   -0.7464 C   0  0  0  0  0  0  0  0  0  0  0  0
   -2.4843   -5.3425    0.0877 S   0  0  0  0  0  0  0  0  0  0  0  0
   -1.9820   -4.6705   -1.4158 C   0  0  0  0  0  0  0  0  0  0  0  0
   -1.1596   -3.6194   -1.8324 C   0  0  0  0  0  0  0  0  0  0  0  0
   -0.4181   -2.6212   -1.2633 N   0  0  0  0  0  0  0  0  0  0  0  0
    0.1303   -1.8566   -2.2794 C   0  0  0  0  0  0  0  0  0  0  0  0
    0.9749   -0.7101   -2.3003 C   0  0  0  0  0  0  0  0  0  0  0  0
    1.6634    0.0022   -1.3370 N   0  0  0  0  0  0  0  0  0  0  0  0
    2.2632    1.0798   -1.9364 C   0  0  0  0  0  0  0  0  0  0  0  0
    3.0380    2.1422   -1.4758 C   0  0  0  0  0  0  0  0  0  0  0  0
    1.9527   -0.2565    0.0547 C   0  0  0  0  0  0  0  0  0  0  0  0
    1.1604    0.6635    0.9847 C   0  0  0  0  0  0  0  0  0  0  0  0
   -0.4629   -2.4545    0.1701 C   0  0  0  0  0  0  0  0  0  0  0  0
    0.4723   -3.4306    0.8844 C   0  0  0  0  0  0  0  0  0  0  0  0
   -4.3317   -7.3748    0.0235 C   0  0  0  0  0  0  0  0  0  0  0  0
   -5.5914   -7.8352   -0.2699 C   0  0  0  0  0  0  0  0  0  0  0  0
   -6.4395   -7.3595   -1.2814 C   0  0  0  0  0  0  0  0  0  0  0  0
   -7.1077   -6.8922   -2.0880 N   0  0  0  0  0  0  0  0  0  0  0  0
   -5.9665   -8.7853    0.7526 C   0  0  0  0  0  0  0  0  0  0  0  0
   -7.1233   -9.5077    0.8530 C   0  0  0  0  0  0  0  0  0  0  0  0
   -8.1555   -9.4327   -0.1002 C   0  0  0  0  0  0  0  0  0  0  0  0
   -9.0175   -9.4182   -0.8567 N   0  0  0  0  0  0  0  0  0  0  0  0
   -7.3277  -10.3926    1.9315 C   0  0  0  0  0  0  0  0  0  0  0  0
   -7.4966  -11.1102    2.8097 N   0  0  0  0  0  0  0  0  0  0  0  0
   -4.9812   -8.9009    1.6535 O   0  0  0  0  0  0  0  0  0  0  0  0
   -3.9036   -8.0117    1.3307 C   0  0  0  0  0  0  0  0  0  0  0  0
   -3.7718   -7.0240    2.4942 C   0  0  0  0  0  0  0  0  0  0  0  0
   -2.6259   -8.8344    1.1533 C   0  0  0  0  0  0  0  0  0  0  0  0
    4.4893    4.6028   -3.3337 H   0  0  0  0  0  0  0  0  0  0  0  0
    2.5483    6.2228    2.3538 H   0  0  0  0  0  0  0  0  0  0  0  0
    5.6702    9.0224   -0.4890 H   0  0  0  0  0  0  0  0  0  0  0  0
    3.9605   11.0015    1.7196 H   0  0  0  0  0  0  0  0  0  0  0  0
    6.4457   10.6800    2.6227 H   0  0  0  0  0  0  0  0  0  0  0  0
    5.1770   12.3195    4.2377 H   0  0  0  0  0  0  0  0  0  0  0  0
    3.5367   10.8819    5.7544 H   0  0  0  0  0  0  0  0  0  0  0  0
    3.7962    8.3575    5.0750 H   0  0  0  0  0  0  0  0  0  0  0  0
    6.3180    9.0841    4.7306 H   0  0  0  0  0  0  0  0  0  0  0  0
    5.8049    8.1605    3.3000 H   0  0  0  0  0  0  0  0  0  0  0  0
    2.3529    9.5903    3.2053 H   0  0  0  0  0  0  0  0  0  0  0  0
   -4.5174   -8.1619   -2.5728 H   0  0  0  0  0  0  0  0  0  0  0  0
   -4.8605   -6.8015   -3.6347 H   0  0  0  0  0  0  0  0  0  0  0  0
   -3.5508   -8.6245   -4.7404 H   0  0  0  0  0  0  0  0  0  0  0  0
   -2.6736   -7.0984   -4.7641 H   0  0  0  0  0  0  0  0  0  0  0  0
   -2.2225   -8.3562   -3.6087 H   0  0  0  0  0  0  0  0  0  0  0  0
    3.3427    2.2856   -0.4567 H   0  0  0  0  0  0  0  0  0  0  0  0
    1.7777   -1.3055    0.2756 H   0  0  0  0  0  0  0  0  0  0  0  0
    3.0216   -0.0677    0.2018 H   0  0  0  0  0  0  0  0  0  0  0  0
    0.0927    0.6134    0.7800 H   0  0  0  0  0  0  0  0  0  0  0  0
    1.4740    1.6958    0.8542 H   0  0  0  0  0  0  0  0  0  0  0  0
    1.3338    0.3781    2.0189 H   0  0  0  0  0  0  0  0  0  0  0  0
   -1.4906   -2.6606    0.4891 H   0  0  0  0  0  0  0  0  0  0  0  0
   -0.2437   -1.4221    0.4250 H   0  0  0  0  0  0  0  0  0  0  0  0
    0.4842   -3.2180    1.9496 H   0  0  0  0  0  0  0  0  0  0  0  0
    1.4878   -3.3648    0.4992 H   0  0  0  0  0  0  0  0  0  0  0  0
    0.1270   -4.4512    0.7408 H   0  0  0  0  0  0  0  0  0  0  0  0
   -4.6271   -6.3521    2.5204 H   0  0  0  0  0  0  0  0  0  0  0  0
   -2.8601   -6.4417    2.4095 H   0  0  0  0  0  0  0  0  0  0  0  0
   -3.7465   -7.5916    3.4212 H   0  0  0  0  0  0  0  0  0  0  0  0
   -2.7631   -9.5774    0.3701 H   0  0  0  0  0  0  0  0  0  0  0  0
   -2.3944   -9.3466    2.0828 H   0  0  0  0  0  0  0  0  0  0  0  0
   -1.7997   -8.1821    0.8844 H   0  0  0  0  0  0  0  0  0  0  0  0
  1  2  2  0  0  0  0
  2  3  1  0  0  0  0
  3  4  2  0  0  0  0
  3  5  1  0  0  0  0
  5  6  2  0  0  0  0
  6  7  1  0  0  0  0
  7  8  2  0  0  0  0
  8  9  1  0  0  0  0
  9 10  2  0  0  0  0
 10 11  1  0  0  0  0
 11 12  2  0  0  0  0
 12 13  1  0  0  0  0
 13 14  3  0  0  0  0
 12 15  1  0  0  0  0
 15 16  3  0  0  0  0
  8 17  1  0  0  0  0
 17 18  1  0  0  0  0
 18 19  1  0  0  0  0
 19 20  2  0  0  0  0
 20 21  1  0  0  0  0
 21 22  1  0  0  0  0
 21 23  1  0  0  0  0
  1 24  1  0  0  0  0
 24 25  1  0  0  0  0
 25 26  1  0  0  0  0
 26 27  1  0  0  0  0
 27 28  1  0  0  0  0
 28 29  1  0  0  0  0
 29 30  2  0  0  0  0
 30 31  1  0  0  0  0
 31 32  1  0  0  0  0
 29 33  1  0  0  0  0
 33 34  1  0  0  0  0
 34 35  1  0  0  0  0
 35 36  1  0  0  0  0
 36 37  1  0  0  0  0
 37 38  1  0  0  0  0
 38 39  1  0  0  0  0
 37 40  2  0  0  0  0
 40 41  1  0  0  0  0
 41 42  1  0  0  0  0
 42 43  1  0  0  0  0
 43 44  1  0  0  0  0
 44 45  1  0  0  0  0
 45 46  1  0  0  0  0
 46 47  1  0  0  0  0
 47 48  1  0  0  0  0
 48 49  1  0  0  0  0
 47 50  1  0  0  0  0
 50 51  1  0  0  0  0
 44 52  1  0  0  0  0
 52 53  1  0  0  0  0
 40 54  1  0  0  0  0
 54 55  2  0  0  0  0
 55 56  1  0  0  0  0
 56 57  3  0  0  0  0
 55 58  1  0  0  0  0
 58 59  2  0  0  0  0
 59 60  1  0  0  0  0
 60 61  3  0  0  0  0
 59 62  1  0  0  0  0
 62 63  3  0  0  0  0
 58 64  1  0  0  0  0
 64 65  1  0  0  0  0
 65 66  1  0  0  0  0
 65 67  1  0  0  0  0
 11  2  1  0  0  0  0
 23 17  1  0  0  0  0
 49 24  2  0  0  0  0
 65 54  1  0  0  0  0
 10  5  1  0  0  0  0
 22 18  1  0  0  0  0
 48 26  2  0  0  0  0
 23  7  1  0  0  0  0
 46 27  2  0  0  0  0
 32 28  2  0  0  0  0
 45 33  2  0  0  0  0
 43 34  2  0  0  0  0
 42 36  2  0  0  0  0
  1 68  1  0  0  0  0
  6 69  1  0  0  0  0
  9 70  1  0  0  0  0
 17 71  1  0  0  0  0
 18 72  1  0  0  0  0
 19 73  1  0  0  0  0
 20 74  1  0  0  0  0
 21 75  1  0  0  0  0
 22 76  1  0  0  0  0
 22 77  1  0  0  0  0
 23 78  1  0  0  0  0
 38 79  1  0  0  0  0
 38 80  1  0  0  0  0
 39 81  1  0  0  0  0
 39 82  1  0  0  0  0
 39 83  1  0  0  0  0
 49 84  1  0  0  0  0
 50 85  1  0  0  0  0
 50 86  1  0  0  0  0
 51 87  1  0  0  0  0
 51 88  1  0  0  0  0
 51 89  1  0  0  0  0
 52 90  1  0  0  0  0
 52 91  1  0  0  0  0
 53 92  1  0  0  0  0
 53 93  1  0  0  0  0
 53 94  1  0  0  0  0
 66 95  1  0  0  0  0
 66 96  1  0  0  0  0
 66 97  1  0  0  0  0
 67 98  1  0  0  0  0
 67 99  1  0  0  0  0
 67100  1  0  0  0  0
M  END
