148

C         -4.83420        0.52420       -3.27640
C         -6.00660        0.32670       -2.59430
C         -6.13330        0.04600       -1.15910
O         -5.23900       -0.01990       -0.33340
C         -7.57010       -0.14600       -0.89940
C         -8.16710       -0.45290        0.32150
C         -9.53340       -0.58540        0.25780
C        -10.25220       -0.42940       -0.93470
C         -9.67540       -0.12720       -2.14540
C         -8.28520        0.01800       -2.10260
C         -7.33730        0.33020       -3.17160
C         -7.67540        0.58410       -4.47640
C         -6.77930        0.89890       -5.51920
N         -6.12850        1.16310       -6.42890
C         -8.99390        0.57560       -4.97820
N        -10.03500        0.58860       -5.46280
C        -11.57650       -0.70360       -0.26690
C        -12.46810        0.52150        0.02550
C        -13.43070        0.02450        1.07970
C        -12.75100       -0.12160        2.20990
C        -11.31750        0.27480        1.93870
C        -11.54160        1.37900        0.89750
C        -10.77550       -0.87550        1.06360
C         -3.50380        0.51270       -2.83260
C         -2.43090        0.69960       -3.71610
C         -1.20810        0.61640       -3.08690
C          0.24310        0.74950       -3.47550
C          0.71970       -0.27680       -4.48420
C          0.05410       -1.48280       -4.65070
C          0.52830       -2.42790       -5.54210
C          1.68320       -2.20030       -6.27780
C          2.17130       -3.20740       -7.27850
C          1.57200       -2.92390       -8.65750
C          2.35200       -0.99610       -6.09890
C          1.88030       -0.04680       -5.21290
C          0.44420        2.16980       -3.97740
C          0.06250        2.48790       -5.27550
C          0.18700        3.77980       -5.74740
C          0.69080        4.78960       -4.93680
C          0.78590        6.20180       -5.43740
C         -0.51210        6.95950       -5.15030
C          1.05760        4.46900       -3.63730
C          0.93370        3.17670       -3.15900
C          0.92100        0.47810       -2.14270
C         -0.03580        0.29070       -1.11570
C         -1.32870        0.38490       -1.71540
S         -2.94800        0.25250       -1.18570
C          0.33850        0.05020        0.20480
C          1.68480       -0.02070        0.47460
C          2.36340       -0.26880        1.81090
C          2.25720        0.90710        2.76970
C          2.71080        0.74920        4.07420
C          2.67740        1.80740        4.96060
C          2.19880        3.05160        4.56860
C          2.12100        4.18870        5.54600
C          0.76680        4.18870        6.25820
C          1.75250        3.20430        3.26360
C          1.78550        2.14830        2.37000
C          1.81060       -1.53840        2.42720
C          2.38640       -2.77320        2.16560
C          1.84980       -3.92580        2.70960
C          0.72420       -3.87620        3.52030
C          0.11910       -5.13170        4.07900
C         -0.94920       -5.67860        3.13000
C          0.14170       -2.63910        3.76490
C          0.67500       -1.48430        3.22580
C          3.80730       -0.35800        1.38730
C          3.92410       -0.09520        0.02280
C          2.63930        0.11010       -0.56380
C          2.26650        0.37180       -1.88060
S          5.54200       -0.13980       -0.51580
C          6.08950       -0.52580        1.12280
C          5.01910       -0.59350        2.01030
C          7.47270       -0.72220        1.27260
C          8.24290       -1.03950        2.36230
C          7.82530       -1.22740        3.76940
O          6.71150       -1.17090        4.25350
C          9.06020       -1.50480        4.52360
C          9.18270       -1.73910        5.87170
C         10.46280       -1.98140        6.37800
C         10.86540       -2.25180        7.71630
C         12.19870       -2.43560        7.83080
S         13.05000       -2.29300        6.33180
C         11.56520       -1.97220        5.49100
C         11.44000       -1.73540        4.12720
C         10.16690       -1.50110        3.64190
C          9.68380       -1.23080        2.29230
C         10.48020       -1.19850        1.17480
C         11.87570       -1.40700        1.19220
N         13.01100       -1.56590        1.12350
C         10.06880       -0.97480       -0.15590
N          9.84410       -0.81170       -1.27120
H         -4.91700        0.70730       -4.34100
H         -7.57250       -0.57210        1.21380
H        -10.24510       -0.01700       -3.05250
H        -12.13490       -1.55440       -0.65260
H        -12.90270        0.98810       -0.85420
H        -14.46000       -0.21510        0.88700
H        -13.09920       -0.50770        3.14990
H        -10.70530        0.51750        2.80310
H        -12.05490        2.24240        1.31740
H        -10.63370        1.70480        0.39340
H        -10.80100       -1.84070        1.56620
H         -2.58260        0.87480       -4.76630
H         -0.84230       -1.68680       -4.08310
H         -0.00660       -3.35910       -5.66370
H          3.26040       -3.16540       -7.34440
H          1.88630       -4.21270       -6.96190
H          1.85460       -1.92940       -8.99550
H          0.48630       -2.97510       -8.61600
H          1.92680       -3.65150       -9.38360
H          3.25540       -0.79970       -6.65860
H          2.41150        0.88680       -5.09530
H         -0.32370        1.71400       -5.92280
H         -0.10970        4.00790       -6.76110
H          1.61690        6.71330       -4.94730
H          0.97110        6.20150       -6.51330
H         -0.44320        7.98280       -5.51190
H         -1.35120        6.47260       -5.64220
H         -0.70900        6.98100       -4.08070
H          1.44820        5.23980       -2.98810
H          1.22510        2.95510       -2.14260
H         -0.40670       -0.07720        0.97440
H          3.08690       -0.21020        4.39690
H          3.03440        1.66700        5.97060
H          2.25170        5.13770        5.02190
H          2.91730        4.09470        6.28700
H          0.62390        3.25510        6.79780
H          0.70840        5.01210        6.96620
H         -0.04000        4.29300        5.53610
H          1.37820        4.16420        2.93670
H          1.43850        2.29740        1.35790
H          3.26370       -2.83790        1.53840
H          2.31690       -4.87830        2.50300
H         -0.33560       -4.92280        5.04960
H          0.89540       -5.88620        4.22060
H         -0.51230       -5.90650        2.16030
H         -1.38990       -6.58660        3.53520
H         -1.73790       -4.94380        2.98450
H         -0.73800       -2.57840        4.38970
H          0.21430       -0.53060        3.43950
H          3.01080        0.48020       -2.65410
H          5.15440       -0.81530        3.05210
H          8.01140       -0.60020        0.34030
H          8.31510       -1.73590        6.51320
H         10.17730       -2.30290        8.54070
H         12.75930       -2.65180        8.71950
H         12.31390       -1.73880        3.49820
