
  xtb     02102222573D
 energy: -189.057279903282 gnorm: 0.000251616055 xtb: 6.4.1 (unknown)
108121  0     0  0            999 V2000
   -2.1440    2.6755   -4.2164 C   0  0  0  0  0  0  0  0  0  0  0  0
   -3.4967    2.7594   -4.4337 C   0  0  0  0  0  0  0  0  0  0  0  0
   -4.5963    1.9940   -3.8120 C   0  0  0  0  0  0  0  0  0  0  0  0
   -4.5400    1.0105   -3.0986 O   0  0  0  0  0  0  0  0  0  0  0  0
   -5.8432    2.6657   -4.2279 C   0  0  0  0  0  0  0  0  0  0  0  0
   -7.1352    2.3393   -3.8242 C   0  0  0  0  0  0  0  0  0  0  0  0
   -8.1078    3.1559   -4.3483 C   0  0  0  0  0  0  0  0  0  0  0  0
   -7.8162    4.2173   -5.2150 C   0  0  0  0  0  0  0  0  0  0  0  0
   -6.5464    4.5430   -5.6286 C   0  0  0  0  0  0  0  0  0  0  0  0
   -5.5414    3.7255   -5.1033 C   0  0  0  0  0  0  0  0  0  0  0  0
   -4.0936    3.7650   -5.2951 C   0  0  0  0  0  0  0  0  0  0  0  0
   -3.4438    4.5893   -6.1814 C   0  0  0  0  0  0  0  0  0  0  0  0
   -4.0834    5.5360   -7.0081 C   0  0  0  0  0  0  0  0  0  0  0  0
   -4.5247    6.3302   -7.7109 N   0  0  0  0  0  0  0  0  0  0  0  0
   -2.0574    4.6103   -6.4361 C   0  0  0  0  0  0  0  0  0  0  0  0
   -0.9441    4.6921   -6.7136 N   0  0  0  0  0  0  0  0  0  0  0  0
   -9.2637    4.6247   -5.3314 C   0  0  0  0  0  0  0  0  0  0  0  0
   -9.7310    5.8625   -4.5262 C   0  0  0  0  0  0  0  0  0  0  0  0
   -8.8106    5.9732   -3.3362 C   0  0  0  0  0  0  0  0  0  0  0  0
   -9.0864    4.9682   -2.5159 C   0  0  0  0  0  0  0  0  0  0  0  0
  -10.1985    4.1595   -3.1367 C   0  0  0  0  0  0  0  0  0  0  0  0
  -10.9796    5.2755   -3.8486 C   0  0  0  0  0  0  0  0  0  0  0  0
   -9.5886    3.4414   -4.3662 C   0  0  0  0  0  0  0  0  0  0  0  0
   -1.3652    1.8174   -3.4249 C   0  0  0  0  0  0  0  0  0  0  0  0
   -1.7197    0.6748   -2.6778 C   0  0  0  0  0  0  0  0  0  0  0  0
   -0.5558    0.2357   -2.0771 C   0  0  0  0  0  0  0  0  0  0  0  0
    0.4927    1.0993   -2.4686 C   0  0  0  0  0  0  0  0  0  0  0  0
    0.0067    2.0411   -3.2970 N   0  0  0  0  0  0  0  0  0  0  0  0
    0.7787    3.1464   -3.8148 C   0  0  0  0  0  0  0  0  0  0  0  0
    0.5793    4.4107   -2.9811 C   0  0  0  0  0  0  0  0  0  0  0  0
    1.6659    0.6485   -1.8342 C   0  0  0  0  0  0  0  0  0  0  0  0
    3.0190    1.0449   -1.9105 C   0  0  0  0  0  0  0  0  0  0  0  0
    3.9993    0.3529   -1.1191 C   0  0  0  0  0  0  0  0  0  0  0  0
    5.2264    0.8018   -1.3256 N   0  0  0  0  0  0  0  0  0  0  0  0
    5.1671    1.9924   -2.4175 S   0  0  0  0  0  0  0  0  0  0  0  0
    3.5639    1.9845   -2.6705 N   0  0  0  0  0  0  0  0  0  0  0  0
    3.5660   -0.6206   -0.1915 C   0  0  0  0  0  0  0  0  0  0  0  0
    4.2299   -1.2642    0.8619 C   0  0  0  0  0  0  0  0  0  0  0  0
    5.8117   -1.3436    1.5496 S   0  0  0  0  0  0  0  0  0  0  0  0
    5.1725   -2.2961    2.8717 C   0  0  0  0  0  0  0  0  0  0  0  0
    5.7479   -2.7885    4.0506 C   0  0  0  0  0  0  0  0  0  0  0  0
    7.2073   -2.7552    4.3539 C   0  0  0  0  0  0  0  0  0  0  0  0
    8.0618   -3.2241    3.1780 C   0  0  0  0  0  0  0  0  0  0  0  0
    4.7921   -3.4156    4.8453 C   0  0  0  0  0  0  0  0  0  0  0  0
    3.2059   -3.4689    4.0731 S   0  0  0  0  0  0  0  0  0  0  0  0
    3.7978   -2.5506    2.7422 C   0  0  0  0  0  0  0  0  0  0  0  0
    3.2616   -1.9684    1.5906 C   0  0  0  0  0  0  0  0  0  0  0  0
    2.0331   -1.8121    1.0036 N   0  0  0  0  0  0  0  0  0  0  0  0
    2.1950   -0.9932   -0.0974 C   0  0  0  0  0  0  0  0  0  0  0  0
    1.2696   -0.4547   -1.0223 C   0  0  0  0  0  0  0  0  0  0  0  0
   -0.0747   -0.7278   -1.2177 N   0  0  0  0  0  0  0  0  0  0  0  0
   -0.7086   -2.0271   -1.1403 C   0  0  0  0  0  0  0  0  0  0  0  0
   -0.9754   -2.6070   -2.5291 C   0  0  0  0  0  0  0  0  0  0  0  0
    0.8261   -2.1619    1.7210 C   0  0  0  0  0  0  0  0  0  0  0  0
    0.5804   -3.6697    1.7443 C   0  0  0  0  0  0  0  0  0  0  0  0
    4.8933   -4.0305    6.1087 C   0  0  0  0  0  0  0  0  0  0  0  0
    5.6780   -3.6200    7.1543 C   0  0  0  0  0  0  0  0  0  0  0  0
    6.1978   -2.2423    7.3113 C   0  0  0  0  0  0  0  0  0  0  0  0
    6.1465   -1.3380    6.5059 O   0  0  0  0  0  0  0  0  0  0  0  0
    6.6765   -2.1655    8.7086 C   0  0  0  0  0  0  0  0  0  0  0  0
    7.2279   -1.0963    9.3950 C   0  0  0  0  0  0  0  0  0  0  0  0
    7.4802    0.4159    8.6232 Cl  0  0  0  0  0  0  0  0  0  0  0  0
    7.5845   -1.2676   10.7313 C   0  0  0  0  0  0  0  0  0  0  0  0
    7.3794   -2.4848   11.3557 C   0  0  0  0  0  0  0  0  0  0  0  0
    6.8265   -3.5663   10.6794 C   0  0  0  0  0  0  0  0  0  0  0  0
    6.4779   -3.4030    9.3501 C   0  0  0  0  0  0  0  0  0  0  0  0
    5.8893   -4.3355    8.3906 C   0  0  0  0  0  0  0  0  0  0  0  0
    5.6665   -5.6723    8.5981 C   0  0  0  0  0  0  0  0  0  0  0  0
    5.9106   -6.3404    9.8152 C   0  0  0  0  0  0  0  0  0  0  0  0
    6.0819   -6.9389   10.7799 N   0  0  0  0  0  0  0  0  0  0  0  0
    5.1987   -6.5612    7.6074 C   0  0  0  0  0  0  0  0  0  0  0  0
    4.8457   -7.3409    6.8417 N   0  0  0  0  0  0  0  0  0  0  0  0
   -1.5625    3.4309   -4.7253 H   0  0  0  0  0  0  0  0  0  0  0  0
   -7.3134    1.5130   -3.1537 H   0  0  0  0  0  0  0  0  0  0  0  0
   -6.3413    5.3645   -6.2940 H   0  0  0  0  0  0  0  0  0  0  0  0
   -9.6883    4.5974   -6.3329 H   0  0  0  0  0  0  0  0  0  0  0  0
   -9.8594    6.7642   -5.1189 H   0  0  0  0  0  0  0  0  0  0  0  0
   -8.0384    6.7144   -3.2434 H   0  0  0  0  0  0  0  0  0  0  0  0
   -8.5903    4.7016   -1.6010 H   0  0  0  0  0  0  0  0  0  0  0  0
  -10.7535    3.5108   -2.4638 H   0  0  0  0  0  0  0  0  0  0  0  0
  -11.7217    4.9038   -4.5538 H   0  0  0  0  0  0  0  0  0  0  0  0
  -11.4482    5.9709   -3.1538 H   0  0  0  0  0  0  0  0  0  0  0  0
  -10.2261    2.6412   -4.7376 H   0  0  0  0  0  0  0  0  0  0  0  0
   -2.7111    0.2791   -2.6053 H   0  0  0  0  0  0  0  0  0  0  0  0
    0.5121    3.3329   -4.8585 H   0  0  0  0  0  0  0  0  0  0  0  0
    1.8295    2.8482   -3.7689 H   0  0  0  0  0  0  0  0  0  0  0  0
   -0.4653    4.7144   -2.9703 H   0  0  0  0  0  0  0  0  0  0  0  0
    0.9008    4.2377   -1.9567 H   0  0  0  0  0  0  0  0  0  0  0  0
    1.1711    5.2186   -3.4007 H   0  0  0  0  0  0  0  0  0  0  0  0
    7.4801   -1.7311    4.6248 H   0  0  0  0  0  0  0  0  0  0  0  0
    7.4056   -3.3887    5.2205 H   0  0  0  0  0  0  0  0  0  0  0  0
    7.9827   -2.5431    2.3357 H   0  0  0  0  0  0  0  0  0  0  0  0
    7.7530   -4.2161    2.8554 H   0  0  0  0  0  0  0  0  0  0  0  0
    9.1041   -3.2700    3.4828 H   0  0  0  0  0  0  0  0  0  0  0  0
   -0.0437   -2.7033   -0.6105 H   0  0  0  0  0  0  0  0  0  0  0  0
   -1.6531   -1.9351   -0.5937 H   0  0  0  0  0  0  0  0  0  0  0  0
   -1.6829   -1.9938   -3.0787 H   0  0  0  0  0  0  0  0  0  0  0  0
   -1.3867   -3.6080   -2.4294 H   0  0  0  0  0  0  0  0  0  0  0  0
   -0.0495   -2.6647   -3.0978 H   0  0  0  0  0  0  0  0  0  0  0  0
   -0.0135   -1.6253    1.2805 H   0  0  0  0  0  0  0  0  0  0  0  0
    0.9410   -1.8143    2.7541 H   0  0  0  0  0  0  0  0  0  0  0  0
    1.3623   -4.1709    2.3079 H   0  0  0  0  0  0  0  0  0  0  0  0
   -0.3724   -3.8747    2.2236 H   0  0  0  0  0  0  0  0  0  0  0  0
    0.5648   -4.0929    0.7428 H   0  0  0  0  0  0  0  0  0  0  0  0
    4.2182   -4.8629    6.2737 H   0  0  0  0  0  0  0  0  0  0  0  0
    8.0187   -0.4415   11.2715 H   0  0  0  0  0  0  0  0  0  0  0  0
    7.6542   -2.5978   12.3933 H   0  0  0  0  0  0  0  0  0  0  0  0
    6.6720   -4.5012   11.1920 H   0  0  0  0  0  0  0  0  0  0  0  0
  1  2  2  0  0  0  0
  2  3  1  0  0  0  0
  3  4  2  0  0  0  0
  3  5  1  0  0  0  0
  5  6  2  0  0  0  0
  6  7  1  0  0  0  0
  7  8  2  0  0  0  0
  8  9  1  0  0  0  0
  9 10  2  0  0  0  0
 10 11  1  0  0  0  0
 11 12  2  0  0  0  0
 12 13  1  0  0  0  0
 13 14  3  0  0  0  0
 12 15  1  0  0  0  0
 15 16  3  0  0  0  0
  8 17  1  0  0  0  0
 17 18  1  0  0  0  0
 18 19  1  0  0  0  0
 19 20  2  0  0  0  0
 20 21  1  0  0  0  0
 21 22  1  0  0  0  0
 21 23  1  0  0  0  0
  1 24  1  0  0  0  0
 24 25  2  0  0  0  0
 25 26  1  0  0  0  0
 26 27  2  0  0  0  0
 27 28  1  0  0  0  0
 28 29  1  0  0  0  0
 29 30  1  0  0  0  0
 27 31  1  0  0  0  0
 31 32  1  0  0  0  0
 32 33  1  0  0  0  0
 33 34  2  0  0  0  0
 34 35  1  0  0  0  0
 35 36  1  0  0  0  0
 33 37  1  0  0  0  0
 37 38  1  0  0  0  0
 38 39  1  0  0  0  0
 39 40  1  0  0  0  0
 40 41  1  0  0  0  0
 41 42  1  0  0  0  0
 42 43  1  0  0  0  0
 41 44  2  0  0  0  0
 44 45  1  0  0  0  0
 45 46  1  0  0  0  0
 46 47  1  0  0  0  0
 47 48  1  0  0  0  0
 48 49  1  0  0  0  0
 49 50  1  0  0  0  0
 50 51  1  0  0  0  0
 51 52  1  0  0  0  0
 52 53  1  0  0  0  0
 48 54  1  0  0  0  0
 54 55  1  0  0  0  0
 44 56  1  0  0  0  0
 56 57  2  0  0  0  0
 57 58  1  0  0  0  0
 58 59  2  0  0  0  0
 58 60  1  0  0  0  0
 60 61  2  0  0  0  0
 61 62  1  0  0  0  0
 61 63  1  0  0  0  0
 63 64  2  0  0  0  0
 64 65  1  0  0  0  0
 65 66  2  0  0  0  0
 66 67  1  0  0  0  0
 67 68  2  0  0  0  0
 68 69  1  0  0  0  0
 69 70  3  0  0  0  0
 68 71  1  0  0  0  0
 71 72  3  0  0  0  0
 11  2  1  0  0  0  0
 23 17  1  0  0  0  0
 28 24  1  0  0  0  0
 50 31  2  0  0  0  0
 67 57  1  0  0  0  0
 10  5  1  0  0  0  0
 22 18  1  0  0  0  0
 51 26  1  0  0  0  0
 66 60  1  0  0  0  0
 23  7  1  0  0  0  0
 36 32  2  0  0  0  0
 49 37  2  0  0  0  0
 47 38  2  0  0  0  0
 46 40  2  0  0  0  0
  1 73  1  0  0  0  0
  6 74  1  0  0  0  0
  9 75  1  0  0  0  0
 17 76  1  0  0  0  0
 18 77  1  0  0  0  0
 19 78  1  0  0  0  0
 20 79  1  0  0  0  0
 21 80  1  0  0  0  0
 22 81  1  0  0  0  0
 22 82  1  0  0  0  0
 23 83  1  0  0  0  0
 25 84  1  0  0  0  0
 29 85  1  0  0  0  0
 29 86  1  0  0  0  0
 30 87  1  0  0  0  0
 30 88  1  0  0  0  0
 30 89  1  0  0  0  0
 42 90  1  0  0  0  0
 42 91  1  0  0  0  0
 43 92  1  0  0  0  0
 43 93  1  0  0  0  0
 43 94  1  0  0  0  0
 52 95  1  0  0  0  0
 52 96  1  0  0  0  0
 53 97  1  0  0  0  0
 53 98  1  0  0  0  0
 53 99  1  0  0  0  0
 54100  1  0  0  0  0
 54101  1  0  0  0  0
 55102  1  0  0  0  0
 55103  1  0  0  0  0
 55104  1  0  0  0  0
 56105  1  0  0  0  0
 63106  1  0  0  0  0
 64107  1  0  0  0  0
 65108  1  0  0  0  0
M  END
