
  xtb     02022203333D
 energy: -275.314352625310 gnorm: 0.000548267161 xtb: 6.4.1 (unknown)
167186  0     0  0            999 V2000
    3.4286    4.7464    3.3373 C   0  0  0  0  0  0  0  0  0  0  0  0
    2.7416    3.8151    4.0525 C   0  0  0  0  0  0  0  0  0  0  0  0
    1.3636    3.3740    3.7080 C   0  0  0  0  0  0  0  0  0  0  0  0
    0.4669    4.0195    3.2128 O   0  0  0  0  0  0  0  0  0  0  0  0
    1.3428    1.9328    4.0255 C   0  0  0  0  0  0  0  0  0  0  0  0
    0.3871    1.0063    3.6098 C   0  0  0  0  0  0  0  0  0  0  0  0
    0.6867   -0.2940    3.9395 C   0  0  0  0  0  0  0  0  0  0  0  0
    1.8328   -0.6462    4.6666 C   0  0  0  0  0  0  0  0  0  0  0  0
    2.7771    0.2581    5.0937 C   0  0  0  0  0  0  0  0  0  0  0  0
    2.5102    1.5835    4.7338 C   0  0  0  0  0  0  0  0  0  0  0  0
    3.3368    2.7777    4.8803 C   0  0  0  0  0  0  0  0  0  0  0  0
    4.4646    2.9176    5.6386 C   0  0  0  0  0  0  0  0  0  0  0  0
    5.1747    4.1344    5.7336 C   0  0  0  0  0  0  0  0  0  0  0  0
    5.7753    5.1056    5.8456 N   0  0  0  0  0  0  0  0  0  0  0  0
    5.0164    1.8916    6.4324 C   0  0  0  0  0  0  0  0  0  0  0  0
    5.5063    1.0828    7.0828 N   0  0  0  0  0  0  0  0  0  0  0  0
    1.5154   -2.1206    4.6017 C   0  0  0  0  0  0  0  0  0  0  0  0
    0.9018   -2.7731    5.8600 C   0  0  0  0  0  0  0  0  0  0  0  0
    0.3040   -4.0575    5.3312 C   0  0  0  0  0  0  0  0  0  0  0  0
   -0.7604   -3.7366    4.6069 C   0  0  0  0  0  0  0  0  0  0  0  0
   -0.9115   -2.2335    4.6470 C   0  0  0  0  0  0  0  0  0  0  0  0
   -0.3751   -1.9461    6.0551 C   0  0  0  0  0  0  0  0  0  0  0  0
    0.2515   -1.7295    3.7690 C   0  0  0  0  0  0  0  0  0  0  0  0
    2.8138    5.5055    2.2970 C   0  0  0  0  0  0  0  0  0  0  0  0
    1.6060    6.1600    2.2588 C   0  0  0  0  0  0  0  0  0  0  0  0
    1.1300    6.3037    0.9522 C   0  0  0  0  0  0  0  0  0  0  0  0
   -0.4521    6.6691    0.3216 S   0  0  0  0  0  0  0  0  0  0  0  0
   -0.0541    5.8019   -1.1319 C   0  0  0  0  0  0  0  0  0  0  0  0
   -0.8610    5.0039   -2.0103 C   0  0  0  0  0  0  0  0  0  0  0  0
    0.0070    4.0515   -2.6114 C   0  0  0  0  0  0  0  0  0  0  0  0
    1.4575    4.3280   -2.2470 C   0  0  0  0  0  0  0  0  0  0  0  0
    2.2983    4.8444   -3.3938 C   0  0  0  0  0  0  0  0  0  0  0  0
    3.4870    5.5131   -3.1203 C   0  0  0  0  0  0  0  0  0  0  0  0
    4.2701    6.0044   -4.1463 C   0  0  0  0  0  0  0  0  0  0  0  0
    3.8898    5.8441   -5.4729 C   0  0  0  0  0  0  0  0  0  0  0  0
    4.7173    6.4220   -6.5843 C   0  0  0  0  0  0  0  0  0  0  0  0
    4.2882    7.8613   -6.8764 C   0  0  0  0  0  0  0  0  0  0  0  0
    2.7015    5.1794   -5.7406 C   0  0  0  0  0  0  0  0  0  0  0  0
    1.9138    4.6840   -4.7167 C   0  0  0  0  0  0  0  0  0  0  0  0
    2.0656    3.1298   -1.5279 C   0  0  0  0  0  0  0  0  0  0  0  0
    1.3725    2.6035   -0.4411 C   0  0  0  0  0  0  0  0  0  0  0  0
    1.9503    1.6475    0.3681 C   0  0  0  0  0  0  0  0  0  0  0  0
    3.2352    1.1839    0.1170 C   0  0  0  0  0  0  0  0  0  0  0  0
    3.9230    0.2705    1.0906 C   0  0  0  0  0  0  0  0  0  0  0  0
    4.8527    1.0855    1.9918 C   0  0  0  0  0  0  0  0  0  0  0  0
    3.8930    1.6557   -1.0103 C   0  0  0  0  0  0  0  0  0  0  0  0
    3.3184    2.6167   -1.8251 C   0  0  0  0  0  0  0  0  0  0  0  0
    1.2633    5.3882   -1.1857 C   0  0  0  0  0  0  0  0  0  0  0  0
    1.9509    5.7009   -0.0119 C   0  0  0  0  0  0  0  0  0  0  0  0
    3.4440    5.1758    0.6734 S   0  0  0  0  0  0  0  0  0  0  0  0
   -0.4930    2.9082   -3.1769 C   0  0  0  0  0  0  0  0  0  0  0  0
   -1.8713    2.6964   -3.0911 C   0  0  0  0  0  0  0  0  0  0  0  0
   -2.6331    1.4933   -3.1705 C   0  0  0  0  0  0  0  0  0  0  0  0
   -2.2410    0.1715   -3.3913 C   0  0  0  0  0  0  0  0  0  0  0  0
   -3.0948   -0.8171   -2.9770 C   0  0  0  0  0  0  0  0  0  0  0  0
   -4.3431   -0.4945   -2.3780 C   0  0  0  0  0  0  0  0  0  0  0  0
   -4.8144    0.8066   -2.2934 C   0  0  0  0  0  0  0  0  0  0  0  0
   -3.9275    1.8050   -2.6703 C   0  0  0  0  0  0  0  0  0  0  0  0
   -3.9948    3.1512   -2.4017 N   0  0  0  0  0  0  0  0  0  0  0  0
   -5.1703    3.8423   -1.9419 C   0  0  0  0  0  0  0  0  0  0  0  0
   -6.1001    4.1867   -3.1038 C   0  0  0  0  0  0  0  0  0  0  0  0
   -2.7378    3.6876   -2.5554 C   0  0  0  0  0  0  0  0  0  0  0  0
   -2.2395    4.8794   -2.0450 C   0  0  0  0  0  0  0  0  0  0  0  0
   -4.7687   -1.6634   -1.6713 C   0  0  0  0  0  0  0  0  0  0  0  0
   -5.9171   -1.9312   -0.4035 S   0  0  0  0  0  0  0  0  0  0  0  0
   -5.0730   -3.3927    0.0276 C   0  0  0  0  0  0  0  0  0  0  0  0
   -5.1314   -4.2328    1.1275 C   0  0  0  0  0  0  0  0  0  0  0  0
   -4.1256   -5.1884    1.1046 C   0  0  0  0  0  0  0  0  0  0  0  0
   -3.1475   -5.0781   -0.3678 S   0  0  0  0  0  0  0  0  0  0  0  0
   -4.0107   -3.6736   -0.8591 C   0  0  0  0  0  0  0  0  0  0  0  0
   -3.8396   -2.6830   -1.8180 C   0  0  0  0  0  0  0  0  0  0  0  0
   -2.7903   -2.3012   -2.8325 C   0  0  0  0  0  0  0  0  0  0  0  0
   -1.3969   -2.5192   -2.2669 C   0  0  0  0  0  0  0  0  0  0  0  0
   -0.9765   -1.7354   -1.1976 C   0  0  0  0  0  0  0  0  0  0  0  0
    0.2943   -1.8785   -0.6748 C   0  0  0  0  0  0  0  0  0  0  0  0
    1.1716   -2.8239   -1.1896 C   0  0  0  0  0  0  0  0  0  0  0  0
    2.5786   -2.9430   -0.6805 C   0  0  0  0  0  0  0  0  0  0  0  0
    3.5428   -2.2326   -1.6327 C   0  0  0  0  0  0  0  0  0  0  0  0
    0.7352   -3.6268   -2.2344 C   0  0  0  0  0  0  0  0  0  0  0  0
   -0.5298   -3.4764   -2.7721 C   0  0  0  0  0  0  0  0  0  0  0  0
   -3.0121   -3.0571   -4.1325 C   0  0  0  0  0  0  0  0  0  0  0  0
   -3.3712   -4.4001   -4.1057 C   0  0  0  0  0  0  0  0  0  0  0  0
   -3.5560   -5.1042   -5.2799 C   0  0  0  0  0  0  0  0  0  0  0  0
   -3.3887   -4.4900   -6.5143 C   0  0  0  0  0  0  0  0  0  0  0  0
   -3.5399   -5.2723   -7.7865 C   0  0  0  0  0  0  0  0  0  0  0  0
   -2.2221   -5.9616   -8.1469 C   0  0  0  0  0  0  0  0  0  0  0  0
   -3.0268   -3.1505   -6.5367 C   0  0  0  0  0  0  0  0  0  0  0  0
   -2.8419   -2.4408   -5.3639 C   0  0  0  0  0  0  0  0  0  0  0  0
   -3.7421   -6.1405    2.0636 C   0  0  0  0  0  0  0  0  0  0  0  0
   -3.8675   -6.0365    3.4269 C   0  0  0  0  0  0  0  0  0  0  0  0
   -4.1203   -4.7821    4.1662 C   0  0  0  0  0  0  0  0  0  0  0  0
   -4.5432   -3.7235    3.7534 O   0  0  0  0  0  0  0  0  0  0  0  0
   -3.6509   -5.0483    5.5473 C   0  0  0  0  0  0  0  0  0  0  0  0
   -3.5547   -4.1587    6.5979 C   0  0  0  0  0  0  0  0  0  0  0  0
   -3.0327   -4.6304    7.7911 C   0  0  0  0  0  0  0  0  0  0  0  0
   -2.9047   -3.7964    8.8323 F   0  0  0  0  0  0  0  0  0  0  0  0
   -2.6287   -5.9591    7.9167 C   0  0  0  0  0  0  0  0  0  0  0  0
   -2.1194   -6.3824    9.0792 F   0  0  0  0  0  0  0  0  0  0  0  0
   -2.7318   -6.8546    6.8622 C   0  0  0  0  0  0  0  0  0  0  0  0
   -3.2456   -6.3875    5.6635 C   0  0  0  0  0  0  0  0  0  0  0  0
   -3.4420   -7.0453    4.3735 C   0  0  0  0  0  0  0  0  0  0  0  0
   -3.3151   -8.3864    4.1251 C   0  0  0  0  0  0  0  0  0  0  0  0
   -2.9178   -9.3315    5.0931 C   0  0  0  0  0  0  0  0  0  0  0  0
   -2.5946  -10.1389    5.8420 N   0  0  0  0  0  0  0  0  0  0  0  0
   -3.6133   -8.9937    2.8864 C   0  0  0  0  0  0  0  0  0  0  0  0
   -3.8588   -9.5507    1.9132 N   0  0  0  0  0  0  0  0  0  0  0  0
    4.5122    4.7540    3.3808 H   0  0  0  0  0  0  0  0  0  0  0  0
   -0.4842    1.3189    3.0547 H   0  0  0  0  0  0  0  0  0  0  0  0
    3.6699   -0.0257    5.6264 H   0  0  0  0  0  0  0  0  0  0  0  0
    2.2758   -2.7440    4.1338 H   0  0  0  0  0  0  0  0  0  0  0  0
    1.5782   -2.8593    6.7055 H   0  0  0  0  0  0  0  0  0  0  0  0
    0.7392   -5.0286    5.4791 H   0  0  0  0  0  0  0  0  0  0  0  0
   -1.3830   -4.3826    4.0153 H   0  0  0  0  0  0  0  0  0  0  0  0
   -1.8895   -1.8396    4.3847 H   0  0  0  0  0  0  0  0  0  0  0  0
   -0.1923   -0.8912    6.2509 H   0  0  0  0  0  0  0  0  0  0  0  0
   -1.0128   -2.3547    6.8367 H   0  0  0  0  0  0  0  0  0  0  0  0
    0.1828   -2.0764    2.7384 H   0  0  0  0  0  0  0  0  0  0  0  0
    1.0826    6.4864    3.1374 H   0  0  0  0  0  0  0  0  0  0  0  0
    3.8064    5.6426   -2.0962 H   0  0  0  0  0  0  0  0  0  0  0  0
    5.1915    6.5191   -3.9136 H   0  0  0  0  0  0  0  0  0  0  0  0
    4.5969    5.8203   -7.4875 H   0  0  0  0  0  0  0  0  0  0  0  0
    5.7726    6.4115   -6.3042 H   0  0  0  0  0  0  0  0  0  0  0  0
    3.2415    7.8914   -7.1708 H   0  0  0  0  0  0  0  0  0  0  0  0
    4.8880    8.2818   -7.6801 H   0  0  0  0  0  0  0  0  0  0  0  0
    4.4114    8.4798   -5.9901 H   0  0  0  0  0  0  0  0  0  0  0  0
    2.3856    5.0450   -6.7655 H   0  0  0  0  0  0  0  0  0  0  0  0
    0.9924    4.1739   -4.9534 H   0  0  0  0  0  0  0  0  0  0  0  0
    0.3833    2.9704   -0.2056 H   0  0  0  0  0  0  0  0  0  0  0  0
    1.4065    1.2749    1.2246 H   0  0  0  0  0  0  0  0  0  0  0  0
    4.5095   -0.4808    0.5598 H   0  0  0  0  0  0  0  0  0  0  0  0
    3.1814   -0.2403    1.7098 H   0  0  0  0  0  0  0  0  0  0  0  0
    5.3100    0.4508    2.7477 H   0  0  0  0  0  0  0  0  0  0  0  0
    4.2926    1.8741    2.4901 H   0  0  0  0  0  0  0  0  0  0  0  0
    5.6397    1.5506    1.4031 H   0  0  0  0  0  0  0  0  0  0  0  0
    4.8814    1.2863   -1.2443 H   0  0  0  0  0  0  0  0  0  0  0  0
    3.8646    2.9828   -2.6815 H   0  0  0  0  0  0  0  0  0  0  0  0
    0.1604    2.1371   -3.5566 H   0  0  0  0  0  0  0  0  0  0  0  0
   -1.2522   -0.0555   -3.7603 H   0  0  0  0  0  0  0  0  0  0  0  0
   -5.7687    1.0166   -1.8363 H   0  0  0  0  0  0  0  0  0  0  0  0
   -5.6935    3.2098   -1.2184 H   0  0  0  0  0  0  0  0  0  0  0  0
   -4.8596    4.7547   -1.4300 H   0  0  0  0  0  0  0  0  0  0  0  0
   -6.4126    3.2812   -3.6188 H   0  0  0  0  0  0  0  0  0  0  0  0
   -6.9829    4.7023   -2.7360 H   0  0  0  0  0  0  0  0  0  0  0  0
   -5.5900    4.8311   -3.8160 H   0  0  0  0  0  0  0  0  0  0  0  0
   -2.8646    5.6152   -1.5635 H   0  0  0  0  0  0  0  0  0  0  0  0
   -5.8631   -4.1642    1.9088 H   0  0  0  0  0  0  0  0  0  0  0  0
   -1.6454   -0.9949   -0.7814 H   0  0  0  0  0  0  0  0  0  0  0  0
    0.6125   -1.2391    0.1369 H   0  0  0  0  0  0  0  0  0  0  0  0
    2.6555   -2.4965    0.3125 H   0  0  0  0  0  0  0  0  0  0  0  0
    2.8576   -3.9966   -0.6063 H   0  0  0  0  0  0  0  0  0  0  0  0
    4.5670   -2.3244   -1.2779 H   0  0  0  0  0  0  0  0  0  0  0  0
    3.2892   -1.1770   -1.7066 H   0  0  0  0  0  0  0  0  0  0  0  0
    3.4828   -2.6698   -2.6266 H   0  0  0  0  0  0  0  0  0  0  0  0
    1.3974   -4.3779   -2.6407 H   0  0  0  0  0  0  0  0  0  0  0  0
   -0.8353   -4.1051   -3.5945 H   0  0  0  0  0  0  0  0  0  0  0  0
   -3.4957   -4.9081   -3.1612 H   0  0  0  0  0  0  0  0  0  0  0  0
   -3.8351   -6.1472   -5.2357 H   0  0  0  0  0  0  0  0  0  0  0  0
   -4.3192   -6.0276   -7.6664 H   0  0  0  0  0  0  0  0  0  0  0  0
   -3.8319   -4.6051   -8.5999 H   0  0  0  0  0  0  0  0  0  0  0  0
   -2.3280   -6.5270   -9.0696 H   0  0  0  0  0  0  0  0  0  0  0  0
   -1.4336   -5.2239   -8.2794 H   0  0  0  0  0  0  0  0  0  0  0  0
   -1.9226   -6.6434   -7.3540 H   0  0  0  0  0  0  0  0  0  0  0  0
   -2.8885   -2.6516   -7.4855 H   0  0  0  0  0  0  0  0  0  0  0  0
   -2.5643   -1.3993   -5.4136 H   0  0  0  0  0  0  0  0  0  0  0  0
   -3.1882   -6.9882    1.6755 H   0  0  0  0  0  0  0  0  0  0  0  0
   -3.8670   -3.1316    6.4972 H   0  0  0  0  0  0  0  0  0  0  0  0
   -2.4007   -7.8703    7.0045 H   0  0  0  0  0  0  0  0  0  0  0  0
  1  2  2  0  0  0  0
  2  3  1  0  0  0  0
  3  4  2  0  0  0  0
  3  5  1  0  0  0  0
  5  6  2  0  0  0  0
  6  7  1  0  0  0  0
  7  8  2  0  0  0  0
  8  9  1  0  0  0  0
  9 10  2  0  0  0  0
 10 11  1  0  0  0  0
 11 12  2  0  0  0  0
 12 13  1  0  0  0  0
 13 14  3  0  0  0  0
 12 15  1  0  0  0  0
 15 16  3  0  0  0  0
  8 17  1  0  0  0  0
 17 18  1  0  0  0  0
 18 19  1  0  0  0  0
 19 20  2  0  0  0  0
 20 21  1  0  0  0  0
 21 22  1  0  0  0  0
 21 23  1  0  0  0  0
  1 24  1  0  0  0  0
 24 25  2  0  0  0  0
 25 26  1  0  0  0  0
 26 27  1  0  0  0  0
 27 28  1  0  0  0  0
 28 29  1  0  0  0  0
 29 30  2  0  0  0  0
 30 31  1  0  0  0  0
 31 32  1  0  0  0  0
 32 33  2  0  0  0  0
 33 34  1  0  0  0  0
 34 35  2  0  0  0  0
 35 36  1  0  0  0  0
 36 37  1  0  0  0  0
 35 38  1  0  0  0  0
 38 39  2  0  0  0  0
 31 40  1  0  0  0  0
 40 41  2  0  0  0  0
 41 42  1  0  0  0  0
 42 43  2  0  0  0  0
 43 44  1  0  0  0  0
 44 45  1  0  0  0  0
 43 46  1  0  0  0  0
 46 47  2  0  0  0  0
 31 48  1  0  0  0  0
 48 49  1  0  0  0  0
 49 50  1  0  0  0  0
 30 51  1  0  0  0  0
 51 52  2  0  0  0  0
 52 53  1  0  0  0  0
 53 54  2  0  0  0  0
 54 55  1  0  0  0  0
 55 56  2  0  0  0  0
 56 57  1  0  0  0  0
 57 58  2  0  0  0  0
 58 59  1  0  0  0  0
 59 60  1  0  0  0  0
 60 61  1  0  0  0  0
 59 62  1  0  0  0  0
 62 63  2  0  0  0  0
 56 64  1  0  0  0  0
 64 65  1  0  0  0  0
 65 66  1  0  0  0  0
 66 67  1  0  0  0  0
 67 68  2  0  0  0  0
 68 69  1  0  0  0  0
 69 70  1  0  0  0  0
 70 71  1  0  0  0  0
 71 72  1  0  0  0  0
 72 73  1  0  0  0  0
 73 74  2  0  0  0  0
 74 75  1  0  0  0  0
 75 76  2  0  0  0  0
 76 77  1  0  0  0  0
 77 78  1  0  0  0  0
 76 79  1  0  0  0  0
 79 80  2  0  0  0  0
 72 81  1  0  0  0  0
 81 82  2  0  0  0  0
 82 83  1  0  0  0  0
 83 84  2  0  0  0  0
 84 85  1  0  0  0  0
 85 86  1  0  0  0  0
 84 87  1  0  0  0  0
 87 88  2  0  0  0  0
 68 89  1  0  0  0  0
 89 90  2  0  0  0  0
 90 91  1  0  0  0  0
 91 92  2  0  0  0  0
 91 93  1  0  0  0  0
 93 94  2  0  0  0  0
 94 95  1  0  0  0  0
 95 96  1  0  0  0  0
 95 97  2  0  0  0  0
 97 98  1  0  0  0  0
 97 99  1  0  0  0  0
 99100  2  0  0  0  0
100101  1  0  0  0  0
101102  2  0  0  0  0
102103  1  0  0  0  0
103104  3  0  0  0  0
102105  1  0  0  0  0
105106  3  0  0  0  0
 11  2  1  0  0  0  0
 23 17  1  0  0  0  0
 50 24  1  0  0  0  0
 62 52  1  0  0  0  0
 71 64  2  0  0  0  0
 80 73  1  0  0  0  0
 88 81  1  0  0  0  0
101 90  1  0  0  0  0
 10  5  1  0  0  0  0
 22 18  1  0  0  0  0
 49 26  2  0  0  0  0
 58 53  1  0  0  0  0
 70 66  2  0  0  0  0
100 93  1  0  0  0  0
 23  7  1  0  0  0  0
 48 28  2  0  0  0  0
 72 55  1  0  0  0  0
 63 29  1  0  0  0  0
 39 32  1  0  0  0  0
 47 40  1  0  0  0  0
  1107  1  0  0  0  0
  6108  1  0  0  0  0
  9109  1  0  0  0  0
 17110  1  0  0  0  0
 18111  1  0  0  0  0
 19112  1  0  0  0  0
 20113  1  0  0  0  0
 21114  1  0  0  0  0
 22115  1  0  0  0  0
 22116  1  0  0  0  0
 23117  1  0  0  0  0
 25118  1  0  0  0  0
 33119  1  0  0  0  0
 34120  1  0  0  0  0
 36121  1  0  0  0  0
 36122  1  0  0  0  0
 37123  1  0  0  0  0
 37124  1  0  0  0  0
 37125  1  0  0  0  0
 38126  1  0  0  0  0
 39127  1  0  0  0  0
 41128  1  0  0  0  0
 42129  1  0  0  0  0
 44130  1  0  0  0  0
 44131  1  0  0  0  0
 45132  1  0  0  0  0
 45133  1  0  0  0  0
 45134  1  0  0  0  0
 46135  1  0  0  0  0
 47136  1  0  0  0  0
 51137  1  0  0  0  0
 54138  1  0  0  0  0
 57139  1  0  0  0  0
 60140  1  0  0  0  0
 60141  1  0  0  0  0
 61142  1  0  0  0  0
 61143  1  0  0  0  0
 61144  1  0  0  0  0
 63145  1  0  0  0  0
 67146  1  0  0  0  0
 74147  1  0  0  0  0
 75148  1  0  0  0  0
 77149  1  0  0  0  0
 77150  1  0  0  0  0
 78151  1  0  0  0  0
 78152  1  0  0  0  0
 78153  1  0  0  0  0
 79154  1  0  0  0  0
 80155  1  0  0  0  0
 82156  1  0  0  0  0
 83157  1  0  0  0  0
 85158  1  0  0  0  0
 85159  1  0  0  0  0
 86160  1  0  0  0  0
 86161  1  0  0  0  0
 86162  1  0  0  0  0
 87163  1  0  0  0  0
 88164  1  0  0  0  0
 89165  1  0  0  0  0
 94166  1  0  0  0  0
 99167  1  0  0  0  0
M  END
