125

C         -5.87840        1.40930       -3.18290
C         -6.37330        2.63800       -2.85860
C         -5.88370        3.54480       -1.79110
O         -4.84600        3.49300       -1.16190
C         -6.96730        4.52120       -1.56900
C         -6.98570        5.53430       -0.61190
C         -8.13300        6.28970       -0.61940
C         -9.18870        6.05350       -1.51060
C         -9.18160        5.06190       -2.46210
C         -8.02010        4.28220       -2.47310
C         -7.64980        3.15610       -3.32300
C         -8.34850        2.71760       -4.41750
C         -9.58010        3.25480       -4.84540
N        -10.58710        3.63740       -5.24350
C         -7.92400        1.69800       -5.29600
N         -7.64560        0.89950       -6.07360
C        -10.02400        7.17440       -0.94370
C        -11.17670        6.76750       -0.00140
C        -11.49150        8.03850        0.75400
C        -10.49090        8.26650        1.59510
C         -9.48310        7.15300        1.42270
C        -10.42810        5.99120        1.08990
C         -8.84540        7.44070        0.04690
C         -4.63190        0.81610       -2.80670
C         -4.58600       -0.59290       -2.67800
C         -3.46090       -1.24650       -2.25140
C         -2.31160       -0.50290       -1.95930
C         -1.01030       -0.77430       -1.49010
C         -0.32010        0.44090       -1.41660
N         -1.10840        1.46310       -1.85010
C         -2.33410        0.91960       -2.15810
C         -3.47490        1.56720       -2.58350
C         -0.78730        2.86670       -1.79400
C         -1.40700        3.53570       -0.56860
C          0.94160        0.16630       -0.87330
C          2.00180        1.01750       -0.50660
C          3.12610        0.48160        0.16750
N          3.96080        1.49040        0.43310
N          3.35270        2.54630       -0.05610
C          3.95340        3.84740       -0.02330
C          4.79830        4.08370       -1.27240
N          2.19140        2.33420       -0.62890
C          3.20500       -0.90600        0.39320
C          2.18220       -1.79970       -0.06440
C          0.99870       -1.24670       -0.63670
N         -0.21950       -1.79010       -1.01790
C         -0.79320       -3.10750       -0.90790
C         -0.79820       -3.83280       -2.25510
N          2.60220       -3.09690        0.19460
C          2.10390       -4.39120       -0.20120
C          1.46140       -5.13380        0.97240
C          3.81780       -3.03190        0.82950
C          4.20600       -1.69270        0.97390
N          5.41890       -1.60960        1.58420
C          6.07710       -0.39920        2.00480
C          5.80970       -0.09890        3.47870
C          5.81900       -2.90020        1.85420
C          4.83680       -3.83580        1.36990
C          5.08010       -5.20620        1.52870
C          6.22550       -5.62840        2.14850
C          7.19050       -4.71560        2.63900
C          6.96450       -3.33260        2.47550
C          8.38660       -5.06300        3.32270
C          9.00790       -6.23620        3.67500
C          8.67210       -7.63570        3.34490
O          7.71790       -8.08940        2.74760
C          9.78050       -8.45380        3.89100
C          9.93940       -9.82270        3.81050
C         11.07020      -10.37260        4.39150
F         11.26830      -11.69670        4.33820
C         12.00530       -9.55900        5.03040
F         13.09260      -10.11540        5.57960
C         11.84220       -8.18430        5.11280
C         10.71180       -7.62670        4.53440
C         10.24250       -6.24440        4.44640
C         10.86940       -5.18000        5.04480
C         10.44450       -3.83420        5.05260
N         10.18930       -2.71650        5.14300
C         12.06760       -5.28310        5.78390
N         13.03830       -5.28580        6.39690
H         -6.53500        0.75200       -3.74230
H         -6.15030        5.68040        0.05500
H        -10.00160        4.89210       -3.13960
H        -10.30420        7.95880       -1.64410
H        -12.00950        6.26910       -0.48980
H        -12.35390        8.65050        0.56520
H        -10.35030        9.10700        2.24920
H         -8.77330        7.00570        2.23240
H        -11.07380        5.73300        1.92760
H         -9.92230        5.09660        0.73110
H         -8.33790        8.40270        0.00520
H         -5.48160       -1.15710       -2.89290
H         -3.46980       -2.32070       -2.14250
H         -3.47400        2.62810       -2.76130
H         -1.14760        3.34750       -2.70850
H          0.30130        2.94780       -1.74740
H         -2.49080        3.45570       -0.58970
H         -1.03710        3.06210        0.33780
H         -1.13320        4.58700       -0.54740
H          3.14680        4.58110        0.03580
H          4.57430        3.90060        0.87320
H          5.59000        3.34100       -1.33560
H          5.24680        5.07220       -1.23480
H          4.17840        4.01260       -2.16280
H         -0.27780       -3.67930       -0.14340
H         -1.82800       -2.97700       -0.57340
H          0.20390       -3.90160       -2.67400
H         -1.41450       -3.28980       -2.96700
H         -1.19950       -4.83610       -2.13780
H          1.42070       -4.28800       -1.03900
H          2.96420       -4.97090       -0.55410
H          2.20410       -5.32960        1.74120
H          0.66570       -4.54890        1.42950
H          1.05110       -6.08140        0.63330
H          7.15180       -0.50340        1.82990
H          5.68750        0.41430        1.38780
H          4.74320        0.03430        3.64360
H          6.16090       -0.91240        4.10930
H          6.32340        0.81310        3.76860
H          4.37260       -5.93630        1.16620
H          6.40150       -6.68240        2.26800
H          7.69360       -2.62570        2.84290
H          8.93170       -4.18120        3.63830
H          9.21210      -10.44460        3.31340
H         12.59670       -7.60380        5.61700
