
  xtb     02022209093D
 energy: -176.521773124752 gnorm: 0.000562649990 xtb: 6.4.1 (unknown)
 97110  0     0  0            999 V2000
    3.9695    1.2305   -3.5961 C   0  0  0  0  0  0  0  0  0  0  0  0
    4.5656    2.1358   -4.4286 C   0  0  0  0  0  0  0  0  0  0  0  0
    4.2799    3.5808   -4.5900 C   0  0  0  0  0  0  0  0  0  0  0  0
    3.6087    4.3060   -3.8839 O   0  0  0  0  0  0  0  0  0  0  0  0
    4.9766    3.9919   -5.8225 C   0  0  0  0  0  0  0  0  0  0  0  0
    4.9224    5.2462   -6.4278 C   0  0  0  0  0  0  0  0  0  0  0  0
    5.6496    5.3378   -7.5898 C   0  0  0  0  0  0  0  0  0  0  0  0
    6.3742    4.2592   -8.1163 C   0  0  0  0  0  0  0  0  0  0  0  0
    6.4392    3.0191   -7.5278 C   0  0  0  0  0  0  0  0  0  0  0  0
    5.7111    2.9066   -6.3387 C   0  0  0  0  0  0  0  0  0  0  0  0
    5.5381    1.7655   -5.4460 C   0  0  0  0  0  0  0  0  0  0  0  0
    6.2347    0.5874   -5.5256 C   0  0  0  0  0  0  0  0  0  0  0  0
    6.1466   -0.4889   -4.6169 C   0  0  0  0  0  0  0  0  0  0  0  0
    6.1510   -1.4029   -3.9205 N   0  0  0  0  0  0  0  0  0  0  0  0
    7.1931    0.2943   -6.5190 C   0  0  0  0  0  0  0  0  0  0  0  0
    7.9825   -0.0176   -7.2922 N   0  0  0  0  0  0  0  0  0  0  0  0
    6.8487    5.0552   -9.3063 C   0  0  0  0  0  0  0  0  0  0  0  0
    8.3055    5.5625   -9.2627 C   0  0  0  0  0  0  0  0  0  0  0  0
    8.3303    6.6765  -10.2844 C   0  0  0  0  0  0  0  0  0  0  0  0
    7.6477    7.6984   -9.7839 C   0  0  0  0  0  0  0  0  0  0  0  0
    7.1498    7.2924   -8.4153 C   0  0  0  0  0  0  0  0  0  0  0  0
    8.3076    6.3895   -7.9705 C   0  0  0  0  0  0  0  0  0  0  0  0
    6.0442    6.2584   -8.7175 C   0  0  0  0  0  0  0  0  0  0  0  0
    3.0169    1.3809   -2.5687 C   0  0  0  0  0  0  0  0  0  0  0  0
    2.4633    2.4931   -1.9630 C   0  0  0  0  0  0  0  0  0  0  0  0
    1.5373    2.2031   -0.9660 C   0  0  0  0  0  0  0  0  0  0  0  0
    0.5929    3.2756    0.0439 S   0  0  0  0  0  0  0  0  0  0  0  0
   -0.1338    1.8974    0.7880 C   0  0  0  0  0  0  0  0  0  0  0  0
   -1.0751    1.6010    1.7836 C   0  0  0  0  0  0  0  0  0  0  0  0
   -1.7731    2.4479    2.6724 C   0  0  0  0  0  0  0  0  0  0  0  0
   -2.6268    1.8597    3.6603 C   0  0  0  0  0  0  0  0  0  0  0  0
   -3.1805    2.7628    4.4542 N   0  0  0  0  0  0  0  0  0  0  0  0
   -2.6727    4.2286    3.9945 S   0  0  0  0  0  0  0  0  0  0  0  0
   -1.7277    3.7679    2.7655 N   0  0  0  0  0  0  0  0  0  0  0  0
   -2.8215    0.4610    3.6449 C   0  0  0  0  0  0  0  0  0  0  0  0
   -3.6942   -0.3448    4.3883 C   0  0  0  0  0  0  0  0  0  0  0  0
   -3.5837   -1.6441    3.8774 C   0  0  0  0  0  0  0  0  0  0  0  0
   -2.6496   -1.6745    2.8752 N   0  0  0  0  0  0  0  0  0  0  0  0
   -2.5914   -2.8163    1.9927 C   0  0  0  0  0  0  0  0  0  0  0  0
   -3.2005   -2.5052    0.6284 C   0  0  0  0  0  0  0  0  0  0  0  0
   -2.1617   -0.3873    2.7082 C   0  0  0  0  0  0  0  0  0  0  0  0
   -1.1977    0.1813    1.8341 C   0  0  0  0  0  0  0  0  0  0  0  0
   -0.3129   -0.3611    0.9139 N   0  0  0  0  0  0  0  0  0  0  0  0
    0.3279    0.6751    0.2865 C   0  0  0  0  0  0  0  0  0  0  0  0
    1.2935    0.8379   -0.7127 C   0  0  0  0  0  0  0  0  0  0  0  0
    2.3391   -0.2382   -1.8145 Se  0  0  0  0  0  2  0  0  0  0  0  0
    0.2451   -1.6918    0.8307 C   0  0  0  0  0  0  0  0  0  0  0  0
    0.8962   -2.1115    2.1456 C   0  0  0  0  0  0  0  0  0  0  0  0
   -4.4588   -2.5337    4.5045 C   0  0  0  0  0  0  0  0  0  0  0  0
   -5.2183   -1.8906    5.4989 C   0  0  0  0  0  0  0  0  0  0  0  0
   -4.8523   -0.1879    5.6595 S   0  0  0  0  0  0  0  0  0  0  0  0
   -6.1398   -2.6798    6.1776 C   0  0  0  0  0  0  0  0  0  0  0  0
   -6.1878   -4.0055    5.7754 C   0  0  0  0  0  0  0  0  0  0  0  0
   -4.9222   -4.3284    4.3843 Se  0  0  0  0  0  2  0  0  0  0  0  0
   -7.0439   -5.0032    6.2860 C   0  0  0  0  0  0  0  0  0  0  0  0
   -8.0071   -4.8691    7.2644 C   0  0  0  0  0  0  0  0  0  0  0  0
   -8.3617   -3.7175    7.9797 C   0  0  0  0  0  0  0  0  0  0  0  0
   -8.6332   -2.7594    8.5502 N   0  0  0  0  0  0  0  0  0  0  0  0
   -8.6381   -6.1525    7.4504 C   0  0  0  0  0  0  0  0  0  0  0  0
   -9.6508   -6.4919    8.3067 C   0  0  0  0  0  0  0  0  0  0  0  0
  -10.1463   -7.8116    8.3364 C   0  0  0  0  0  0  0  0  0  0  0  0
  -10.5516   -8.8841    8.3606 N   0  0  0  0  0  0  0  0  0  0  0  0
  -10.2590   -5.5840    9.1922 C   0  0  0  0  0  0  0  0  0  0  0  0
  -10.7937   -4.8929    9.9352 N   0  0  0  0  0  0  0  0  0  0  0  0
   -8.0911   -7.0585    6.6274 O   0  0  0  0  0  0  0  0  0  0  0  0
   -7.0661   -6.4515    5.8317 C   0  0  0  0  0  0  0  0  0  0  0  0
   -5.7564   -7.1854    6.1309 C   0  0  0  0  0  0  0  0  0  0  0  0
   -7.4744   -6.6104    4.3647 C   0  0  0  0  0  0  0  0  0  0  0  0
    4.2440    0.1931   -3.7634 H   0  0  0  0  0  0  0  0  0  0  0  0
    4.3427    6.0455   -5.9934 H   0  0  0  0  0  0  0  0  0  0  0  0
    6.9916    2.1972   -7.9514 H   0  0  0  0  0  0  0  0  0  0  0  0
    6.5629    4.6643  -10.2810 H   0  0  0  0  0  0  0  0  0  0  0  0
    9.0604    4.7877   -9.3640 H   0  0  0  0  0  0  0  0  0  0  0  0
    8.7794    6.5892  -11.2563 H   0  0  0  0  0  0  0  0  0  0  0  0
    7.4124    8.6351  -10.2542 H   0  0  0  0  0  0  0  0  0  0  0  0
    6.8528    8.0943   -7.7449 H   0  0  0  0  0  0  0  0  0  0  0  0
    9.2348    6.9446   -7.8390 H   0  0  0  0  0  0  0  0  0  0  0  0
    8.0997    5.8104   -7.0726 H   0  0  0  0  0  0  0  0  0  0  0  0
    5.2234    6.6719   -9.3007 H   0  0  0  0  0  0  0  0  0  0  0  0
    2.7286    3.4941   -2.2554 H   0  0  0  0  0  0  0  0  0  0  0  0
   -1.5689   -3.1838    1.9064 H   0  0  0  0  0  0  0  0  0  0  0  0
   -3.1739   -3.6124    2.4719 H   0  0  0  0  0  0  0  0  0  0  0  0
   -4.2501   -2.2437    0.7414 H   0  0  0  0  0  0  0  0  0  0  0  0
   -2.6929   -1.6690    0.1534 H   0  0  0  0  0  0  0  0  0  0  0  0
   -3.1286   -3.3754   -0.0183 H   0  0  0  0  0  0  0  0  0  0  0  0
   -0.5082   -2.4086    0.5032 H   0  0  0  0  0  0  0  0  0  0  0  0
    1.0117   -1.6592    0.0482 H   0  0  0  0  0  0  0  0  0  0  0  0
    1.2978   -3.1172    2.0561 H   0  0  0  0  0  0  0  0  0  0  0  0
    1.7121   -1.4345    2.3873 H   0  0  0  0  0  0  0  0  0  0  0  0
    0.1824   -2.0871    2.9659 H   0  0  0  0  0  0  0  0  0  0  0  0
   -6.7714   -2.2877    6.9541 H   0  0  0  0  0  0  0  0  0  0  0  0
   -5.8997   -8.2473    5.9498 H   0  0  0  0  0  0  0  0  0  0  0  0
   -5.4754   -7.0436    7.1726 H   0  0  0  0  0  0  0  0  0  0  0  0
   -4.9553   -6.8202    5.4904 H   0  0  0  0  0  0  0  0  0  0  0  0
   -6.6768   -6.2774    3.7026 H   0  0  0  0  0  0  0  0  0  0  0  0
   -7.6795   -7.6602    4.1718 H   0  0  0  0  0  0  0  0  0  0  0  0
   -8.3752   -6.0354    4.1595 H   0  0  0  0  0  0  0  0  0  0  0  0
  1  2  2  0  0  0  0
  2  3  1  0  0  0  0
  3  4  2  0  0  0  0
  3  5  1  0  0  0  0
  5  6  2  0  0  0  0
  6  7  1  0  0  0  0
  7  8  2  0  0  0  0
  8  9  1  0  0  0  0
  9 10  2  0  0  0  0
 10 11  1  0  0  0  0
 11 12  2  0  0  0  0
 12 13  1  0  0  0  0
 13 14  3  0  0  0  0
 12 15  1  0  0  0  0
 15 16  3  0  0  0  0
  8 17  1  0  0  0  0
 17 18  1  0  0  0  0
 18 19  1  0  0  0  0
 19 20  2  0  0  0  0
 20 21  1  0  0  0  0
 21 22  1  0  0  0  0
 21 23  1  0  0  0  0
  1 24  1  0  0  0  0
 24 25  2  0  0  0  0
 25 26  1  0  0  0  0
 26 27  1  0  0  0  0
 27 28  1  0  0  0  0
 28 29  1  0  0  0  0
 29 30  1  0  0  0  0
 30 31  1  0  0  0  0
 31 32  2  0  0  0  0
 32 33  1  0  0  0  0
 33 34  1  0  0  0  0
 31 35  1  0  0  0  0
 35 36  1  0  0  0  0
 36 37  2  0  0  0  0
 37 38  1  0  0  0  0
 38 39  1  0  0  0  0
 39 40  1  0  0  0  0
 38 41  1  0  0  0  0
 41 42  1  0  0  0  0
 42 43  1  0  0  0  0
 43 44  1  0  0  0  0
 44 45  1  0  0  0  0
 45 46  1  0  0  0  0
 43 47  1  0  0  0  0
 47 48  1  0  0  0  0
 37 49  1  0  0  0  0
 49 50  2  0  0  0  0
 50 51  1  0  0  0  0
 50 52  1  0  0  0  0
 52 53  2  0  0  0  0
 53 54  1  0  0  0  0
 53 55  1  0  0  0  0
 55 56  2  0  0  0  0
 56 57  1  0  0  0  0
 57 58  3  0  0  0  0
 56 59  1  0  0  0  0
 59 60  2  0  0  0  0
 60 61  1  0  0  0  0
 61 62  3  0  0  0  0
 60 63  1  0  0  0  0
 63 64  3  0  0  0  0
 59 65  1  0  0  0  0
 65 66  1  0  0  0  0
 66 67  1  0  0  0  0
 66 68  1  0  0  0  0
 11  2  1  0  0  0  0
 23 17  1  0  0  0  0
 46 24  1  0  0  0  0
 54 49  1  0  0  0  0
 66 55  1  0  0  0  0
 10  5  1  0  0  0  0
 22 18  1  0  0  0  0
 45 26  2  0  0  0  0
 23  7  1  0  0  0  0
 44 28  2  0  0  0  0
 42 29  2  0  0  0  0
 34 30  2  0  0  0  0
 41 35  2  0  0  0  0
 51 36  1  0  0  0  0
  1 69  1  0  0  0  0
  6 70  1  0  0  0  0
  9 71  1  0  0  0  0
 17 72  1  0  0  0  0
 18 73  1  0  0  0  0
 19 74  1  0  0  0  0
 20 75  1  0  0  0  0
 21 76  1  0  0  0  0
 22 77  1  0  0  0  0
 22 78  1  0  0  0  0
 23 79  1  0  0  0  0
 25 80  1  0  0  0  0
 39 81  1  0  0  0  0
 39 82  1  0  0  0  0
 40 83  1  0  0  0  0
 40 84  1  0  0  0  0
 40 85  1  0  0  0  0
 47 86  1  0  0  0  0
 47 87  1  0  0  0  0
 48 88  1  0  0  0  0
 48 89  1  0  0  0  0
 48 90  1  0  0  0  0
 52 91  1  0  0  0  0
 67 92  1  0  0  0  0
 67 93  1  0  0  0  0
 67 94  1  0  0  0  0
 68 95  1  0  0  0  0
 68 96  1  0  0  0  0
 68 97  1  0  0  0  0
M  END
