
  xtb     02012220273D
 energy: -189.033302007576 gnorm: 0.000329761322 xtb: 6.4.1 (unknown)
107120  0     0  0            999 V2000
   -0.5612    5.2094   -1.1724 C   0  0  0  0  0  0  0  0  0  0  0  0
    0.3035    6.2697   -1.2490 C   0  0  0  0  0  0  0  0  0  0  0  0
    1.5918    6.4108   -0.5554 C   0  0  0  0  0  0  0  0  0  0  0  0
    2.0097    5.7600    0.3835 O   0  0  0  0  0  0  0  0  0  0  0  0
    2.3054    7.5036   -1.2411 C   0  0  0  0  0  0  0  0  0  0  0  0
    3.6140    7.9212   -1.0107 C   0  0  0  0  0  0  0  0  0  0  0  0
    4.0317    8.9304   -1.8448 C   0  0  0  0  0  0  0  0  0  0  0  0
    3.2069    9.4894   -2.8301 C   0  0  0  0  0  0  0  0  0  0  0  0
    1.9088    9.0971   -3.0568 C   0  0  0  0  0  0  0  0  0  0  0  0
    1.4658    8.0654   -2.2235 C   0  0  0  0  0  0  0  0  0  0  0  0
    0.1809    7.3708   -2.1846 C   0  0  0  0  0  0  0  0  0  0  0  0
   -0.9472    7.7422   -2.8712 C   0  0  0  0  0  0  0  0  0  0  0  0
   -1.0158    8.8342   -3.7605 C   0  0  0  0  0  0  0  0  0  0  0  0
   -1.1429    9.7027   -4.5010 N   0  0  0  0  0  0  0  0  0  0  0  0
   -2.2074    7.1210   -2.7540 C   0  0  0  0  0  0  0  0  0  0  0  0
   -3.2668    6.6784   -2.7009 N   0  0  0  0  0  0  0  0  0  0  0  0
    4.2864   10.4247   -3.3161 C   0  0  0  0  0  0  0  0  0  0  0  0
    5.0016   10.0253   -4.6244 C   0  0  0  0  0  0  0  0  0  0  0  0
    6.2860   10.8220   -4.5933 C   0  0  0  0  0  0  0  0  0  0  0  0
    7.0662   10.2934   -3.6593 C   0  0  0  0  0  0  0  0  0  0  0  0
    6.3222    9.1307   -3.0433 C   0  0  0  0  0  0  0  0  0  0  0  0
    5.5460    8.6352   -4.2704 C   0  0  0  0  0  0  0  0  0  0  0  0
    5.2050    9.8024   -2.2161 C   0  0  0  0  0  0  0  0  0  0  0  0
   -0.5277    4.0523   -0.3780 C   0  0  0  0  0  0  0  0  0  0  0  0
    0.5955    3.8105    0.9593 S   0  0  0  0  0  0  0  0  0  0  0  0
   -0.1076    2.2851    1.2446 C   0  0  0  0  0  0  0  0  0  0  0  0
    0.0976    1.1876    2.0960 C   0  0  0  0  0  0  0  0  0  0  0  0
    0.9197    1.0152    3.2318 C   0  0  0  0  0  0  0  0  0  0  0  0
    0.8736   -0.2330    3.9408 C   0  0  0  0  0  0  0  0  0  0  0  0
    1.6503   -0.2350    5.0124 N   0  0  0  0  0  0  0  0  0  0  0  0
    2.3787    1.2071    5.1197 S   0  0  0  0  0  0  0  0  0  0  0  0
    1.7345    1.8877    3.8027 N   0  0  0  0  0  0  0  0  0  0  0  0
    0.1202   -1.2969    3.3948 C   0  0  0  0  0  0  0  0  0  0  0  0
    0.0944   -2.6647    3.6933 C   0  0  0  0  0  0  0  0  0  0  0  0
    0.7722   -3.7649    4.8433 S   0  0  0  0  0  0  0  0  0  0  0  0
    0.1025   -5.0961    3.9158 C   0  0  0  0  0  0  0  0  0  0  0  0
    0.2090   -6.4719    4.0490 C   0  0  0  0  0  0  0  0  0  0  0  0
    0.9019   -7.1239    5.2002 C   0  0  0  0  0  0  0  0  0  0  0  0
   -0.1074   -7.5477    6.2710 C   0  0  0  0  0  0  0  0  0  0  0  0
   -0.4414   -7.1414    2.9935 C   0  0  0  0  0  0  0  0  0  0  0  0
   -1.2080   -6.0186    1.8663 S   0  0  0  0  0  0  0  0  0  0  0  0
   -0.6311   -4.6834    2.7879 C   0  0  0  0  0  0  0  0  0  0  0  0
   -0.6449   -3.2915    2.6790 C   0  0  0  0  0  0  0  0  0  0  0  0
   -1.1278   -2.3557    1.8057 N   0  0  0  0  0  0  0  0  0  0  0  0
   -0.6675   -1.1211    2.2179 C   0  0  0  0  0  0  0  0  0  0  0  0
   -0.7841    0.1722    1.6561 C   0  0  0  0  0  0  0  0  0  0  0  0
   -1.5858    0.6586    0.6238 N   0  0  0  0  0  0  0  0  0  0  0  0
   -1.1428    1.9509    0.3510 C   0  0  0  0  0  0  0  0  0  0  0  0
   -1.3915    2.9577   -0.5827 C   0  0  0  0  0  0  0  0  0  0  0  0
   -2.3832    2.8947   -1.7024 C   0  0  0  0  0  0  0  0  0  0  0  0
   -3.7322    3.5079   -1.3178 C   0  0  0  0  0  0  0  0  0  0  0  0
   -2.9883    0.2754    0.5277 C   0  0  0  0  0  0  0  0  0  0  0  0
   -3.4428   -0.2480   -0.8411 C   0  0  0  0  0  0  0  0  0  0  0  0
   -1.6018   -2.7535    0.4989 C   0  0  0  0  0  0  0  0  0  0  0  0
   -0.5373   -2.5231   -0.5699 C   0  0  0  0  0  0  0  0  0  0  0  0
   -0.4119   -8.5285    2.8455 C   0  0  0  0  0  0  0  0  0  0  0  0
   -0.9137   -9.3449    1.8569 C   0  0  0  0  0  0  0  0  0  0  0  0
   -1.6898   -8.9094    0.6940 C   0  0  0  0  0  0  0  0  0  0  0  0
   -2.0415   -7.7769    0.4185 O   0  0  0  0  0  0  0  0  0  0  0  0
   -1.9665  -10.1323   -0.0869 C   0  0  0  0  0  0  0  0  0  0  0  0
   -2.6469  -10.3036   -1.2780 C   0  0  0  0  0  0  0  0  0  0  0  0
   -3.1905   -9.2622   -1.9178 F   0  0  0  0  0  0  0  0  0  0  0  0
   -2.7713  -11.5726   -1.8303 C   0  0  0  0  0  0  0  0  0  0  0  0
   -2.2117  -12.6575   -1.1790 C   0  0  0  0  0  0  0  0  0  0  0  0
   -1.5232  -12.5097    0.0195 C   0  0  0  0  0  0  0  0  0  0  0  0
   -1.4000  -11.2432    0.5653 C   0  0  0  0  0  0  0  0  0  0  0  0
   -0.7361  -10.7774    1.7862 C   0  0  0  0  0  0  0  0  0  0  0  0
   -0.0586  -11.5829    2.6674 C   0  0  0  0  0  0  0  0  0  0  0  0
    0.0860  -12.9784    2.5219 C   0  0  0  0  0  0  0  0  0  0  0  0
    0.2475  -14.1140    2.4702 N   0  0  0  0  0  0  0  0  0  0  0  0
    0.5986  -11.1548    3.8393 C   0  0  0  0  0  0  0  0  0  0  0  0
    1.1607  -10.8912    4.8067 N   0  0  0  0  0  0  0  0  0  0  0  0
   -1.3876    5.2375   -1.8701 H   0  0  0  0  0  0  0  0  0  0  0  0
    4.2148    7.4619   -0.2415 H   0  0  0  0  0  0  0  0  0  0  0  0
    1.2871    9.5355   -3.8196 H   0  0  0  0  0  0  0  0  0  0  0  0
    4.0557   11.4869   -3.2640 H   0  0  0  0  0  0  0  0  0  0  0  0
    4.3933   10.1123   -5.5205 H   0  0  0  0  0  0  0  0  0  0  0  0
    6.4663   11.6930   -5.1955 H   0  0  0  0  0  0  0  0  0  0  0  0
    8.0286   10.6345   -3.3253 H   0  0  0  0  0  0  0  0  0  0  0  0
    6.9168    8.4021   -2.4988 H   0  0  0  0  0  0  0  0  0  0  0  0
    4.7756    7.9010   -4.0419 H   0  0  0  0  0  0  0  0  0  0  0  0
    6.2050    8.2425   -5.0430 H   0  0  0  0  0  0  0  0  0  0  0  0
    5.5878   10.4493   -1.4291 H   0  0  0  0  0  0  0  0  0  0  0  0
    1.5983   -6.4023    5.6318 H   0  0  0  0  0  0  0  0  0  0  0  0
    1.4713   -7.9961    4.8754 H   0  0  0  0  0  0  0  0  0  0  0  0
   -0.8172   -8.2667    5.8689 H   0  0  0  0  0  0  0  0  0  0  0  0
    0.4138   -8.0084    7.1051 H   0  0  0  0  0  0  0  0  0  0  0  0
   -0.6573   -6.6832    6.6358 H   0  0  0  0  0  0  0  0  0  0  0  0
   -2.5132    1.8532   -1.9893 H   0  0  0  0  0  0  0  0  0  0  0  0
   -1.9942    3.4188   -2.5764 H   0  0  0  0  0  0  0  0  0  0  0  0
   -3.6280    4.5724   -1.1256 H   0  0  0  0  0  0  0  0  0  0  0  0
   -4.1360    3.0370   -0.4242 H   0  0  0  0  0  0  0  0  0  0  0  0
   -4.4431    3.3811   -2.1303 H   0  0  0  0  0  0  0  0  0  0  0  0
   -3.1588   -0.4798    1.2980 H   0  0  0  0  0  0  0  0  0  0  0  0
   -3.5944    1.1464    0.7993 H   0  0  0  0  0  0  0  0  0  0  0  0
   -3.9400    0.5283   -1.4134 H   0  0  0  0  0  0  0  0  0  0  0  0
   -4.1592   -1.0569   -0.7155 H   0  0  0  0  0  0  0  0  0  0  0  0
   -2.5992   -0.6176   -1.4179 H   0  0  0  0  0  0  0  0  0  0  0  0
   -2.5156   -2.2223    0.2476 H   0  0  0  0  0  0  0  0  0  0  0  0
   -1.8368   -3.8186    0.5592 H   0  0  0  0  0  0  0  0  0  0  0  0
    0.3649   -3.0795   -0.3271 H   0  0  0  0  0  0  0  0  0  0  0  0
   -0.9048   -2.8658   -1.5330 H   0  0  0  0  0  0  0  0  0  0  0  0
   -0.2827   -1.4679   -0.6418 H   0  0  0  0  0  0  0  0  0  0  0  0
    0.1241   -9.0302    3.6393 H   0  0  0  0  0  0  0  0  0  0  0  0
   -3.3031  -11.6915   -2.7610 H   0  0  0  0  0  0  0  0  0  0  0  0
   -2.3104  -13.6412   -1.6113 H   0  0  0  0  0  0  0  0  0  0  0  0
   -1.0986  -13.3747    0.5005 H   0  0  0  0  0  0  0  0  0  0  0  0
  1  2  2  0  0  0  0
  2  3  1  0  0  0  0
  3  4  2  0  0  0  0
  3  5  1  0  0  0  0
  5  6  2  0  0  0  0
  6  7  1  0  0  0  0
  7  8  2  0  0  0  0
  8  9  1  0  0  0  0
  9 10  2  0  0  0  0
 10 11  1  0  0  0  0
 11 12  2  0  0  0  0
 12 13  1  0  0  0  0
 13 14  3  0  0  0  0
 12 15  1  0  0  0  0
 15 16  3  0  0  0  0
  8 17  1  0  0  0  0
 17 18  1  0  0  0  0
 18 19  1  0  0  0  0
 19 20  2  0  0  0  0
 20 21  1  0  0  0  0
 21 22  1  0  0  0  0
 21 23  1  0  0  0  0
  1 24  1  0  0  0  0
 24 25  1  0  0  0  0
 25 26  1  0  0  0  0
 26 27  1  0  0  0  0
 27 28  1  0  0  0  0
 28 29  1  0  0  0  0
 29 30  2  0  0  0  0
 30 31  1  0  0  0  0
 31 32  1  0  0  0  0
 29 33  1  0  0  0  0
 33 34  1  0  0  0  0
 34 35  1  0  0  0  0
 35 36  1  0  0  0  0
 36 37  1  0  0  0  0
 37 38  1  0  0  0  0
 38 39  1  0  0  0  0
 37 40  2  0  0  0  0
 40 41  1  0  0  0  0
 41 42  1  0  0  0  0
 42 43  1  0  0  0  0
 43 44  1  0  0  0  0
 44 45  1  0  0  0  0
 45 46  1  0  0  0  0
 46 47  1  0  0  0  0
 47 48  1  0  0  0  0
 48 49  1  0  0  0  0
 49 50  1  0  0  0  0
 50 51  1  0  0  0  0
 47 52  1  0  0  0  0
 52 53  1  0  0  0  0
 44 54  1  0  0  0  0
 54 55  1  0  0  0  0
 40 56  1  0  0  0  0
 56 57  2  0  0  0  0
 57 58  1  0  0  0  0
 58 59  2  0  0  0  0
 58 60  1  0  0  0  0
 60 61  2  0  0  0  0
 61 62  1  0  0  0  0
 61 63  1  0  0  0  0
 63 64  2  0  0  0  0
 64 65  1  0  0  0  0
 65 66  2  0  0  0  0
 66 67  1  0  0  0  0
 67 68  2  0  0  0  0
 68 69  1  0  0  0  0
 69 70  3  0  0  0  0
 68 71  1  0  0  0  0
 71 72  3  0  0  0  0
 11  2  1  0  0  0  0
 23 17  1  0  0  0  0
 49 24  2  0  0  0  0
 67 57  1  0  0  0  0
 10  5  1  0  0  0  0
 22 18  1  0  0  0  0
 48 26  2  0  0  0  0
 66 60  1  0  0  0  0
 23  7  1  0  0  0  0
 46 27  2  0  0  0  0
 32 28  2  0  0  0  0
 45 33  2  0  0  0  0
 43 34  2  0  0  0  0
 42 36  2  0  0  0  0
  1 73  1  0  0  0  0
  6 74  1  0  0  0  0
  9 75  1  0  0  0  0
 17 76  1  0  0  0  0
 18 77  1  0  0  0  0
 19 78  1  0  0  0  0
 20 79  1  0  0  0  0
 21 80  1  0  0  0  0
 22 81  1  0  0  0  0
 22 82  1  0  0  0  0
 23 83  1  0  0  0  0
 38 84  1  0  0  0  0
 38 85  1  0  0  0  0
 39 86  1  0  0  0  0
 39 87  1  0  0  0  0
 39 88  1  0  0  0  0
 50 89  1  0  0  0  0
 50 90  1  0  0  0  0
 51 91  1  0  0  0  0
 51 92  1  0  0  0  0
 51 93  1  0  0  0  0
 52 94  1  0  0  0  0
 52 95  1  0  0  0  0
 53 96  1  0  0  0  0
 53 97  1  0  0  0  0
 53 98  1  0  0  0  0
 54 99  1  0  0  0  0
 54100  1  0  0  0  0
 55101  1  0  0  0  0
 55102  1  0  0  0  0
 55103  1  0  0  0  0
 56104  1  0  0  0  0
 63105  1  0  0  0  0
 64106  1  0  0  0  0
 65107  1  0  0  0  0
M  END
