201

C         -0.65470       -7.30900        6.24070
C          0.25460       -7.63790        7.20230
C         -0.18940       -8.25360        8.47730
O         -1.27380       -8.74050        8.71220
C          0.94790       -8.08450        9.40530
C          0.97620       -8.37290       10.76740
C          2.16980       -8.07290       11.37910
C          3.26050       -7.52530       10.69060
C          3.25230       -7.24640        9.34440
C          2.04740       -7.54430        8.70520
C          1.67750       -7.41160        7.29820
C          2.55480       -7.37640        6.24320
C          3.95120       -7.26300        6.37930
N          5.09370       -7.15960        6.43450
C          2.15200       -7.55390        4.90420
N          1.86390       -7.74720        3.80910
C          4.11310       -7.45790       11.93300
C          4.28930       -6.07790       12.61370
C          3.06770       -5.26630       12.26060
C          2.03500       -5.78540       12.91120
C          2.53990       -6.95710       13.71640
C          3.95140       -6.45820       14.06420
C          2.89850       -8.06950       12.69980
C         -0.53780       -6.35950        5.20650
S          0.61320       -5.02640        5.27620
C          0.03090       -4.43320        3.78240
C          0.27170       -3.34350        2.92070
C         -0.60910       -3.42080        1.84210
C         -1.46070       -4.66430        1.92750
C         -0.99640       -5.22210        3.25260
C         -1.33600       -6.28370        4.07000
C         -2.95300       -4.41080        1.97630
C         -3.47260       -3.15770        2.26400
C         -4.84090       -2.96660        2.33060
C         -5.72030       -4.02040        2.12580
C         -7.20520       -3.79930        2.15140
C         -7.71400       -3.43310        0.75560
C         -5.19330       -5.27620        1.85030
C         -3.82810       -5.47180        1.77830
C         -1.08370       -5.54700        0.74600
C         -1.64330       -5.27940       -0.49720
C         -1.29950       -6.04120       -1.59710
C         -0.38990       -7.08510       -1.48420
C          0.01080       -7.89100       -2.68640
C          1.24200       -7.27640       -3.35530
C          0.17680       -7.33520       -0.24190
C         -0.15920       -6.57490        0.86380
C         -0.43350       -2.35460        0.96700
S         -1.21900       -1.81410       -0.48600
C         -0.19080       -0.41980       -0.50370
C         -0.06220        0.74010       -1.33170
C         -0.79010        1.16500       -2.43580
C         -0.44470        2.38200       -2.98260
C         -1.08320        3.06090       -4.17790
C         -0.75440        2.22090       -5.39970
C          0.45950        2.35650       -6.06110
C          0.76670        1.54040       -7.13440
C         -0.11720        0.56030       -7.56430
C          0.24270       -0.35610       -8.69770
C          0.99670       -1.57950       -8.17220
C         -1.31610        0.40970       -6.87990
C         -1.63280        1.22590       -5.81100
C         -2.55960        3.35260       -4.02760
C         -3.31620        3.69530       -5.14230
C         -4.64960        4.02780       -5.00770
C         -5.25620        4.04780       -3.75890
C         -6.71450        4.37420       -3.61720
C         -7.55810        3.10040       -3.70330
C         -4.49210        3.72070       -2.64700
C         -3.15790        3.38330       -2.77510
C         -0.31590        4.36890       -4.21180
C          0.86720        4.36000       -3.27420
C          0.61420        3.15200       -2.46840
C          1.34600        2.71540       -1.36710
C          0.99680        1.51230       -0.80060
C          1.59460        0.84220        0.42620
C          3.01780        0.35080        0.22940
C          3.74140       -0.07920        1.33540
C          5.01900       -0.58140        1.18570
C          5.60760       -0.66820       -0.06980
C          6.98060       -1.25340       -0.23500
C          6.89380       -2.76600       -0.44820
C          4.87590       -0.24710       -1.17140
C          3.59380        0.25280       -1.02850
C          1.48580        1.79380        1.60050
C          2.48320        2.73480        1.82370
C          2.37460        3.63880        2.86250
C          1.26850        3.63160        3.70270
C          1.17850        4.58310        4.86070
C          1.83200        3.97510        6.10340
C          0.27240        2.69310        3.47220
C          0.37420        1.78920        2.43080
C          0.71550       -0.37480        0.53970
C          0.58360       -1.47280        1.38760
S          1.33210       -1.97390        2.87170
S         -0.43090        5.62030       -2.81890
C         -0.18950        6.52740       -4.39580
C         -0.29180        5.44230       -5.20230
C          0.08290        7.90170       -4.49740
C          0.03210        8.71280       -5.59060
C          0.77540       10.00580       -5.57220
O          1.22630       10.56390       -4.59880
C          0.87500       10.41670       -6.98510
C          1.58210       11.50150       -7.50000
C          1.50410       11.62350       -8.86680
C          0.78330       10.72850       -9.66950
C          0.08000        9.65470       -9.17680
C          0.13810        9.51910       -7.78720
C         -0.51250        8.54330       -6.91620
C         -1.60430        7.77930       -7.24500
C         -2.37510        7.10510       -6.28010
N         -3.05290        6.58640       -5.51170
C         -2.14340        7.67420       -8.54190
N         -2.61070        7.53130       -9.58110
C          1.13960       11.45690      -10.94110
C          0.03960       12.35140      -11.55170
C          0.79900       13.28160      -12.47000
C          1.48060       14.13020      -11.71110
C          1.19320       13.78800      -10.26680
C         -0.25960       13.31140      -10.39300
C          1.94140       12.45590      -10.04630
H         -1.62670       -7.78390        6.33510
H          0.11590       -8.79440       11.26350
H          4.09280       -6.81960        8.82160
H          5.03920       -8.02870       11.90640
H          5.25000       -5.60400       12.43100
H          3.06880       -4.46010       11.55060
H          1.00110       -5.49930       12.85290
H          1.90730       -7.28280       14.53810
H          3.94170       -5.59930       14.73370
H          4.59800       -7.23460       14.47100
H          3.03250       -9.03890       13.17600
H         -2.10040       -7.00910        3.85840
H         -2.80900       -2.32320        2.43690
H         -5.22980       -1.98230        2.54930
H         -7.44780       -2.99260        2.84610
H         -7.70890       -4.70630        2.49140
H         -8.78900       -3.26910        0.77290
H         -7.49550       -4.23300        0.05170
H         -7.22910       -2.52580        0.40250
H         -5.86070       -6.11130        1.69190
H         -3.43410       -6.45290        1.55600
H         -2.35760       -4.47500       -0.60100
H         -1.74750       -5.82300       -2.55620
H         -0.81190       -7.92130       -3.40390
H          0.24000       -8.91500       -2.38480
H          1.53430       -7.85970       -4.22550
H          2.07620       -7.24960       -2.65800
H          1.03050       -6.25790       -3.67370
H          0.89130       -8.13770       -0.13070
H          0.30250       -6.79520        1.81440
H         -1.60270        0.57340       -2.82970
H          1.17810        3.09320       -5.73290
H          1.71170        1.66720       -7.64330
H         -0.66300       -0.68420       -9.21140
H          0.87160        0.17260       -9.41680
H          0.38330       -2.12310       -7.45710
H          1.25400       -2.24880       -8.98980
H          1.91240       -1.27300       -7.67160
H         -2.01350       -0.35650       -7.18750
H         -2.57240        1.09210       -5.29530
H         -2.85830        3.69770       -6.12120
H         -5.22090        4.29370       -5.88470
H         -6.89300        4.85950       -2.65560
H         -7.01680        5.06190       -4.40900
H         -7.40690        2.61080       -4.66290
H         -8.61460        3.33480       -3.59580
H         -7.27480        2.40470       -2.91630
H         -4.94240        3.73840       -1.66460
H         -2.58010        3.14490       -1.89310
H          2.14790        3.31930       -0.97260
H          3.30220       -0.01210        2.32050
H          5.56750       -0.90960        2.05690
H          7.47760       -0.79650       -1.09330
H          7.57890       -1.05000        0.65540
H          7.88790       -3.19260       -0.56020
H          6.31620       -2.98940       -1.34260
H          6.40570       -3.24010        0.40030
H          5.31340       -0.30920       -2.15780
H          3.04380        0.57160       -1.90190
H          3.35560        2.75150        1.18650
H          3.16050        4.36330        3.02220
H          1.68280        5.51870        4.61050
H          0.13170        4.80620        5.07700
H          1.33390        3.04760        6.37720
H          2.87960        3.75560        5.91020
H          1.76990        4.66430        6.94250
H         -0.59790        2.67080        4.11300
H         -0.41980        1.07510        2.26590
H         -0.21400        5.34190       -6.26990
H          0.47140        8.36650       -3.59610
H          2.12990       12.16520       -6.84970
H         -0.46250        8.96530       -9.80290
H          1.67870       10.87610      -11.68700
H         -0.79790       11.81100      -11.98410
H          0.80510       13.19460      -13.54070
H          2.16990       14.89350      -12.02100
H          1.40670       14.55750       -9.52990
H         -0.93170       14.11520      -10.68840
H         -0.64650       12.82350       -9.50030
H          3.01620       12.54170      -10.19460
