133

C          5.55020       -0.42570        4.46070
C          4.96080       -0.51260        5.69620
C          3.52100       -0.54230        5.96220
O          2.61380       -0.54080        5.14500
C          3.36980       -0.57690        7.42610
C          2.17750       -0.57910        8.14700
C          2.34880       -0.58730        9.51040
C          3.61380       -0.59120       10.11240
C          4.79740       -0.59170        9.41280
C          4.64680       -0.58550        8.02290
C          5.65760       -0.56100        6.96530
C          7.01450       -0.57160        7.16640
C          8.00570       -0.52030        6.16350
N          8.88560       -0.47480        5.42570
C          7.63230       -0.63710        8.43290
N          8.20780       -0.69300        9.42520
C          3.03920       -0.58800       11.50710
C          3.05660       -1.93140       12.26600
C          2.02850       -1.74260       13.35800
C          0.83020       -1.74190       12.78820
C          1.02830       -1.93000       11.30120
C          2.26590       -2.83650       11.31230
C          1.62820       -0.58620       10.83600
C          4.98030       -0.31720        3.18690
C          5.77170       -0.15980        2.03680
C          7.24250       -0.12420        2.04890
C          7.92550       -1.23080        1.55490
C          9.30630       -1.26350        1.56270
C         10.01410       -0.18330        2.05980
C          9.33750        0.92610        2.53090
C          7.95050        0.97700        2.53540
C          7.24810        2.23170        2.97250
C          6.94990        3.11580        1.75940
C          4.99780       -0.08200        0.88670
S          5.40840        0.14540       -0.80280
C          3.71880        0.11470       -1.17690
C          2.87990        0.19590       -2.29480
C          3.19340        0.30270       -3.66750
C          2.12630        0.29010       -4.62170
N          2.56130        0.35780       -5.87000
S          4.17830        0.43490       -5.84470
N          4.38450        0.38350       -4.23950
C          0.79500        0.24810       -4.15280
C         -0.41490        0.31320       -4.85370
S         -0.97650        0.42260       -6.48720
C         -2.61900        0.47390       -5.87640
C         -3.84980        0.58670       -6.50860
C         -4.02040        0.67080       -7.96710
C         -4.42020        1.85370       -8.59350
C         -4.60680        3.12940       -7.82240
C         -3.26120        3.83410       -7.63630
C         -4.56460        1.85420       -9.97410
C         -4.32280        0.71710      -10.72190
C         -3.91040       -0.44680      -10.09610
C         -3.75660       -0.46670       -8.72360
C         -4.91140        0.57350       -5.58790
S         -4.34450        0.44750       -3.92430
C         -2.70860        0.41090       -4.47430
C         -1.43790        0.31870       -3.89840
N         -0.90410        0.23990       -2.64020
C          0.47440        0.19280       -2.76220
C          1.53650        0.08740       -1.82260
N          1.57910       -0.07630       -0.44800
C          2.89240       -0.06260       -0.06140
C          3.61590       -0.17340        1.13000
S          3.26060       -0.35750        2.80940
C          0.58620       -0.57660        0.47670
C          0.14540       -1.99070        0.10620
C         -1.74540        0.54730       -1.50510
C         -1.45110        1.94150       -0.95660
C         -6.24650        0.64000       -6.00120
C         -7.40760        0.59620       -5.27090
C         -7.50880        0.37090       -3.82510
O         -6.59640        0.30790       -3.01690
C         -8.94350        0.22030       -3.53720
C         -9.57140       -0.05040       -2.33720
C        -10.95290       -0.16100       -2.32830
C        -11.69880       -0.00650       -3.49450
C        -13.18620       -0.16070       -3.46440
C        -11.05610        0.27040       -4.70130
C         -9.67800        0.38650       -4.72480
C         -8.74670        0.67660       -5.81550
C         -9.10430        1.02420       -7.09280
C         -8.21880        1.41430       -8.11910
N         -7.57680        1.77270       -9.00200
C        -10.43740        1.08830       -7.54870
N        -11.49750        1.15680       -7.98480
H          6.63370       -0.41410        4.43430
H          1.22450       -0.56640        7.64140
H          5.76080       -0.58880        9.89380
H          3.31950        0.25770       12.13210
H          4.04280       -2.26720       12.57420
H          2.27370       -1.57810       14.39080
H         -0.12550       -1.57650       13.25000
H          0.16590       -2.26600       10.73170
H          2.73030       -2.96560       10.33640
H          2.05780       -3.81190       11.74880
H          0.96710        0.25980       11.01590
H          7.36130       -2.07140        1.17710
H          9.82600       -2.13160        1.18610
H         11.09300       -0.20430        2.07900
H          9.89280        1.77080        2.91120
H          7.88470        2.77790        3.67090
H          6.31210        1.99690        3.48260
H          6.30460        2.59300        1.05700
H          6.45460        4.03300        2.06980
H          7.87260        3.37460        1.24530
H         -5.04510        2.93180       -6.84290
H         -5.28820        3.78220       -8.36970
H         -3.39360        4.76820       -7.09500
H         -2.81160        4.05200       -8.60210
H         -2.57470        3.20270       -7.07620
H         -4.88120        2.76180      -10.46510
H         -4.45240        0.73920      -11.79350
H         -3.71130       -1.33750      -10.67290
H         -3.44090       -1.37050       -8.22220
H          1.06050       -0.59500        1.46080
H         -0.25890        0.10730        0.54260
H          0.99470       -2.66810        0.15780
H         -0.61410       -2.33660        0.80200
H         -0.25640       -2.02820       -0.90410
H         -1.65070       -0.21930       -0.73730
H         -2.77650        0.51400       -1.86510
H         -2.07570        2.13830       -0.08960
H         -0.40630        2.04200       -0.67070
H         -1.66790        2.69030       -1.71490
H         -6.34880        0.71850       -7.07800
H         -8.98990       -0.17050       -1.43600
H        -11.46560       -0.37230       -1.40120
H        -13.59340        0.16950       -2.51170
H        -13.44910       -1.21100       -3.59600
H        -13.65150        0.40430       -4.26810
H        -11.64430        0.38540       -5.59750
