
  xtb     02102222233D
 energy: -167.616769359689 gnorm: 0.000590077143 xtb: 6.4.1 (unknown)
 96108  0     0  0            999 V2000
    2.0753   -0.6766    4.7693 C   0  0  0  0  0  0  0  0  0  0  0  0
    2.6230   -1.7865    5.3310 C   0  0  0  0  0  0  0  0  0  0  0  0
    3.1951   -1.7420    6.7029 C   0  0  0  0  0  0  0  0  0  0  0  0
    3.0422   -0.8635    7.5223 O   0  0  0  0  0  0  0  0  0  0  0  0
    4.0201   -2.9605    6.8196 C   0  0  0  0  0  0  0  0  0  0  0  0
    4.8522   -3.3200    7.8777 C   0  0  0  0  0  0  0  0  0  0  0  0
    5.5057   -4.5152    7.6963 C   0  0  0  0  0  0  0  0  0  0  0  0
    5.3627   -5.2921    6.5381 C   0  0  0  0  0  0  0  0  0  0  0  0
    4.5449   -4.9530    5.4869 C   0  0  0  0  0  0  0  0  0  0  0  0
    3.8545   -3.7519    5.6626 C   0  0  0  0  0  0  0  0  0  0  0  0
    2.8614   -3.1139    4.8039 C   0  0  0  0  0  0  0  0  0  0  0  0
    2.0771   -3.7624    3.8834 C   0  0  0  0  0  0  0  0  0  0  0  0
    2.2527   -5.1082    3.5056 C   0  0  0  0  0  0  0  0  0  0  0  0
    2.3558   -6.1984    3.1607 N   0  0  0  0  0  0  0  0  0  0  0  0
    0.9286   -3.1806    3.3073 C   0  0  0  0  0  0  0  0  0  0  0  0
   -0.0436   -2.7615    2.8613 N   0  0  0  0  0  0  0  0  0  0  0  0
    6.3077   -6.3553    7.0381 C   0  0  0  0  0  0  0  0  0  0  0  0
    5.6868   -7.6716    7.5676 C   0  0  0  0  0  0  0  0  0  0  0  0
    4.2995   -7.3259    8.0495 C   0  0  0  0  0  0  0  0  0  0  0  0
    4.4241   -6.5954    9.1496 C   0  0  0  0  0  0  0  0  0  0  0  0
    5.8977   -6.4340    9.4312 C   0  0  0  0  0  0  0  0  0  0  0  0
    6.4212   -7.7830    8.9131 C   0  0  0  0  0  0  0  0  0  0  0  0
    6.4584   -5.4959    8.3329 C   0  0  0  0  0  0  0  0  0  0  0  0
    1.8466   -0.4126    3.3948 C   0  0  0  0  0  0  0  0  0  0  0  0
    2.9295   -1.1576    2.0010 Se  0  0  0  0  0  2  0  0  0  0  0  0
    1.8705   -0.1782    0.8554 C   0  0  0  0  0  0  0  0  0  0  0  0
    1.6916    0.0391   -0.5127 C   0  0  0  0  0  0  0  0  0  0  0  0
    2.3992   -0.5170   -1.5961 C   0  0  0  0  0  0  0  0  0  0  0  0
    1.9845   -0.2007   -2.9255 C   0  0  0  0  0  0  0  0  0  0  0  0
    2.7193   -0.8113   -3.8426 N   0  0  0  0  0  0  0  0  0  0  0  0
    3.8373   -1.7078   -3.0880 S   0  0  0  0  0  0  0  0  0  0  0  0
    3.4277   -1.3491   -1.5601 N   0  0  0  0  0  0  0  0  0  0  0  0
    0.9065    0.6959   -3.0960 C   0  0  0  0  0  0  0  0  0  0  0  0
    0.3386    1.1976   -4.2718 C   0  0  0  0  0  0  0  0  0  0  0  0
    0.5310    1.0549   -5.9850 S   0  0  0  0  0  0  0  0  0  0  0  0
   -0.7683    2.2137   -6.1934 C   0  0  0  0  0  0  0  0  0  0  0  0
   -1.3603    2.7604   -7.3269 C   0  0  0  0  0  0  0  0  0  0  0  0
   -0.9538    2.3789   -8.7136 C   0  0  0  0  0  0  0  0  0  0  0  0
   -1.8587    1.2732   -9.2631 C   0  0  0  0  0  0  0  0  0  0  0  0
   -2.3927    3.6447   -6.9878 C   0  0  0  0  0  0  0  0  0  0  0  0
   -2.6002    3.7903   -5.2439 S   0  0  0  0  0  0  0  0  0  0  0  0
   -1.3118    2.6745   -4.9839 C   0  0  0  0  0  0  0  0  0  0  0  0
   -0.6692    2.0868   -3.8889 C   0  0  0  0  0  0  0  0  0  0  0  0
   -0.7347    2.1566   -2.5253 N   0  0  0  0  0  0  0  0  0  0  0  0
    0.2082    1.2927   -1.9972 C   0  0  0  0  0  0  0  0  0  0  0  0
    0.5828    0.9216   -0.6725 C   0  0  0  0  0  0  0  0  0  0  0  0
    0.1027    1.2072    0.5934 N   0  0  0  0  0  0  0  0  0  0  0  0
    0.8820    0.5593    1.5173 C   0  0  0  0  0  0  0  0  0  0  0  0
    0.8935    0.4643    2.9119 C   0  0  0  0  0  0  0  0  0  0  0  0
   -1.0417    1.9509    1.0622 C   0  0  0  0  0  0  0  0  0  0  0  0
   -0.6498    3.3563    1.5205 C   0  0  0  0  0  0  0  0  0  0  0  0
   -1.6731    3.0843   -1.9385 C   0  0  0  0  0  0  0  0  0  0  0  0
   -3.0771    2.4859   -1.8476 C   0  0  0  0  0  0  0  0  0  0  0  0
   -3.1683    4.3356   -7.9319 C   0  0  0  0  0  0  0  0  0  0  0  0
   -4.2216    5.1869   -7.7620 C   0  0  0  0  0  0  0  0  0  0  0  0
   -5.0199    5.9131   -9.1505 S   0  0  0  0  0  0  0  0  0  0  0  0
   -6.1673    6.7526   -8.1237 C   0  0  0  0  0  0  0  0  0  0  0  0
   -7.3495    7.7355   -8.6720 S   0  0  0  0  0  0  0  0  0  0  0  0
   -5.9170    6.4713   -6.8190 N   0  0  0  0  0  0  0  0  0  0  0  0
   -6.7366    7.0039   -5.7482 C   0  0  0  0  0  0  0  0  0  0  0  0
   -7.9988    6.1727   -5.5559 C   0  0  0  0  0  0  0  0  0  0  0  0
   -4.8620    5.6215   -6.5401 C   0  0  0  0  0  0  0  0  0  0  0  0
   -4.5523    5.3188   -5.3995 O   0  0  0  0  0  0  0  0  0  0  0  0
    1.8465    0.1306    5.4600 H   0  0  0  0  0  0  0  0  0  0  0  0
    4.9439   -2.6917    8.7499 H   0  0  0  0  0  0  0  0  0  0  0  0
    4.4453   -5.5508    4.5956 H   0  0  0  0  0  0  0  0  0  0  0  0
    7.1964   -6.5274    6.4343 H   0  0  0  0  0  0  0  0  0  0  0  0
    5.7613   -8.5129    6.8840 H   0  0  0  0  0  0  0  0  0  0  0  0
    3.4006   -7.5905    7.5243 H   0  0  0  0  0  0  0  0  0  0  0  0
    3.6491   -6.1278    9.7283 H   0  0  0  0  0  0  0  0  0  0  0  0
    6.1641   -6.1498   10.4459 H   0  0  0  0  0  0  0  0  0  0  0  0
    7.5054   -7.8191    8.8144 H   0  0  0  0  0  0  0  0  0  0  0  0
    6.0780   -8.6256    9.5115 H   0  0  0  0  0  0  0  0  0  0  0  0
    7.4466   -5.1129    8.5803 H   0  0  0  0  0  0  0  0  0  0  0  0
   -0.9837    3.2454   -9.3763 H   0  0  0  0  0  0  0  0  0  0  0  0
    0.0741    2.0128   -8.6778 H   0  0  0  0  0  0  0  0  0  0  0  0
   -1.5411    0.9946  -10.2644 H   0  0  0  0  0  0  0  0  0  0  0  0
   -2.8933    1.6060   -9.3048 H   0  0  0  0  0  0  0  0  0  0  0  0
   -1.8046    0.3942   -8.6255 H   0  0  0  0  0  0  0  0  0  0  0  0
    0.2057    0.9646    3.5722 H   0  0  0  0  0  0  0  0  0  0  0  0
   -1.4534    1.3995    1.9134 H   0  0  0  0  0  0  0  0  0  0  0  0
   -1.8096    1.9753    0.2953 H   0  0  0  0  0  0  0  0  0  0  0  0
    0.0281    3.2978    2.3684 H   0  0  0  0  0  0  0  0  0  0  0  0
   -1.5349    3.9111    1.8205 H   0  0  0  0  0  0  0  0  0  0  0  0
   -0.1419    3.9045    0.7292 H   0  0  0  0  0  0  0  0  0  0  0  0
   -1.3065    3.4217   -0.9732 H   0  0  0  0  0  0  0  0  0  0  0  0
   -1.7137    3.9568   -2.5986 H   0  0  0  0  0  0  0  0  0  0  0  0
   -3.7340    3.1642   -1.3104 H   0  0  0  0  0  0  0  0  0  0  0  0
   -3.0691    1.5216   -1.3428 H   0  0  0  0  0  0  0  0  0  0  0  0
   -3.4807    2.3407   -2.8461 H   0  0  0  0  0  0  0  0  0  0  0  0
   -2.8859    4.1571   -8.9623 H   0  0  0  0  0  0  0  0  0  0  0  0
   -6.1203    6.9793   -4.8463 H   0  0  0  0  0  0  0  0  0  0  0  0
   -6.9944    8.0351   -6.0004 H   0  0  0  0  0  0  0  0  0  0  0  0
   -8.6022    6.1892   -6.4603 H   0  0  0  0  0  0  0  0  0  0  0  0
   -8.5845    6.5847   -4.7395 H   0  0  0  0  0  0  0  0  0  0  0  0
   -7.7405    5.1432   -5.3185 H   0  0  0  0  0  0  0  0  0  0  0  0
  1  2  2  0  0  0  0
  2  3  1  0  0  0  0
  3  4  2  0  0  0  0
  3  5  1  0  0  0  0
  5  6  2  0  0  0  0
  6  7  1  0  0  0  0
  7  8  2  0  0  0  0
  8  9  1  0  0  0  0
  9 10  2  0  0  0  0
 10 11  1  0  0  0  0
 11 12  2  0  0  0  0
 12 13  1  0  0  0  0
 13 14  3  0  0  0  0
 12 15  1  0  0  0  0
 15 16  3  0  0  0  0
  8 17  1  0  0  0  0
 17 18  1  0  0  0  0
 18 19  1  0  0  0  0
 19 20  2  0  0  0  0
 20 21  1  0  0  0  0
 21 22  1  0  0  0  0
 21 23  1  0  0  0  0
  1 24  1  0  0  0  0
 24 25  1  0  0  0  0
 25 26  1  0  0  0  0
 26 27  1  0  0  0  0
 27 28  1  0  0  0  0
 28 29  1  0  0  0  0
 29 30  2  0  0  0  0
 30 31  1  0  0  0  0
 31 32  1  0  0  0  0
 29 33  1  0  0  0  0
 33 34  1  0  0  0  0
 34 35  1  0  0  0  0
 35 36  1  0  0  0  0
 36 37  1  0  0  0  0
 37 38  1  0  0  0  0
 38 39  1  0  0  0  0
 37 40  2  0  0  0  0
 40 41  1  0  0  0  0
 41 42  1  0  0  0  0
 42 43  1  0  0  0  0
 43 44  1  0  0  0  0
 44 45  1  0  0  0  0
 45 46  1  0  0  0  0
 46 47  1  0  0  0  0
 47 48  1  0  0  0  0
 48 49  1  0  0  0  0
 47 50  1  0  0  0  0
 50 51  1  0  0  0  0
 44 52  1  0  0  0  0
 52 53  1  0  0  0  0
 40 54  1  0  0  0  0
 54 55  2  0  0  0  0
 55 56  1  0  0  0  0
 56 57  1  0  0  0  0
 57 58  2  0  0  0  0
 57 59  1  0  0  0  0
 59 60  1  0  0  0  0
 60 61  1  0  0  0  0
 59 62  1  0  0  0  0
 62 63  2  0  0  0  0
 11  2  1  0  0  0  0
 23 17  1  0  0  0  0
 49 24  2  0  0  0  0
 62 55  1  0  0  0  0
 10  5  1  0  0  0  0
 22 18  1  0  0  0  0
 48 26  2  0  0  0  0
 23  7  1  0  0  0  0
 46 27  2  0  0  0  0
 32 28  2  0  0  0  0
 45 33  2  0  0  0  0
 43 34  2  0  0  0  0
 42 36  2  0  0  0  0
  1 64  1  0  0  0  0
  6 65  1  0  0  0  0
  9 66  1  0  0  0  0
 17 67  1  0  0  0  0
 18 68  1  0  0  0  0
 19 69  1  0  0  0  0
 20 70  1  0  0  0  0
 21 71  1  0  0  0  0
 22 72  1  0  0  0  0
 22 73  1  0  0  0  0
 23 74  1  0  0  0  0
 38 75  1  0  0  0  0
 38 76  1  0  0  0  0
 39 77  1  0  0  0  0
 39 78  1  0  0  0  0
 39 79  1  0  0  0  0
 49 80  1  0  0  0  0
 50 81  1  0  0  0  0
 50 82  1  0  0  0  0
 51 83  1  0  0  0  0
 51 84  1  0  0  0  0
 51 85  1  0  0  0  0
 52 86  1  0  0  0  0
 52 87  1  0  0  0  0
 53 88  1  0  0  0  0
 53 89  1  0  0  0  0
 53 90  1  0  0  0  0
 54 91  1  0  0  0  0
 60 92  1  0  0  0  0
 60 93  1  0  0  0  0
 61 94  1  0  0  0  0
 61 95  1  0  0  0  0
 61 96  1  0  0  0  0
M  END
