
  xtb     02102223243D
 energy: -245.231183031356 gnorm: 0.000501795484 xtb: 6.4.1 (unknown)
139155  0     0  0            999 V2000
   -5.1678    4.7441    1.9232 C   0  0  0  0  0  0  0  0  0  0  0  0
   -4.9493    6.0768    2.0955 C   0  0  0  0  0  0  0  0  0  0  0  0
   -3.6382    6.7329    1.8587 C   0  0  0  0  0  0  0  0  0  0  0  0
   -2.5658    6.1989    1.6746 O   0  0  0  0  0  0  0  0  0  0  0  0
   -3.9357    8.1722    1.7439 C   0  0  0  0  0  0  0  0  0  0  0  0
   -3.0291    9.1863    1.4438 C   0  0  0  0  0  0  0  0  0  0  0  0
   -3.5955   10.4347    1.3539 C   0  0  0  0  0  0  0  0  0  0  0  0
   -4.9654   10.6615    1.5465 C   0  0  0  0  0  0  0  0  0  0  0  0
   -5.8705    9.6718    1.8470 C   0  0  0  0  0  0  0  0  0  0  0  0
   -5.3146    8.3926    1.9410 C   0  0  0  0  0  0  0  0  0  0  0  0
   -5.9560    7.1117    2.2141 C   0  0  0  0  0  0  0  0  0  0  0  0
   -7.2563    6.9160    2.5992 C   0  0  0  0  0  0  0  0  0  0  0  0
   -7.7907    5.6589    2.9525 C   0  0  0  0  0  0  0  0  0  0  0  0
   -8.2767    4.6696    3.2743 N   0  0  0  0  0  0  0  0  0  0  0  0
   -8.2126    7.9430    2.7330 C   0  0  0  0  0  0  0  0  0  0  0  0
   -9.0369    8.7335    2.8503 N   0  0  0  0  0  0  0  0  0  0  0  0
   -4.8398   12.1393    1.2739 C   0  0  0  0  0  0  0  0  0  0  0  0
   -5.2981   12.6556   -0.1128 C   0  0  0  0  0  0  0  0  0  0  0  0
   -5.1517   11.5001   -1.0716 C   0  0  0  0  0  0  0  0  0  0  0  0
   -3.8554   11.2853   -1.2520 C   0  0  0  0  0  0  0  0  0  0  0  0
   -3.1016   12.2921   -0.4183 C   0  0  0  0  0  0  0  0  0  0  0  0
   -4.0649   13.4869   -0.5010 C   0  0  0  0  0  0  0  0  0  0  0  0
   -3.3138   11.8869    1.0618 C   0  0  0  0  0  0  0  0  0  0  0  0
   -4.1650    3.7372    1.9099 C   0  0  0  0  0  0  0  0  0  0  0  0
   -3.1001    3.5076    2.7640 C   0  0  0  0  0  0  0  0  0  0  0  0
   -2.8263    4.2599    4.0266 C   0  0  0  0  0  0  0  0  0  0  0  0
   -1.3984    4.7998    4.0909 C   0  0  0  0  0  0  0  0  0  0  0  0
   -2.3870    2.3586    2.3821 C   0  0  0  0  0  0  0  0  0  0  0  0
   -0.9714    1.5679    3.0401 S   0  0  0  0  0  0  0  0  0  0  0  0
   -1.0437    0.4162    1.7561 C   0  0  0  0  0  0  0  0  0  0  0  0
   -0.3366   -0.7033    1.2935 C   0  0  0  0  0  0  0  0  0  0  0  0
    0.7713   -1.3628    1.8793 C   0  0  0  0  0  0  0  0  0  0  0  0
    1.2630   -0.9820    3.0549 N   0  0  0  0  0  0  0  0  0  0  0  0
    2.2915   -1.6417    3.5660 C   0  0  0  0  0  0  0  0  0  0  0  0
    2.6209   -1.2570    4.9151 C   0  0  0  0  0  0  0  0  0  0  0  0
    2.0597    0.3049    5.4350 S   0  0  0  0  0  0  0  0  0  0  0  0
    2.6462    0.0458    7.0395 C   0  0  0  0  0  0  0  0  0  0  0  0
    2.4956    1.0659    8.1145 C   0  0  0  0  0  0  0  0  0  0  0  0
    1.0236    1.3643    8.4000 C   0  0  0  0  0  0  0  0  0  0  0  0
    3.2077   -1.1970    7.1299 C   0  0  0  0  0  0  0  0  0  0  0  0
    3.2045   -1.9484    5.9422 C   0  0  0  0  0  0  0  0  0  0  0  0
    3.7346   -1.6715    8.2745 F   0  0  0  0  0  0  0  0  0  0  0  0
    2.9367   -2.6629    2.8052 C   0  0  0  0  0  0  0  0  0  0  0  0
    4.2135   -3.2615    3.1006 C   0  0  0  0  0  0  0  0  0  0  0  0
    5.2956   -2.8025    3.8023 C   0  0  0  0  0  0  0  0  0  0  0  0
    6.3832   -3.6869    3.7044 C   0  0  0  0  0  0  0  0  0  0  0  0
    7.5581   -3.4450    4.3161 F   0  0  0  0  0  0  0  0  0  0  0  0
    6.1641   -4.8059    2.9506 C   0  0  0  0  0  0  0  0  0  0  0  0
    7.1144   -5.9144    2.6555 C   0  0  0  0  0  0  0  0  0  0  0  0
    7.3684   -6.0492    1.1541 C   0  0  0  0  0  0  0  0  0  0  0  0
    4.5609   -4.7702    2.3078 S   0  0  0  0  0  0  0  0  0  0  0  0
    2.3859   -3.1032    1.6837 N   0  0  0  0  0  0  0  0  0  0  0  0
    1.2938   -2.5020    1.2209 C   0  0  0  0  0  0  0  0  0  0  0  0
    0.6936   -2.9019    0.0020 C   0  0  0  0  0  0  0  0  0  0  0  0
    1.0919   -3.9101   -0.8852 C   0  0  0  0  0  0  0  0  0  0  0  0
    2.2972   -5.1421   -1.0018 S   0  0  0  0  0  0  0  0  0  0  0  0
    1.7041   -5.5193   -2.6108 C   0  0  0  0  0  0  0  0  0  0  0  0
    2.1150   -6.4359   -3.5671 C   0  0  0  0  0  0  0  0  0  0  0  0
    3.2777   -7.3502   -3.3597 C   0  0  0  0  0  0  0  0  0  0  0  0
    4.5657   -6.7229   -3.9002 C   0  0  0  0  0  0  0  0  0  0  0  0
    1.3465   -6.3328   -4.7428 C   0  0  0  0  0  0  0  0  0  0  0  0
    0.0933   -5.0956   -4.6095 S   0  0  0  0  0  0  0  0  0  0  0  0
    0.6178   -4.7199   -3.0126 C   0  0  0  0  0  0  0  0  0  0  0  0
    0.2703   -3.8083   -2.0135 C   0  0  0  0  0  0  0  0  0  0  0  0
   -0.6430   -2.8022   -1.8381 N   0  0  0  0  0  0  0  0  0  0  0  0
   -1.4004   -2.3295   -2.9746 C   0  0  0  0  0  0  0  0  0  0  0  0
   -0.8249   -1.0248   -3.5209 C   0  0  0  0  0  0  0  0  0  0  0  0
   -0.4016   -2.2197   -0.6082 C   0  0  0  0  0  0  0  0  0  0  0  0
   -0.9838   -1.1394    0.1012 C   0  0  0  0  0  0  0  0  0  0  0  0
   -2.0761   -0.3174   -0.1252 N   0  0  0  0  0  0  0  0  0  0  0  0
   -2.1095    0.6170    0.8753 C   0  0  0  0  0  0  0  0  0  0  0  0
   -2.8896    1.7185    1.2425 C   0  0  0  0  0  0  0  0  0  0  0  0
   -4.3140    2.4973    0.6656 S   0  0  0  0  0  0  0  0  0  0  0  0
   -3.2456   -0.5153   -0.9515 C   0  0  0  0  0  0  0  0  0  0  0  0
   -3.9930   -1.7892   -0.5644 C   0  0  0  0  0  0  0  0  0  0  0  0
    1.5853   -7.1092   -5.8776 C   0  0  0  0  0  0  0  0  0  0  0  0
    0.9776   -7.1185   -7.1128 C   0  0  0  0  0  0  0  0  0  0  0  0
   -0.1502   -6.2810   -7.5247 C   0  0  0  0  0  0  0  0  0  0  0  0
   -0.7398   -5.4507   -6.8551 O   0  0  0  0  0  0  0  0  0  0  0  0
   -0.4420   -6.6474   -8.9235 C   0  0  0  0  0  0  0  0  0  0  0  0
   -1.4088   -6.1588   -9.7857 C   0  0  0  0  0  0  0  0  0  0  0  0
   -2.5044   -4.9355   -9.2862 Cl  0  0  0  0  0  0  0  0  0  0  0  0
   -1.4808   -6.6777  -11.0769 C   0  0  0  0  0  0  0  0  0  0  0  0
   -0.5975   -7.6635  -11.4778 C   0  0  0  0  0  0  0  0  0  0  0  0
    0.3778   -8.1627  -10.6212 C   0  0  0  0  0  0  0  0  0  0  0  0
    0.4547   -7.6505   -9.3380 C   0  0  0  0  0  0  0  0  0  0  0  0
    1.3547   -7.9621   -8.2244 C   0  0  0  0  0  0  0  0  0  0  0  0
    2.3681   -8.8869   -8.2693 C   0  0  0  0  0  0  0  0  0  0  0  0
    3.2503   -9.1971   -7.2139 C   0  0  0  0  0  0  0  0  0  0  0  0
    4.0089   -9.5096   -6.4088 N   0  0  0  0  0  0  0  0  0  0  0  0
    2.6819   -9.6701   -9.3996 C   0  0  0  0  0  0  0  0  0  0  0  0
    2.9967  -10.3395  -10.2778 N   0  0  0  0  0  0  0  0  0  0  0  0
   -6.1726    4.4042    1.6971 H   0  0  0  0  0  0  0  0  0  0  0  0
   -1.9824    8.9686    1.2991 H   0  0  0  0  0  0  0  0  0  0  0  0
   -6.9229    9.8577    1.9845 H   0  0  0  0  0  0  0  0  0  0  0  0
   -5.1404   12.8016    2.0831 H   0  0  0  0  0  0  0  0  0  0  0  0
   -6.2614   13.1585   -0.1110 H   0  0  0  0  0  0  0  0  0  0  0  0
   -5.9796   10.9387   -1.4636 H   0  0  0  0  0  0  0  0  0  0  0  0
   -3.3838   10.5081   -1.8244 H   0  0  0  0  0  0  0  0  0  0  0  0
   -2.0649   12.4643   -0.6953 H   0  0  0  0  0  0  0  0  0  0  0  0
   -3.8348   14.2799    0.2091 H   0  0  0  0  0  0  0  0  0  0  0  0
   -4.1359   13.9015   -1.5054 H   0  0  0  0  0  0  0  0  0  0  0  0
   -2.6162   12.3845    1.7326 H   0  0  0  0  0  0  0  0  0  0  0  0
   -2.9843    3.5713    4.8633 H   0  0  0  0  0  0  0  0  0  0  0  0
   -3.5383    5.0801    4.1247 H   0  0  0  0  0  0  0  0  0  0  0  0
   -1.2069    5.4412    3.2358 H   0  0  0  0  0  0  0  0  0  0  0  0
   -1.2657    5.3774    5.0023 H   0  0  0  0  0  0  0  0  0  0  0  0
   -0.6784    3.9860    4.0870 H   0  0  0  0  0  0  0  0  0  0  0  0
    2.9957    1.9895    7.8110 H   0  0  0  0  0  0  0  0  0  0  0  0
    2.9837    0.6920    9.0170 H   0  0  0  0  0  0  0  0  0  0  0  0
    0.5349    1.7330    7.5010 H   0  0  0  0  0  0  0  0  0  0  0  0
    0.9384    2.1167    9.1796 H   0  0  0  0  0  0  0  0  0  0  0  0
    0.5109    0.4636    8.7290 H   0  0  0  0  0  0  0  0  0  0  0  0
    3.5903   -2.9482    5.8739 H   0  0  0  0  0  0  0  0  0  0  0  0
    5.3358   -1.8740    4.3401 H   0  0  0  0  0  0  0  0  0  0  0  0
    8.0520   -5.7141    3.1783 H   0  0  0  0  0  0  0  0  0  0  0  0
    6.7050   -6.8547    3.0350 H   0  0  0  0  0  0  0  0  0  0  0  0
    8.0627   -6.8632    0.9632 H   0  0  0  0  0  0  0  0  0  0  0  0
    6.4359   -6.2533    0.6329 H   0  0  0  0  0  0  0  0  0  0  0  0
    7.7933   -5.1302    0.7573 H   0  0  0  0  0  0  0  0  0  0  0  0
    3.1132   -8.3134   -3.8442 H   0  0  0  0  0  0  0  0  0  0  0  0
    3.3884   -7.5202   -2.2869 H   0  0  0  0  0  0  0  0  0  0  0  0
    5.4016   -7.3951   -3.7296 H   0  0  0  0  0  0  0  0  0  0  0  0
    4.7659   -5.7793   -3.3981 H   0  0  0  0  0  0  0  0  0  0  0  0
    4.4852   -6.5394   -4.9690 H   0  0  0  0  0  0  0  0  0  0  0  0
   -1.3275   -3.1032   -3.7426 H   0  0  0  0  0  0  0  0  0  0  0  0
   -2.4542   -2.2306   -2.7166 H   0  0  0  0  0  0  0  0  0  0  0  0
    0.1896   -1.1892   -3.8764 H   0  0  0  0  0  0  0  0  0  0  0  0
   -1.4281   -0.6726   -4.3530 H   0  0  0  0  0  0  0  0  0  0  0  0
   -0.7948   -0.2546   -2.7531 H   0  0  0  0  0  0  0  0  0  0  0  0
   -3.8947    0.3473   -0.7817 H   0  0  0  0  0  0  0  0  0  0  0  0
   -2.9763   -0.5104   -2.0076 H   0  0  0  0  0  0  0  0  0  0  0  0
   -3.3523   -2.6641   -0.6500 H   0  0  0  0  0  0  0  0  0  0  0  0
   -4.8586   -1.9212   -1.2078 H   0  0  0  0  0  0  0  0  0  0  0  0
   -4.3352   -1.7197    0.4655 H   0  0  0  0  0  0  0  0  0  0  0  0
    2.4002   -7.8087   -5.7514 H   0  0  0  0  0  0  0  0  0  0  0  0
   -2.2300   -6.3032  -11.7562 H   0  0  0  0  0  0  0  0  0  0  0  0
   -0.6660   -8.0559  -12.4808 H   0  0  0  0  0  0  0  0  0  0  0  0
    1.0497   -8.9308  -10.9653 H   0  0  0  0  0  0  0  0  0  0  0  0
  1  2  2  0  0  0  0
  2  3  1  0  0  0  0
  3  4  2  0  0  0  0
  3  5  1  0  0  0  0
  5  6  2  0  0  0  0
  6  7  1  0  0  0  0
  7  8  2  0  0  0  0
  8  9  1  0  0  0  0
  9 10  2  0  0  0  0
 10 11  1  0  0  0  0
 11 12  2  0  0  0  0
 12 13  1  0  0  0  0
 13 14  3  0  0  0  0
 12 15  1  0  0  0  0
 15 16  3  0  0  0  0
  8 17  1  0  0  0  0
 17 18  1  0  0  0  0
 18 19  1  0  0  0  0
 19 20  2  0  0  0  0
 20 21  1  0  0  0  0
 21 22  1  0  0  0  0
 21 23  1  0  0  0  0
  1 24  1  0  0  0  0
 24 25  2  0  0  0  0
 25 26  1  0  0  0  0
 26 27  1  0  0  0  0
 25 28  1  0  0  0  0
 28 29  1  0  0  0  0
 29 30  1  0  0  0  0
 30 31  1  0  0  0  0
 31 32  2  0  0  0  0
 32 33  1  0  0  0  0
 33 34  2  0  0  0  0
 34 35  1  0  0  0  0
 35 36  1  0  0  0  0
 36 37  1  0  0  0  0
 37 38  1  0  0  0  0
 38 39  1  0  0  0  0
 37 40  2  0  0  0  0
 40 41  1  0  0  0  0
 40 42  1  0  0  0  0
 34 43  1  0  0  0  0
 43 44  1  0  0  0  0
 44 45  2  0  0  0  0
 45 46  1  0  0  0  0
 46 47  1  0  0  0  0
 46 48  2  0  0  0  0
 48 49  1  0  0  0  0
 49 50  1  0  0  0  0
 48 51  1  0  0  0  0
 43 52  2  0  0  0  0
 52 53  1  0  0  0  0
 53 54  2  0  0  0  0
 54 55  1  0  0  0  0
 55 56  1  0  0  0  0
 56 57  1  0  0  0  0
 57 58  1  0  0  0  0
 58 59  1  0  0  0  0
 59 60  1  0  0  0  0
 58 61  2  0  0  0  0
 61 62  1  0  0  0  0
 62 63  1  0  0  0  0
 63 64  1  0  0  0  0
 64 65  1  0  0  0  0
 65 66  1  0  0  0  0
 66 67  1  0  0  0  0
 65 68  1  0  0  0  0
 68 69  2  0  0  0  0
 69 70  1  0  0  0  0
 70 71  1  0  0  0  0
 71 72  1  0  0  0  0
 72 73  1  0  0  0  0
 70 74  1  0  0  0  0
 74 75  1  0  0  0  0
 61 76  1  0  0  0  0
 76 77  2  0  0  0  0
 77 78  1  0  0  0  0
 78 79  2  0  0  0  0
 78 80  1  0  0  0  0
 80 81  2  0  0  0  0
 81 82  1  0  0  0  0
 81 83  1  0  0  0  0
 83 84  2  0  0  0  0
 84 85  1  0  0  0  0
 85 86  2  0  0  0  0
 86 87  1  0  0  0  0
 87 88  2  0  0  0  0
 88 89  1  0  0  0  0
 89 90  3  0  0  0  0
 88 91  1  0  0  0  0
 91 92  3  0  0  0  0
 11  2  1  0  0  0  0
 23 17  1  0  0  0  0
 73 24  1  0  0  0  0
 87 77  1  0  0  0  0
 10  5  1  0  0  0  0
 22 18  1  0  0  0  0
 72 28  2  0  0  0  0
 86 80  1  0  0  0  0
 23  7  1  0  0  0  0
 71 30  2  0  0  0  0
 69 31  1  0  0  0  0
 53 32  1  0  0  0  0
 68 54  1  0  0  0  0
 41 35  2  0  0  0  0
 51 44  1  0  0  0  0
 64 55  2  0  0  0  0
 63 57  2  0  0  0  0
  1 93  1  0  0  0  0
  6 94  1  0  0  0  0
  9 95  1  0  0  0  0
 17 96  1  0  0  0  0
 18 97  1  0  0  0  0
 19 98  1  0  0  0  0
 20 99  1  0  0  0  0
 21100  1  0  0  0  0
 22101  1  0  0  0  0
 22102  1  0  0  0  0
 23103  1  0  0  0  0
 26104  1  0  0  0  0
 26105  1  0  0  0  0
 27106  1  0  0  0  0
 27107  1  0  0  0  0
 27108  1  0  0  0  0
 38109  1  0  0  0  0
 38110  1  0  0  0  0
 39111  1  0  0  0  0
 39112  1  0  0  0  0
 39113  1  0  0  0  0
 41114  1  0  0  0  0
 45115  1  0  0  0  0
 49116  1  0  0  0  0
 49117  1  0  0  0  0
 50118  1  0  0  0  0
 50119  1  0  0  0  0
 50120  1  0  0  0  0
 59121  1  0  0  0  0
 59122  1  0  0  0  0
 60123  1  0  0  0  0
 60124  1  0  0  0  0
 60125  1  0  0  0  0
 66126  1  0  0  0  0
 66127  1  0  0  0  0
 67128  1  0  0  0  0
 67129  1  0  0  0  0
 67130  1  0  0  0  0
 74131  1  0  0  0  0
 74132  1  0  0  0  0
 75133  1  0  0  0  0
 75134  1  0  0  0  0
 75135  1  0  0  0  0
 76136  1  0  0  0  0
 83137  1  0  0  0  0
 84138  1  0  0  0  0
 85139  1  0  0  0  0
M  END
