98

C         -5.28770       -3.28410        0.18050
C         -6.20230       -2.43030        0.72600
C         -7.60950       -2.48070        0.24300
O         -8.11410       -3.35530       -0.42410
C         -8.22640       -1.21920        0.69960
C         -9.49600       -0.73710        0.38810
C         -9.77860        0.49170        0.93580
C         -8.86720        1.19450        1.73530
C         -7.61650        0.72670        2.06170
C         -7.31100       -0.52240        1.51510
C         -6.10730       -1.33830        1.66330
C         -5.19410       -1.21810        2.68160
C         -4.20090       -2.17810        2.94710
N         -3.37880       -2.93450        3.21480
C         -5.17150       -0.16420        3.61530
N         -5.07280        0.68470        4.38270
C         -9.80520        2.36050        1.92160
C         -9.51610        3.61980        1.07730
C        -10.82320        4.37880        1.10120
C        -11.68990        3.71280        0.34910
C        -10.98300        2.49290       -0.19660
C         -9.56430        3.05670       -0.34900
C        -10.82390        1.57550        1.03450
C         -3.88060       -3.20460        0.13430
Se        -2.88590       -4.75480       -0.37730
C         -1.39490       -3.68960       -0.21550
C          0.00330       -3.76150       -0.32650
C          0.89010       -4.84300       -0.52280
C          2.30810       -4.61740       -0.43240
N          3.00170       -5.73790       -0.55610
S          1.96970       -6.96440       -0.77460
N          0.59130       -6.11680       -0.71940
C          2.78280       -3.29060       -0.30610
C          4.06720       -2.72250       -0.34280
S          5.71890       -3.22860       -0.39610
C          6.20890       -1.54970       -0.45180
C          7.47450       -0.95150       -0.52370
C          8.71370       -1.77490       -0.43120
C          9.65270       -1.33070        0.68810
C          7.36430        0.43640       -0.56730
S          5.67710        0.97020       -0.43400
C          5.12820       -0.65950       -0.41840
C          3.90420       -1.32940       -0.35390
N          2.57060       -1.01040       -0.29710
C          1.87270       -2.20100       -0.23460
C          0.49470       -2.45690       -0.07690
N         -0.55880       -1.61830        0.24750
C         -1.71270       -2.36970        0.15740
C         -3.06490       -2.10400        0.35220
C         -0.48630       -0.54680        1.22480
C         -0.51950       -1.10200        2.64810
C          2.08670        0.24140       -0.84320
C          2.49560        0.40230       -2.30710
C          8.28940        1.50190       -0.61300
C          9.52240        1.58100       -1.19710
C         10.08120        0.66420       -2.21880
O          9.54270       -0.29900       -2.72360
C         11.38540        1.24500       -2.58580
C         12.44420        0.94330       -3.45390
C         13.41150        1.90980       -3.38760
Cl        14.87120        1.93850       -4.26440
S         13.04420        3.20320       -2.27360
C         11.56090        2.42880       -1.88760
C         10.44560        2.69640       -1.02330
C         10.34800        3.78060       -0.18770
C          9.28990        4.05000        0.70020
N          8.46570        4.32610        1.45130
C         11.36970        4.75320       -0.15740
N         12.19750        5.54730       -0.12930
H         -5.72870       -4.11120       -0.37210
H        -10.17040       -1.30990       -0.22890
H         -6.92240        1.27550        2.67710
H        -10.07720        2.59080        2.94970
H         -8.62560        4.16950        1.37000
H        -10.99310        5.26200        1.68820
H        -12.72880        3.92880        0.18230
H        -11.42910        2.01670       -1.06540
H         -9.51200        3.84060       -1.10280
H         -8.80700        2.30230       -0.55520
H        -11.77560        1.28040        1.47200
H          8.41270       -2.81120       -0.26270
H          9.23800       -1.73030       -1.39030
H          9.13370       -1.33790        1.64430
H         10.49750       -2.01180        0.74880
H         10.03310       -0.32810        0.51160
H         -3.45780       -1.13010        0.58860
H          0.43520        0.01700        1.09320
H         -1.33620        0.11930        1.05540
H         -1.40480       -1.71260        2.81040
H         -0.52520       -0.28310        3.36210
H          0.35920       -1.71740        2.82880
H          2.49650        1.06500       -0.24970
H          0.99950        0.25430       -0.79000
H          3.57610        0.43870       -2.41120
H          2.08130        1.32690       -2.69880
H          2.11520       -0.42920       -2.89680
H          7.92430        2.40760       -0.14000
H         12.49920        0.07530       -4.08340
