125

C         -0.99700       -3.80980        6.08850
C         -0.13650       -3.24630        6.98150
C          0.45050       -4.09780        8.04960
O          0.03950       -5.16980        8.43340
C          1.67460       -3.38930        8.47540
C          2.65660       -3.85290        9.34730
C          3.71110       -2.98750        9.51390
C          3.78890       -1.74830        8.86390
C          2.81980       -1.26930        8.01410
C          1.74100       -2.13610        7.83010
C          0.52650       -1.96530        7.03640
C         -0.02790       -0.76700        6.66520
C          0.62160        0.47620        6.77720
N          1.12030        1.51000        6.81570
C         -1.36600       -0.66350        6.23250
N         -2.47090       -0.54850        5.94180
C          5.13120       -1.42510        9.47070
C          6.38580       -1.59250        8.57750
C          6.04430       -2.64020        7.54730
C          5.96890       -3.80980        8.16830
C          6.25770       -3.57380        9.63010
C          7.26930       -2.42160        9.52350
C          5.04150       -2.80240       10.20010
C         -1.32060       -3.44610        4.76700
C         -2.21810       -4.14120        3.95880
C         -3.01990       -5.28540        4.41880
C         -2.37920       -6.49530        4.66730
C         -3.09900       -7.59770        5.08610
C         -4.46780       -7.49330        5.26340
C         -5.10470       -6.29040        5.01990
C         -4.40100       -5.17160        4.59330
C         -5.11450       -3.86360        4.40500
C         -4.98240       -2.98780        5.65310
C         -2.24510       -3.63420        2.65700
S         -3.10100       -4.13300        1.21520
C         -2.30960       -2.86450        0.34610
C         -2.24330       -2.35680       -0.95830
C         -2.77410       -2.85320       -2.16950
C         -2.40900       -2.21070       -3.39760
N         -2.91780       -2.81820       -4.45770
S         -3.78660       -4.08770       -3.95270
N         -3.54510       -3.91170       -2.36150
C         -1.64780       -1.02220       -3.34280
C         -1.29520       -0.11390       -4.35050
S         -1.41790        0.04470       -6.06910
C         -0.70340        1.63760       -5.94260
C         -0.39220        2.61550       -6.89400
C         -0.53960        2.45990       -8.34880
C         -1.79170        2.36140       -8.95990
C         -3.06280        2.52850       -8.17740
C         -3.34180        4.01140       -7.92210
C         -1.84280        2.19110      -10.33710
C         -0.69040        2.11760      -11.09800
C          0.54690        2.22700      -10.48730
C          0.61880        2.40050       -9.11880
C          0.14710        3.75230       -6.29730
S          0.28900        3.59100       -4.55250
C         -0.38280        2.00210       -4.62720
C         -0.70620        0.98660       -3.71940
N         -0.63330        0.76930       -2.37030
C         -1.19850       -0.46790       -2.10950
C         -1.38300       -1.22140       -0.91890
N         -0.89860       -1.08950        0.37110
C         -1.44740       -2.08770        1.12960
C         -1.38570       -2.54580        2.44880
S         -0.50590       -2.15860        3.87980
C          0.23060       -0.33890        0.87250
C          1.51560       -0.69000        0.12770
C         -0.36480        1.87620       -1.47870
C         -1.61100        2.28470       -0.69810
C          0.47730        4.94350       -6.97140
C          0.91070        6.11500       -6.44360
S          1.21910        6.47780       -4.75900
C          1.64390        8.17680       -5.15010
O          1.96770        8.98700       -4.33160
N          1.54360        8.36300       -6.49600
C          1.78810        9.67090       -7.08170
C          0.54740       10.55010       -6.99540
C          1.15210        7.28830       -7.28010
O          1.03650        7.34550       -8.48310
H         -1.41160       -4.76440        6.40080
H          2.56210       -4.81320        9.82950
H          2.88490       -0.31570        7.51520
H          5.17480       -0.52560       10.08150
H          6.79610       -0.66090        8.19690
H          5.84210       -2.42180        6.51500
H          5.69110       -4.76330        7.75860
H          6.55120       -4.44610       10.20830
H          7.46810       -1.92940       10.47450
H          8.20820       -2.72670        9.06380
H          5.02260       -2.80200       11.28810
H         -1.31100       -6.56780        4.51910
H         -2.59240       -8.53200        5.27440
H         -5.03850       -8.34860        5.59310
H         -6.17280       -6.21170        5.16360
H         -4.71080       -3.32560        3.54640
H         -6.17170       -4.05750        4.21350
H         -5.34590       -3.51970        6.52960
H         -5.56120       -2.07560        5.53440
H         -3.94600       -2.70800        5.82500
H         -2.99850        2.00540       -7.22320
H         -3.89280        2.09890       -8.74080
H         -3.40880        4.55130       -8.86400
H         -2.54420        4.45590       -7.33060
H         -4.27960        4.13220       -7.38500
H         -2.80690        2.11750      -10.81940
H         -0.75740        1.98120      -12.16700
H          1.45240        2.17830      -11.07290
H          1.57930        2.48050       -8.63000
H          0.02580        0.73180        0.83780
H          0.33950       -0.60860        1.92580
H          1.41970       -0.49730       -0.93820
H          1.74720       -1.74410        0.26220
H          2.34110       -0.10180        0.51910
H         -0.04550        2.71060       -2.10790
H          0.46670        1.64100       -0.81340
H         -1.99670        1.45850       -0.10550
H         -1.37600        3.11300       -0.03540
H         -2.39150        2.60260       -1.38530
H          0.34340        4.93500       -8.04770
H          2.06420        9.49620       -8.12410
H          2.62020       10.12880       -6.54230
H          0.75140       11.51540       -7.44970
H         -0.28200       10.08360       -7.52230
H          0.26750       10.70500       -5.95590
