
  xtb     02022215253D
 energy: -186.844354296032 gnorm: 0.000910544631 xtb: 6.4.1 (unknown)
101115  0     0  0            999 V2000
    4.9312    5.2529    2.3554 C   0  0  0  0  0  0  0  0  0  0  0  0
    4.2199    6.0988    1.4708 C   0  0  0  0  0  0  0  0  0  0  0  0
    3.2088    5.6484    0.6196 C   0  0  0  0  0  0  0  0  0  0  0  0
    2.7200    4.4478    0.4698 O   0  0  0  0  0  0  0  0  0  0  0  0
    2.6974    6.7575   -0.1584 C   0  0  0  0  0  0  0  0  0  0  0  0
    1.6923    6.7572   -1.1239 C   0  0  0  0  0  0  0  0  0  0  0  0
    1.4515    7.9949   -1.6738 C   0  0  0  0  0  0  0  0  0  0  0  0
    2.1500    9.1449   -1.2919 C   0  0  0  0  0  0  0  0  0  0  0  0
    3.1455    9.1579   -0.3371 C   0  0  0  0  0  0  0  0  0  0  0  0
    3.4129    7.9165    0.2320 C   0  0  0  0  0  0  0  0  0  0  0  0
    4.3800    7.5203    1.2603 C   0  0  0  0  0  0  0  0  0  0  0  0
    5.2616    8.3585    1.8936 C   0  0  0  0  0  0  0  0  0  0  0  0
    5.3687    9.7404    1.6351 C   0  0  0  0  0  0  0  0  0  0  0  0
    5.5101   10.8683    1.4733 N   0  0  0  0  0  0  0  0  0  0  0  0
    6.1819    7.9622    2.8857 C   0  0  0  0  0  0  0  0  0  0  0  0
    6.9527    7.7061    3.6981 N   0  0  0  0  0  0  0  0  0  0  0  0
    1.3953   10.0225   -2.2579 C   0  0  0  0  0  0  0  0  0  0  0  0
    2.1132   10.4425   -3.5645 C   0  0  0  0  0  0  0  0  0  0  0  0
    3.1306    9.3681   -3.8586 C   0  0  0  0  0  0  0  0  0  0  0  0
    2.4720    8.2760   -4.2230 C   0  0  0  0  0  0  0  0  0  0  0  0
    0.9972    8.5920   -4.1816 C   0  0  0  0  0  0  0  0  0  0  0  0
    1.0267   10.0742   -4.5875 C   0  0  0  0  0  0  0  0  0  0  0  0
    0.6178    8.7382   -2.6868 C   0  0  0  0  0  0  0  0  0  0  0  0
    4.7193    3.9106    2.4847 C   0  0  0  0  0  0  0  0  0  0  0  0
    5.4167    3.0455    3.3439 C   0  0  0  0  0  0  0  0  0  0  0  0
    5.0903    1.7382    3.3762 C   0  0  0  0  0  0  0  0  0  0  0  0
    6.3304   -1.5292    5.1532 S   0  0  0  0  0  0  0  0  0  0  0  0
    5.0377   -1.7590    4.1400 C   0  0  0  0  0  0  0  0  0  0  0  0
    4.3432   -2.9654    3.8371 C   0  0  0  0  0  0  0  0  0  0  0  0
    4.6139   -4.2966    4.2252 C   0  0  0  0  0  0  0  0  0  0  0  0
    3.7687   -5.3494    3.7287 C   0  0  0  0  0  0  0  0  0  0  0  0
    4.1683   -6.5485    4.1219 N   0  0  0  0  0  0  0  0  0  0  0  0
    5.4893   -6.3712    5.0400 S   0  0  0  0  0  0  0  0  0  0  0  0
    5.6014   -4.7625    4.9725 N   0  0  0  0  0  0  0  0  0  0  0  0
    2.6152   -5.0109    2.9868 C   0  0  0  0  0  0  0  0  0  0  0  0
    1.5170   -5.7731    2.5706 C   0  0  0  0  0  0  0  0  0  0  0  0
    0.5655   -4.8810    2.0530 C   0  0  0  0  0  0  0  0  0  0  0  0
    1.0549   -3.6017    2.0996 N   0  0  0  0  0  0  0  0  0  0  0  0
    0.1590   -2.4771    1.9430 C   0  0  0  0  0  0  0  0  0  0  0  0
   -0.1957   -2.2092    0.4802 C   0  0  0  0  0  0  0  0  0  0  0  0
    2.3191   -3.6557    2.6570 C   0  0  0  0  0  0  0  0  0  0  0  0
    3.2720   -2.6598    2.9721 C   0  0  0  0  0  0  0  0  0  0  0  0
    3.3328   -1.3158    2.6543 N   0  0  0  0  0  0  0  0  0  0  0  0
    4.3731   -0.7434    3.3661 C   0  0  0  0  0  0  0  0  0  0  0  0
    4.6860    0.5682    3.3154 C   0  0  0  0  0  0  0  0  0  0  0  0
    3.3649    2.9802    1.4522 Se  0  0  0  0  0  2  0  0  0  0  0  0
    2.8888   -0.7001    1.4248 C   0  0  0  0  0  0  0  0  0  0  0  0
    4.0232   -0.5763    0.4080 C   0  0  0  0  0  0  0  0  0  0  0  0
   -0.6348   -5.5048    1.7020 C   0  0  0  0  0  0  0  0  0  0  0  0
   -0.5567   -6.8937    1.9471 C   0  0  0  0  0  0  0  0  0  0  0  0
    0.9829   -7.4157    2.6040 S   0  0  0  0  0  0  0  0  0  0  0  0
   -1.6939   -7.6198    1.6524 C   0  0  0  0  0  0  0  0  0  0  0  0
   -2.7666   -6.8714    1.1589 C   0  0  0  0  0  0  0  0  0  0  0  0
   -2.3145   -5.0320    1.0361 Se  0  0  0  0  0  2  0  0  0  0  0  0
   -3.9777   -7.4882    0.8230 C   0  0  0  0  0  0  0  0  0  0  0  0
   -5.1438   -6.9592    0.3207 C   0  0  0  0  0  0  0  0  0  0  0  0
   -5.3678   -5.5522    0.0170 C   0  0  0  0  0  0  0  0  0  0  0  0
   -4.5758   -4.6270    0.1616 O   0  0  0  0  0  0  0  0  0  0  0  0
   -6.7387   -5.4476   -0.5039 C   0  0  0  0  0  0  0  0  0  0  0  0
   -7.4201   -4.3256   -0.9335 C   0  0  0  0  0  0  0  0  0  0  0  0
   -8.7247   -4.4557   -1.3969 C   0  0  0  0  0  0  0  0  0  0  0  0
   -9.5248   -3.2880   -1.8729 C   0  0  0  0  0  0  0  0  0  0  0  0
   -9.2818   -5.7359   -1.4014 C   0  0  0  0  0  0  0  0  0  0  0  0
  -10.5430   -5.8723   -1.8494 F   0  0  0  0  0  0  0  0  0  0  0  0
   -8.6194   -6.8769   -0.9756 C   0  0  0  0  0  0  0  0  0  0  0  0
   -7.3209   -6.7276   -0.5171 C   0  0  0  0  0  0  0  0  0  0  0  0
   -6.3509   -7.6951   -0.0040 C   0  0  0  0  0  0  0  0  0  0  0  0
   -6.5752   -9.0397    0.1327 C   0  0  0  0  0  0  0  0  0  0  0  0
   -5.6526   -9.9837    0.6308 C   0  0  0  0  0  0  0  0  0  0  0  0
   -4.9643  -10.8147    1.0244 N   0  0  0  0  0  0  0  0  0  0  0  0
   -7.7864   -9.6766   -0.2132 C   0  0  0  0  0  0  0  0  0  0  0  0
   -8.7417  -10.2563   -0.4754 N   0  0  0  0  0  0  0  0  0  0  0  0
    5.7026    5.6876    2.9746 H   0  0  0  0  0  0  0  0  0  0  0  0
    1.1700    5.8524   -1.3933 H   0  0  0  0  0  0  0  0  0  0  0  0
    3.6738   10.0533   -0.0551 H   0  0  0  0  0  0  0  0  0  0  0  0
    0.8271   10.8385   -1.8161 H   0  0  0  0  0  0  0  0  0  0  0  0
    2.4801   11.4652   -3.5688 H   0  0  0  0  0  0  0  0  0  0  0  0
    4.1888    9.4919   -3.7214 H   0  0  0  0  0  0  0  0  0  0  0  0
    2.8707    7.3048   -4.4512 H   0  0  0  0  0  0  0  0  0  0  0  0
    0.3482    7.9303   -4.7495 H   0  0  0  0  0  0  0  0  0  0  0  0
    1.3497   10.2225   -5.6167 H   0  0  0  0  0  0  0  0  0  0  0  0
    0.0813   10.5886   -4.4207 H   0  0  0  0  0  0  0  0  0  0  0  0
   -0.4588    8.7172   -2.5283 H   0  0  0  0  0  0  0  0  0  0  0  0
    6.2109    3.4299    3.9663 H   0  0  0  0  0  0  0  0  0  0  0  0
    0.6016   -1.6011    2.4191 H   0  0  0  0  0  0  0  0  0  0  0  0
   -0.7688   -2.7163    2.4802 H   0  0  0  0  0  0  0  0  0  0  0  0
   -0.8372   -3.0022    0.0962 H   0  0  0  0  0  0  0  0  0  0  0  0
    0.6881   -2.1618   -0.1521 H   0  0  0  0  0  0  0  0  0  0  0  0
   -0.7340   -1.2691    0.4027 H   0  0  0  0  0  0  0  0  0  0  0  0
    2.4889    0.2969    1.6547 H   0  0  0  0  0  0  0  0  0  0  0  0
    2.1068   -1.3112    0.9898 H   0  0  0  0  0  0  0  0  0  0  0  0
    4.8170    0.0634    0.7855 H   0  0  0  0  0  0  0  0  0  0  0  0
    4.4395   -1.5567    0.1856 H   0  0  0  0  0  0  0  0  0  0  0  0
    3.6374   -0.1417   -0.5102 H   0  0  0  0  0  0  0  0  0  0  0  0
   -1.7645   -8.6854    1.7923 H   0  0  0  0  0  0  0  0  0  0  0  0
   -3.9672   -8.5590    0.9932 H   0  0  0  0  0  0  0  0  0  0  0  0
   -6.9376   -3.3606   -0.9074 H   0  0  0  0  0  0  0  0  0  0  0  0
   -8.9179   -2.3878   -1.8981 H   0  0  0  0  0  0  0  0  0  0  0  0
   -9.9219   -3.4828   -2.8681 H   0  0  0  0  0  0  0  0  0  0  0  0
  -10.3755   -3.1236   -1.2119 H   0  0  0  0  0  0  0  0  0  0  0  0
   -9.1278   -7.8259   -1.0153 H   0  0  0  0  0  0  0  0  0  0  0  0
  1  2  2  0  0  0  0
  2  3  1  0  0  0  0
  3  4  2  0  0  0  0
  3  5  1  0  0  0  0
  5  6  2  0  0  0  0
  6  7  1  0  0  0  0
  7  8  2  0  0  0  0
  8  9  1  0  0  0  0
  9 10  2  0  0  0  0
 10 11  1  0  0  0  0
 11 12  2  0  0  0  0
 12 13  1  0  0  0  0
 13 14  3  0  0  0  0
 12 15  1  0  0  0  0
 15 16  3  0  0  0  0
  8 17  1  0  0  0  0
 17 18  1  0  0  0  0
 18 19  1  0  0  0  0
 19 20  2  0  0  0  0
 20 21  1  0  0  0  0
 21 22  1  0  0  0  0
 21 23  1  0  0  0  0
  1 24  1  0  0  0  0
 24 25  2  0  0  0  0
 25 26  1  0  0  0  0
 26 27  1  0  0  0  0
 27 28  1  0  0  0  0
 28 29  1  0  0  0  0
 29 30  1  0  0  0  0
 30 31  1  0  0  0  0
 31 32  2  0  0  0  0
 32 33  1  0  0  0  0
 33 34  1  0  0  0  0
 31 35  1  0  0  0  0
 35 36  1  0  0  0  0
 36 37  2  0  0  0  0
 37 38  1  0  0  0  0
 38 39  1  0  0  0  0
 39 40  1  0  0  0  0
 38 41  1  0  0  0  0
 41 42  1  0  0  0  0
 42 43  1  0  0  0  0
 43 44  1  0  0  0  0
 44 45  1  0  0  0  0
 45 46  1  0  0  0  0
 43 47  1  0  0  0  0
 47 48  1  0  0  0  0
 37 49  1  0  0  0  0
 49 50  2  0  0  0  0
 50 51  1  0  0  0  0
 50 52  1  0  0  0  0
 52 53  2  0  0  0  0
 53 54  1  0  0  0  0
 53 55  1  0  0  0  0
 55 56  2  0  0  0  0
 56 57  1  0  0  0  0
 57 58  2  0  0  0  0
 57 59  1  0  0  0  0
 59 60  2  0  0  0  0
 60 61  1  0  0  0  0
 61 62  1  0  0  0  0
 61 63  2  0  0  0  0
 63 64  1  0  0  0  0
 63 65  1  0  0  0  0
 65 66  2  0  0  0  0
 66 67  1  0  0  0  0
 67 68  2  0  0  0  0
 68 69  1  0  0  0  0
 69 70  3  0  0  0  0
 68 71  1  0  0  0  0
 71 72  3  0  0  0  0
 11  2  1  0  0  0  0
 23 17  1  0  0  0  0
 46 24  1  0  0  0  0
 54 49  1  0  0  0  0
 67 56  1  0  0  0  0
 10  5  1  0  0  0  0
 22 18  1  0  0  0  0
 45 26  2  0  0  0  0
 66 59  1  0  0  0  0
 23  7  1  0  0  0  0
 44 28  2  0  0  0  0
 42 29  2  0  0  0  0
 34 30  2  0  0  0  0
 41 35  2  0  0  0  0
 51 36  1  0  0  0  0
  1 73  1  0  0  0  0
  6 74  1  0  0  0  0
  9 75  1  0  0  0  0
 17 76  1  0  0  0  0
 18 77  1  0  0  0  0
 19 78  1  0  0  0  0
 20 79  1  0  0  0  0
 21 80  1  0  0  0  0
 22 81  1  0  0  0  0
 22 82  1  0  0  0  0
 23 83  1  0  0  0  0
 25 84  1  0  0  0  0
 39 85  1  0  0  0  0
 39 86  1  0  0  0  0
 40 87  1  0  0  0  0
 40 88  1  0  0  0  0
 40 89  1  0  0  0  0
 47 90  1  0  0  0  0
 47 91  1  0  0  0  0
 48 92  1  0  0  0  0
 48 93  1  0  0  0  0
 48 94  1  0  0  0  0
 52 95  1  0  0  0  0
 55 96  1  0  0  0  0
 60 97  1  0  0  0  0
 62 98  1  0  0  0  0
 62 99  1  0  0  0  0
 62100  1  0  0  0  0
 65101  1  0  0  0  0
M  END
