
  xtb     02022209303D
 energy: -200.657477595570 gnorm: 0.000385133194 xtb: 6.4.1 (unknown)
110124  0     0  0            999 V2000
    0.6905   -1.8905   -6.3113 C   0  0  0  0  0  0  0  0  0  0  0  0
   -0.6676   -2.0338   -6.4406 C   0  0  0  0  0  0  0  0  0  0  0  0
   -1.6783   -1.6940   -5.4348 C   0  0  0  0  0  0  0  0  0  0  0  0
   -1.4896   -1.3276   -4.2860 O   0  0  0  0  0  0  0  0  0  0  0  0
   -2.9869   -1.8683   -6.0857 C   0  0  0  0  0  0  0  0  0  0  0  0
   -4.2399   -1.6146   -5.5334 C   0  0  0  0  0  0  0  0  0  0  0  0
   -5.2870   -1.8478   -6.3923 C   0  0  0  0  0  0  0  0  0  0  0  0
   -5.1009   -2.2930   -7.7077 C   0  0  0  0  0  0  0  0  0  0  0  0
   -3.8699   -2.5491   -8.2639 C   0  0  0  0  0  0  0  0  0  0  0  0
   -2.7910   -2.3272   -7.4042 C   0  0  0  0  0  0  0  0  0  0  0  0
   -1.3558   -2.4845   -7.6346 C   0  0  0  0  0  0  0  0  0  0  0  0
   -0.7891   -3.0067   -8.7695 C   0  0  0  0  0  0  0  0  0  0  0  0
    0.5902   -3.2073   -8.9838 C   0  0  0  0  0  0  0  0  0  0  0  0
    1.6928   -3.4117   -9.2358 N   0  0  0  0  0  0  0  0  0  0  0  0
   -1.5156   -3.4542   -9.8929 C   0  0  0  0  0  0  0  0  0  0  0  0
   -2.0330   -3.8408  -10.8423 N   0  0  0  0  0  0  0  0  0  0  0  0
   -6.5808   -2.3081   -7.9970 C   0  0  0  0  0  0  0  0  0  0  0  0
   -7.2993   -3.6798   -8.0076 C   0  0  0  0  0  0  0  0  0  0  0  0
   -6.5007   -4.5877   -7.1055 C   0  0  0  0  0  0  0  0  0  0  0  0
   -6.6748   -4.1733   -5.8577 C   0  0  0  0  0  0  0  0  0  0  0  0
   -7.5948   -2.9780   -5.8933 C   0  0  0  0  0  0  0  0  0  0  0  0
   -8.4867   -3.3582   -7.0860 C   0  0  0  0  0  0  0  0  0  0  0  0
   -6.7885   -1.8182   -6.5291 C   0  0  0  0  0  0  0  0  0  0  0  0
    1.4674   -1.4534   -5.2315 C   0  0  0  0  0  0  0  0  0  0  0  0
    2.8636   -1.3214   -5.2946 C   0  0  0  0  0  0  0  0  0  0  0  0
    3.7263   -1.6577   -6.4670 C   0  0  0  0  0  0  0  0  0  0  0  0
    4.0563   -3.1519   -6.4898 C   0  0  0  0  0  0  0  0  0  0  0  0
    3.3930   -0.8771   -4.0893 C   0  0  0  0  0  0  0  0  0  0  0  0
    5.1690   -0.5005   -3.5312 Se  0  0  0  0  0  2  0  0  0  0  0  0
    4.3742   -0.0577   -1.9087 C   0  0  0  0  0  0  0  0  0  0  0  0
    4.7554    0.3629   -0.6305 C   0  0  0  0  0  0  0  0  0  0  0  0
    6.0450    0.5548   -0.0905 C   0  0  0  0  0  0  0  0  0  0  0  0
    6.1671    0.8778    1.2963 C   0  0  0  0  0  0  0  0  0  0  0  0
    7.4268    0.9799    1.6886 N   0  0  0  0  0  0  0  0  0  0  0  0
    8.3814    0.6930    0.4084 S   0  0  0  0  0  0  0  0  0  0  0  0
    7.2183    0.4285   -0.6895 N   0  0  0  0  0  0  0  0  0  0  0  0
    4.9917    1.1014    2.0443 C   0  0  0  0  0  0  0  0  0  0  0  0
    4.8400    1.5546    3.3567 C   0  0  0  0  0  0  0  0  0  0  0  0
    5.9092    2.0064    4.8088 Se  0  0  0  0  0  2  0  0  0  0  0  0
    4.2649    2.4647    5.6431 C   0  0  0  0  0  0  0  0  0  0  0  0
    3.9619    2.9655    6.8985 C   0  0  0  0  0  0  0  0  0  0  0  0
    5.0069    3.2145    7.9359 C   0  0  0  0  0  0  0  0  0  0  0  0
    5.1410    2.0097    8.8705 C   0  0  0  0  0  0  0  0  0  0  0  0
    2.5738    3.1356    7.0715 C   0  0  0  0  0  0  0  0  0  0  0  0
    1.6729    2.6679    5.6288 S   0  0  0  0  0  0  0  0  0  0  0  0
    3.1383    2.2536    4.8230 C   0  0  0  0  0  0  0  0  0  0  0  0
    3.4659    1.7465    3.5624 C   0  0  0  0  0  0  0  0  0  0  0  0
    2.7790    1.4156    2.4231 N   0  0  0  0  0  0  0  0  0  0  0  0
    3.6876    0.9888    1.4766 C   0  0  0  0  0  0  0  0  0  0  0  0
    3.5682    0.5020    0.1458 C   0  0  0  0  0  0  0  0  0  0  0  0
    2.4942    0.1390   -0.6502 N   0  0  0  0  0  0  0  0  0  0  0  0
    2.9820   -0.2037   -1.8857 C   0  0  0  0  0  0  0  0  0  0  0  0
    2.4303   -0.6636   -3.0886 C   0  0  0  0  0  0  0  0  0  0  0  0
    0.8361   -1.0088   -3.6476 S   0  0  0  0  0  0  0  0  0  0  0  0
    1.1895   -0.3643   -0.2773 C   0  0  0  0  0  0  0  0  0  0  0  0
    1.2891   -1.8031    0.2261 C   0  0  0  0  0  0  0  0  0  0  0  0
    1.3880    1.7865    2.2942 C   0  0  0  0  0  0  0  0  0  0  0  0
    0.4534    0.7673    2.9449 C   0  0  0  0  0  0  0  0  0  0  0  0
    2.0077    3.6168    8.2502 C   0  0  0  0  0  0  0  0  0  0  0  0
    0.6906    3.8021    8.6133 C   0  0  0  0  0  0  0  0  0  0  0  0
   -0.4814    3.4920    7.7987 C   0  0  0  0  0  0  0  0  0  0  0  0
   -0.5147    3.0653    6.6571 O   0  0  0  0  0  0  0  0  0  0  0  0
   -1.6566    3.8021    8.6409 C   0  0  0  0  0  0  0  0  0  0  0  0
   -2.9945    3.6607    8.3332 C   0  0  0  0  0  0  0  0  0  0  0  0
   -3.9174    4.0197    9.3026 C   0  0  0  0  0  0  0  0  0  0  0  0
   -5.2269    3.8969    9.0489 F   0  0  0  0  0  0  0  0  0  0  0  0
   -3.4953    4.5064   10.5391 C   0  0  0  0  0  0  0  0  0  0  0  0
   -4.4082    4.8447   11.4572 F   0  0  0  0  0  0  0  0  0  0  0  0
   -2.1497    4.6491   10.8467 C   0  0  0  0  0  0  0  0  0  0  0  0
   -1.2204    4.2908    9.8834 C   0  0  0  0  0  0  0  0  0  0  0  0
    0.2444    4.3125    9.8913 C   0  0  0  0  0  0  0  0  0  0  0  0
    1.0166    4.7552   10.9359 C   0  0  0  0  0  0  0  0  0  0  0  0
    0.4955    5.2502   12.1498 C   0  0  0  0  0  0  0  0  0  0  0  0
    0.1399    5.6624   13.1604 N   0  0  0  0  0  0  0  0  0  0  0  0
    2.4260    4.7932   10.9630 C   0  0  0  0  0  0  0  0  0  0  0  0
    3.5690    4.8574   11.0652 N   0  0  0  0  0  0  0  0  0  0  0  0
    1.2777   -2.1344   -7.1863 H   0  0  0  0  0  0  0  0  0  0  0  0
   -4.3376   -1.2635   -4.5179 H   0  0  0  0  0  0  0  0  0  0  0  0
   -3.7453   -2.8862   -9.2793 H   0  0  0  0  0  0  0  0  0  0  0  0
   -6.9146   -1.6579   -8.8031 H   0  0  0  0  0  0  0  0  0  0  0  0
   -7.5234   -4.0641   -8.9989 H   0  0  0  0  0  0  0  0  0  0  0  0
   -5.8655   -5.3773   -7.4619 H   0  0  0  0  0  0  0  0  0  0  0  0
   -6.2138   -4.5478   -4.9625 H   0  0  0  0  0  0  0  0  0  0  0  0
   -8.0893   -2.7247   -4.9591 H   0  0  0  0  0  0  0  0  0  0  0  0
   -9.1047   -2.5364   -7.4452 H   0  0  0  0  0  0  0  0  0  0  0  0
   -9.1109   -4.2274   -6.8849 H   0  0  0  0  0  0  0  0  0  0  0  0
   -7.2635   -0.8509   -6.3763 H   0  0  0  0  0  0  0  0  0  0  0  0
    3.2477   -1.3759   -7.4058 H   0  0  0  0  0  0  0  0  0  0  0  0
    4.6569   -1.0886   -6.3723 H   0  0  0  0  0  0  0  0  0  0  0  0
    4.7075   -3.3729   -7.3304 H   0  0  0  0  0  0  0  0  0  0  0  0
    4.5605   -3.4392   -5.5693 H   0  0  0  0  0  0  0  0  0  0  0  0
    3.1510   -3.7447   -6.5937 H   0  0  0  0  0  0  0  0  0  0  0  0
    5.9601    3.3727    7.4214 H   0  0  0  0  0  0  0  0  0  0  0  0
    4.7817    4.1072    8.5211 H   0  0  0  0  0  0  0  0  0  0  0  0
    5.4048    1.1205    8.3016 H   0  0  0  0  0  0  0  0  0  0  0  0
    5.9178    2.1982    9.6059 H   0  0  0  0  0  0  0  0  0  0  0  0
    4.2071    1.8228    9.3954 H   0  0  0  0  0  0  0  0  0  0  0  0
    0.7277    0.2623    0.4763 H   0  0  0  0  0  0  0  0  0  0  0  0
    0.5659   -0.3323   -1.1741 H   0  0  0  0  0  0  0  0  0  0  0  0
    0.3015   -2.1702    0.4907 H   0  0  0  0  0  0  0  0  0  0  0  0
    1.9350   -1.8600    1.1007 H   0  0  0  0  0  0  0  0  0  0  0  0
    1.7007   -2.4463   -0.5478 H   0  0  0  0  0  0  0  0  0  0  0  0
    1.1635    1.9448    1.2381 H   0  0  0  0  0  0  0  0  0  0  0  0
    1.2576    2.7478    2.8026 H   0  0  0  0  0  0  0  0  0  0  0  0
    0.6618   -0.2428    2.6023 H   0  0  0  0  0  0  0  0  0  0  0  0
    0.5727    0.7925    4.0244 H   0  0  0  0  0  0  0  0  0  0  0  0
   -0.5786    1.0155    2.7139 H   0  0  0  0  0  0  0  0  0  0  0  0
    2.7408    3.8721    9.0027 H   0  0  0  0  0  0  0  0  0  0  0  0
   -3.3161    3.2836    7.3756 H   0  0  0  0  0  0  0  0  0  0  0  0
   -1.8775    5.0292   11.8174 H   0  0  0  0  0  0  0  0  0  0  0  0
  1  2  2  0  0  0  0
  2  3  1  0  0  0  0
  3  4  2  0  0  0  0
  3  5  1  0  0  0  0
  5  6  2  0  0  0  0
  6  7  1  0  0  0  0
  7  8  2  0  0  0  0
  8  9  1  0  0  0  0
  9 10  2  0  0  0  0
 10 11  1  0  0  0  0
 11 12  2  0  0  0  0
 12 13  1  0  0  0  0
 13 14  3  0  0  0  0
 12 15  1  0  0  0  0
 15 16  3  0  0  0  0
  8 17  1  0  0  0  0
 17 18  1  0  0  0  0
 18 19  1  0  0  0  0
 19 20  2  0  0  0  0
 20 21  1  0  0  0  0
 21 22  1  0  0  0  0
 21 23  1  0  0  0  0
  1 24  1  0  0  0  0
 24 25  2  0  0  0  0
 25 26  1  0  0  0  0
 26 27  1  0  0  0  0
 25 28  1  0  0  0  0
 28 29  1  0  0  0  0
 29 30  1  0  0  0  0
 30 31  1  0  0  0  0
 31 32  1  0  0  0  0
 32 33  1  0  0  0  0
 33 34  2  0  0  0  0
 34 35  1  0  0  0  0
 35 36  1  0  0  0  0
 33 37  1  0  0  0  0
 37 38  1  0  0  0  0
 38 39  1  0  0  0  0
 39 40  1  0  0  0  0
 40 41  1  0  0  0  0
 41 42  1  0  0  0  0
 42 43  1  0  0  0  0
 41 44  2  0  0  0  0
 44 45  1  0  0  0  0
 45 46  1  0  0  0  0
 46 47  1  0  0  0  0
 47 48  1  0  0  0  0
 48 49  1  0  0  0  0
 49 50  1  0  0  0  0
 50 51  1  0  0  0  0
 51 52  1  0  0  0  0
 52 53  1  0  0  0  0
 53 54  1  0  0  0  0
 51 55  1  0  0  0  0
 55 56  1  0  0  0  0
 48 57  1  0  0  0  0
 57 58  1  0  0  0  0
 44 59  1  0  0  0  0
 59 60  2  0  0  0  0
 60 61  1  0  0  0  0
 61 62  2  0  0  0  0
 61 63  1  0  0  0  0
 63 64  2  0  0  0  0
 64 65  1  0  0  0  0
 65 66  1  0  0  0  0
 65 67  2  0  0  0  0
 67 68  1  0  0  0  0
 67 69  1  0  0  0  0
 69 70  2  0  0  0  0
 70 71  1  0  0  0  0
 71 72  2  0  0  0  0
 72 73  1  0  0  0  0
 73 74  3  0  0  0  0
 72 75  1  0  0  0  0
 75 76  3  0  0  0  0
 11  2  1  0  0  0  0
 23 17  1  0  0  0  0
 54 24  1  0  0  0  0
 71 60  1  0  0  0  0
 10  5  1  0  0  0  0
 22 18  1  0  0  0  0
 53 28  2  0  0  0  0
 70 63  1  0  0  0  0
 23  7  1  0  0  0  0
 52 30  2  0  0  0  0
 50 31  2  0  0  0  0
 36 32  2  0  0  0  0
 49 37  2  0  0  0  0
 47 38  2  0  0  0  0
 46 40  2  0  0  0  0
  1 77  1  0  0  0  0
  6 78  1  0  0  0  0
  9 79  1  0  0  0  0
 17 80  1  0  0  0  0
 18 81  1  0  0  0  0
 19 82  1  0  0  0  0
 20 83  1  0  0  0  0
 21 84  1  0  0  0  0
 22 85  1  0  0  0  0
 22 86  1  0  0  0  0
 23 87  1  0  0  0  0
 26 88  1  0  0  0  0
 26 89  1  0  0  0  0
 27 90  1  0  0  0  0
 27 91  1  0  0  0  0
 27 92  1  0  0  0  0
 42 93  1  0  0  0  0
 42 94  1  0  0  0  0
 43 95  1  0  0  0  0
 43 96  1  0  0  0  0
 43 97  1  0  0  0  0
 55 98  1  0  0  0  0
 55 99  1  0  0  0  0
 56100  1  0  0  0  0
 56101  1  0  0  0  0
 56102  1  0  0  0  0
 57103  1  0  0  0  0
 57104  1  0  0  0  0
 58105  1  0  0  0  0
 58106  1  0  0  0  0
 58107  1  0  0  0  0
 59108  1  0  0  0  0
 64109  1  0  0  0  0
 69110  1  0  0  0  0
M  END
