
  xtb     02022200293D
 energy: -237.979579160493 gnorm: 0.000966896471 xtb: 6.4.1 (unknown)
133149  0     0  0            999 V2000
   -4.0261    5.9003   -1.9231 C   0  0  0  0  0  0  0  0  0  0  0  0
   -4.2804    6.3542   -0.6656 C   0  0  0  0  0  0  0  0  0  0  0  0
   -5.5152    7.1313   -0.3822 C   0  0  0  0  0  0  0  0  0  0  0  0
   -6.2404    7.6653   -1.1906 O   0  0  0  0  0  0  0  0  0  0  0  0
   -5.6932    7.0489    1.0825 C   0  0  0  0  0  0  0  0  0  0  0  0
   -6.7778    7.5065    1.8280 C   0  0  0  0  0  0  0  0  0  0  0  0
   -6.6741    7.2620    3.1766 C   0  0  0  0  0  0  0  0  0  0  0  0
   -5.5775    6.6022    3.7485 C   0  0  0  0  0  0  0  0  0  0  0  0
   -4.4969    6.1511    3.0288 C   0  0  0  0  0  0  0  0  0  0  0  0
   -4.5802    6.3977    1.6561 C   0  0  0  0  0  0  0  0  0  0  0  0
   -3.6192    6.1108    0.5966 C   0  0  0  0  0  0  0  0  0  0  0  0
   -2.2708    5.9235    0.7655 C   0  0  0  0  0  0  0  0  0  0  0  0
   -1.3595    5.9933   -0.3085 C   0  0  0  0  0  0  0  0  0  0  0  0
   -0.5927    6.0991   -1.1569 N   0  0  0  0  0  0  0  0  0  0  0  0
   -1.6435    5.7226    2.0088 C   0  0  0  0  0  0  0  0  0  0  0  0
   -1.0829    5.5127    2.9889 N   0  0  0  0  0  0  0  0  0  0  0  0
   -6.1451    6.6971    5.1426 C   0  0  0  0  0  0  0  0  0  0  0  0
   -5.5311    7.7731    6.0629 C   0  0  0  0  0  0  0  0  0  0  0  0
   -6.5712    7.9611    7.1437 C   0  0  0  0  0  0  0  0  0  0  0  0
   -7.6056    8.5919    6.6027 C   0  0  0  0  0  0  0  0  0  0  0  0
   -7.2823    8.8406    5.1470 C   0  0  0  0  0  0  0  0  0  0  0  0
   -5.7658    9.0502    5.2459 C   0  0  0  0  0  0  0  0  0  0  0  0
   -7.3644    7.4386    4.5062 C   0  0  0  0  0  0  0  0  0  0  0  0
   -3.2038    4.8238   -2.3226 C   0  0  0  0  0  0  0  0  0  0  0  0
   -2.7866    4.5703   -3.6253 C   0  0  0  0  0  0  0  0  0  0  0  0
   -3.0096    5.5412   -4.7048 C   0  0  0  0  0  0  0  0  0  0  0  0
   -2.4119    6.7933   -4.5663 C   0  0  0  0  0  0  0  0  0  0  0  0
   -2.5787    7.7611   -5.5362 C   0  0  0  0  0  0  0  0  0  0  0  0
   -3.3644    7.4903   -6.6444 C   0  0  0  0  0  0  0  0  0  0  0  0
   -3.9730    6.2564   -6.7728 C   0  0  0  0  0  0  0  0  0  0  0  0
   -3.8049    5.2612   -5.8168 C   0  0  0  0  0  0  0  0  0  0  0  0
   -4.5150    3.9462   -5.9865 C   0  0  0  0  0  0  0  0  0  0  0  0
   -4.0131    3.1807   -7.2110 C   0  0  0  0  0  0  0  0  0  0  0  0
   -2.0485    3.3824   -3.7096 C   0  0  0  0  0  0  0  0  0  0  0  0
   -1.2207    2.5785   -5.0233 S   0  0  0  0  0  0  0  0  0  0  0  0
   -0.6904    1.3621   -3.9156 C   0  0  0  0  0  0  0  0  0  0  0  0
    0.0561    0.1770   -3.9101 C   0  0  0  0  0  0  0  0  0  0  0  0
    0.6202   -0.5449   -4.9843 C   0  0  0  0  0  0  0  0  0  0  0  0
    1.2554   -1.7979   -4.7136 C   0  0  0  0  0  0  0  0  0  0  0  0
    1.6996   -2.3892   -5.8116 N   0  0  0  0  0  0  0  0  0  0  0  0
    1.3493   -1.4448   -7.0784 S   0  0  0  0  0  0  0  0  0  0  0  0
    0.6152   -0.2462   -6.2740 N   0  0  0  0  0  0  0  0  0  0  0  0
    1.3688   -2.2268   -3.3730 C   0  0  0  0  0  0  0  0  0  0  0  0
    2.0172   -3.3440   -2.8367 C   0  0  0  0  0  0  0  0  0  0  0  0
    2.9017   -4.7318   -3.3737 S   0  0  0  0  0  0  0  0  0  0  0  0
    3.1571   -5.1715   -1.6946 C   0  0  0  0  0  0  0  0  0  0  0  0
    3.8415   -6.2140   -1.0916 C   0  0  0  0  0  0  0  0  0  0  0  0
    4.5082   -7.3017   -1.8238 C   0  0  0  0  0  0  0  0  0  0  0  0
    5.8995   -7.3984   -1.8967 C   0  0  0  0  0  0  0  0  0  0  0  0
    6.7937   -6.3392   -1.3172 C   0  0  0  0  0  0  0  0  0  0  0  0
    6.9886   -5.2062   -2.3275 C   0  0  0  0  0  0  0  0  0  0  0  0
    6.4527   -8.4619   -2.5968 C   0  0  0  0  0  0  0  0  0  0  0  0
    5.6559   -9.4114   -3.2080 C   0  0  0  0  0  0  0  0  0  0  0  0
    4.2776   -9.3011   -3.1440 C   0  0  0  0  0  0  0  0  0  0  0  0
    3.7074   -8.2468   -2.4577 C   0  0  0  0  0  0  0  0  0  0  0  0
    3.7849   -6.1319    0.3152 C   0  0  0  0  0  0  0  0  0  0  0  0
    2.8725   -4.7241    0.8593 S   0  0  0  0  0  0  0  0  0  0  0  0
    2.5779   -4.2715   -0.7773 C   0  0  0  0  0  0  0  0  0  0  0  0
    1.9188   -3.2377   -1.4437 C   0  0  0  0  0  0  0  0  0  0  0  0
    1.2262   -2.1062   -1.1099 N   0  0  0  0  0  0  0  0  0  0  0  0
    0.8512   -1.4678   -2.2756 C   0  0  0  0  0  0  0  0  0  0  0  0
    0.1092   -0.2861   -2.5592 C   0  0  0  0  0  0  0  0  0  0  0  0
   -0.6393    0.5854   -1.7874 N   0  0  0  0  0  0  0  0  0  0  0  0
   -1.1136    1.5756   -2.6001 C   0  0  0  0  0  0  0  0  0  0  0  0
   -1.9061    2.7197   -2.4828 C   0  0  0  0  0  0  0  0  0  0  0  0
   -2.7249    3.5467   -1.2112 S   0  0  0  0  0  0  0  0  0  0  0  0
   -1.0235    0.6015   -0.3952 C   0  0  0  0  0  0  0  0  0  0  0  0
   -0.1855    1.5943    0.4114 C   0  0  0  0  0  0  0  0  0  0  0  0
    1.1346   -1.7471    0.2867 C   0  0  0  0  0  0  0  0  0  0  0  0
    0.0317   -2.5263    1.0030 C   0  0  0  0  0  0  0  0  0  0  0  0
    4.3940   -7.0839    1.1314 C   0  0  0  0  0  0  0  0  0  0  0  0
    4.4659   -7.1707    2.5051 C   0  0  0  0  0  0  0  0  0  0  0  0
    3.8323   -6.2575    3.4527 C   0  0  0  0  0  0  0  0  0  0  0  0
    3.1683   -5.2637    3.2121 O   0  0  0  0  0  0  0  0  0  0  0  0
    4.1482   -6.7820    4.7985 C   0  0  0  0  0  0  0  0  0  0  0  0
    3.7774   -6.2768    6.0263 C   0  0  0  0  0  0  0  0  0  0  0  0
    4.2071   -6.9610    7.1597 C   0  0  0  0  0  0  0  0  0  0  0  0
    3.8577   -6.4176    8.5177 C   0  0  0  0  0  0  0  0  0  0  0  0
    3.8346   -7.3605    9.4698 F   0  0  0  0  0  0  0  0  0  0  0  0
    2.6576   -5.8193    8.5405 F   0  0  0  0  0  0  0  0  0  0  0  0
    4.7466   -5.4907    8.9272 F   0  0  0  0  0  0  0  0  0  0  0  0
    4.9840   -8.1087    7.0536 C   0  0  0  0  0  0  0  0  0  0  0  0
    5.3517   -8.6099    5.8120 C   0  0  0  0  0  0  0  0  0  0  0  0
    4.9333   -7.9404    4.6729 C   0  0  0  0  0  0  0  0  0  0  0  0
    5.1629   -8.1972    3.2471 C   0  0  0  0  0  0  0  0  0  0  0  0
    5.9353   -9.2149    2.7479 C   0  0  0  0  0  0  0  0  0  0  0  0
    6.2260   -9.4465    1.3868 C   0  0  0  0  0  0  0  0  0  0  0  0
    6.5329   -9.7053    0.3105 N   0  0  0  0  0  0  0  0  0  0  0  0
    6.5798  -10.1822    3.5478 C   0  0  0  0  0  0  0  0  0  0  0  0
    7.1259  -11.0021    4.1376 N   0  0  0  0  0  0  0  0  0  0  0  0
   -4.5938    6.3716   -2.7198 H   0  0  0  0  0  0  0  0  0  0  0  0
   -7.6074    8.0046    1.3514 H   0  0  0  0  0  0  0  0  0  0  0  0
   -3.6596    5.6372    3.4725 H   0  0  0  0  0  0  0  0  0  0  0  0
   -6.3187    5.7502    5.6504 H   0  0  0  0  0  0  0  0  0  0  0  0
   -4.5158    7.5663    6.3899 H   0  0  0  0  0  0  0  0  0  0  0  0
   -6.4737    7.5796    8.1431 H   0  0  0  0  0  0  0  0  0  0  0  0
   -8.5448    8.8426    7.0598 H   0  0  0  0  0  0  0  0  0  0  0  0
   -7.8626    9.6073    4.6408 H   0  0  0  0  0  0  0  0  0  0  0  0
   -5.5104    9.9487    5.8049 H   0  0  0  0  0  0  0  0  0  0  0  0
   -5.2551    9.0624    4.2848 H   0  0  0  0  0  0  0  0  0  0  0  0
   -8.3518    6.9889    4.5926 H   0  0  0  0  0  0  0  0  0  0  0  0
   -1.8026    6.9884   -3.6956 H   0  0  0  0  0  0  0  0  0  0  0  0
   -2.1054    8.7245   -5.4236 H   0  0  0  0  0  0  0  0  0  0  0  0
   -3.5108    8.2448   -7.4029 H   0  0  0  0  0  0  0  0  0  0  0  0
   -4.6051    6.0601   -7.6266 H   0  0  0  0  0  0  0  0  0  0  0  0
   -5.5855    4.1386   -6.1028 H   0  0  0  0  0  0  0  0  0  0  0  0
   -4.3838    3.3309   -5.0949 H   0  0  0  0  0  0  0  0  0  0  0  0
   -4.5299    2.2275   -7.2942 H   0  0  0  0  0  0  0  0  0  0  0  0
   -2.9460    2.9902   -7.1299 H   0  0  0  0  0  0  0  0  0  0  0  0
   -4.1903    3.7485   -8.1206 H   0  0  0  0  0  0  0  0  0  0  0  0
    6.3689   -5.9302   -0.3988 H   0  0  0  0  0  0  0  0  0  0  0  0
    7.7623   -6.7792   -1.0742 H   0  0  0  0  0  0  0  0  0  0  0  0
    7.6469   -4.4428   -1.9193 H   0  0  0  0  0  0  0  0  0  0  0  0
    6.0337   -4.7464   -2.5733 H   0  0  0  0  0  0  0  0  0  0  0  0
    7.4273   -5.5900   -3.2454 H   0  0  0  0  0  0  0  0  0  0  0  0
    7.5275   -8.5471   -2.6531 H   0  0  0  0  0  0  0  0  0  0  0  0
    6.1095  -10.2364   -3.7358 H   0  0  0  0  0  0  0  0  0  0  0  0
    3.6469  -10.0346   -3.6232 H   0  0  0  0  0  0  0  0  0  0  0  0
    2.6327   -8.1532   -2.3949 H   0  0  0  0  0  0  0  0  0  0  0  0
   -0.9715   -0.4024    0.0149 H   0  0  0  0  0  0  0  0  0  0  0  0
   -2.0712    0.9193   -0.3564 H   0  0  0  0  0  0  0  0  0  0  0  0
   -0.3696    2.6089    0.0677 H   0  0  0  0  0  0  0  0  0  0  0  0
    0.8796    1.3987    0.3062 H   0  0  0  0  0  0  0  0  0  0  0  0
   -0.4528    1.5361    1.4626 H   0  0  0  0  0  0  0  0  0  0  0  0
    1.0037   -0.6734    0.3814 H   0  0  0  0  0  0  0  0  0  0  0  0
    2.0930   -2.0052    0.7491 H   0  0  0  0  0  0  0  0  0  0  0  0
   -0.9221   -2.4395    0.4857 H   0  0  0  0  0  0  0  0  0  0  0  0
    0.2927   -3.5799    1.0532 H   0  0  0  0  0  0  0  0  0  0  0  0
   -0.0799   -2.1552    2.0177 H   0  0  0  0  0  0  0  0  0  0  0  0
    4.8856   -7.8688    0.5679 H   0  0  0  0  0  0  0  0  0  0  0  0
    3.1731   -5.3856    6.0972 H   0  0  0  0  0  0  0  0  0  0  0  0
    5.3024   -8.6192    7.9495 H   0  0  0  0  0  0  0  0  0  0  0  0
    5.9519   -9.5027    5.7584 H   0  0  0  0  0  0  0  0  0  0  0  0
  1  2  2  0  0  0  0
  2  3  1  0  0  0  0
  3  4  2  0  0  0  0
  3  5  1  0  0  0  0
  5  6  2  0  0  0  0
  6  7  1  0  0  0  0
  7  8  2  0  0  0  0
  8  9  1  0  0  0  0
  9 10  2  0  0  0  0
 10 11  1  0  0  0  0
 11 12  2  0  0  0  0
 12 13  1  0  0  0  0
 13 14  3  0  0  0  0
 12 15  1  0  0  0  0
 15 16  3  0  0  0  0
  8 17  1  0  0  0  0
 17 18  1  0  0  0  0
 18 19  1  0  0  0  0
 19 20  2  0  0  0  0
 20 21  1  0  0  0  0
 21 22  1  0  0  0  0
 21 23  1  0  0  0  0
  1 24  1  0  0  0  0
 24 25  2  0  0  0  0
 25 26  1  0  0  0  0
 26 27  2  0  0  0  0
 27 28  1  0  0  0  0
 28 29  2  0  0  0  0
 29 30  1  0  0  0  0
 30 31  2  0  0  0  0
 31 32  1  0  0  0  0
 32 33  1  0  0  0  0
 25 34  1  0  0  0  0
 34 35  1  0  0  0  0
 35 36  1  0  0  0  0
 36 37  1  0  0  0  0
 37 38  1  0  0  0  0
 38 39  1  0  0  0  0
 39 40  2  0  0  0  0
 40 41  1  0  0  0  0
 41 42  1  0  0  0  0
 39 43  1  0  0  0  0
 43 44  1  0  0  0  0
 44 45  1  0  0  0  0
 45 46  1  0  0  0  0
 46 47  1  0  0  0  0
 47 48  1  0  0  0  0
 48 49  2  0  0  0  0
 49 50  1  0  0  0  0
 50 51  1  0  0  0  0
 49 52  1  0  0  0  0
 52 53  2  0  0  0  0
 53 54  1  0  0  0  0
 54 55  2  0  0  0  0
 47 56  2  0  0  0  0
 56 57  1  0  0  0  0
 57 58  1  0  0  0  0
 58 59  1  0  0  0  0
 59 60  1  0  0  0  0
 60 61  1  0  0  0  0
 61 62  1  0  0  0  0
 62 63  1  0  0  0  0
 63 64  1  0  0  0  0
 64 65  1  0  0  0  0
 65 66  1  0  0  0  0
 63 67  1  0  0  0  0
 67 68  1  0  0  0  0
 60 69  1  0  0  0  0
 69 70  1  0  0  0  0
 56 71  1  0  0  0  0
 71 72  2  0  0  0  0
 72 73  1  0  0  0  0
 73 74  2  0  0  0  0
 73 75  1  0  0  0  0
 75 76  2  0  0  0  0
 76 77  1  0  0  0  0
 77 78  1  0  0  0  0
 78 79  1  0  0  0  0
 78 80  1  0  0  0  0
 78 81  1  0  0  0  0
 77 82  2  0  0  0  0
 82 83  1  0  0  0  0
 83 84  2  0  0  0  0
 84 85  1  0  0  0  0
 85 86  2  0  0  0  0
 86 87  1  0  0  0  0
 87 88  3  0  0  0  0
 86 89  1  0  0  0  0
 89 90  3  0  0  0  0
 11  2  1  0  0  0  0
 23 17  1  0  0  0  0
 66 24  1  0  0  0  0
 85 72  1  0  0  0  0
 10  5  1  0  0  0  0
 22 18  1  0  0  0  0
 31 26  1  0  0  0  0
 65 34  2  0  0  0  0
 84 75  1  0  0  0  0
 23  7  1  0  0  0  0
 64 36  2  0  0  0  0
 62 37  2  0  0  0  0
 42 38  2  0  0  0  0
 61 43  2  0  0  0  0
 59 44  2  0  0  0  0
 58 46  2  0  0  0  0
 55 48  1  0  0  0  0
  1 91  1  0  0  0  0
  6 92  1  0  0  0  0
  9 93  1  0  0  0  0
 17 94  1  0  0  0  0
 18 95  1  0  0  0  0
 19 96  1  0  0  0  0
 20 97  1  0  0  0  0
 21 98  1  0  0  0  0
 22 99  1  0  0  0  0
 22100  1  0  0  0  0
 23101  1  0  0  0  0
 27102  1  0  0  0  0
 28103  1  0  0  0  0
 29104  1  0  0  0  0
 30105  1  0  0  0  0
 32106  1  0  0  0  0
 32107  1  0  0  0  0
 33108  1  0  0  0  0
 33109  1  0  0  0  0
 33110  1  0  0  0  0
 50111  1  0  0  0  0
 50112  1  0  0  0  0
 51113  1  0  0  0  0
 51114  1  0  0  0  0
 51115  1  0  0  0  0
 52116  1  0  0  0  0
 53117  1  0  0  0  0
 54118  1  0  0  0  0
 55119  1  0  0  0  0
 67120  1  0  0  0  0
 67121  1  0  0  0  0
 68122  1  0  0  0  0
 68123  1  0  0  0  0
 68124  1  0  0  0  0
 69125  1  0  0  0  0
 69126  1  0  0  0  0
 70127  1  0  0  0  0
 70128  1  0  0  0  0
 70129  1  0  0  0  0
 71130  1  0  0  0  0
 76131  1  0  0  0  0
 82132  1  0  0  0  0
 83133  1  0  0  0  0
M  END
