
  xtb     02102223033D
 energy: -180.777458756783 gnorm: 0.000344453108 xtb: 6.4.1 (unknown)
 92104  0     0  0            999 V2000
    2.8923    4.1851    1.9899 C   0  0  0  0  0  0  0  0  0  0  0  0
    1.8423    4.9483    2.4219 C   0  0  0  0  0  0  0  0  0  0  0  0
    0.4217    4.5419    2.5362 C   0  0  0  0  0  0  0  0  0  0  0  0
   -0.1302    3.5567    2.0845 O   0  0  0  0  0  0  0  0  0  0  0  0
   -0.2199    5.5592    3.3852 C   0  0  0  0  0  0  0  0  0  0  0  0
   -1.5470    5.5614    3.8114 C   0  0  0  0  0  0  0  0  0  0  0  0
   -1.8752    6.6306    4.6080 C   0  0  0  0  0  0  0  0  0  0  0  0
   -0.9503    7.6229    4.9620 C   0  0  0  0  0  0  0  0  0  0  0  0
    0.3587    7.6363    4.5422 C   0  0  0  0  0  0  0  0  0  0  0  0
    0.7130    6.5582    3.7242 C   0  0  0  0  0  0  0  0  0  0  0  0
    1.9846    6.2349    3.0846 C   0  0  0  0  0  0  0  0  0  0  0  0
    3.0889    7.0449    3.0521 C   0  0  0  0  0  0  0  0  0  0  0  0
    4.2711    6.7808    2.3272 C   0  0  0  0  0  0  0  0  0  0  0  0
    5.2523    6.6572    1.7436 N   0  0  0  0  0  0  0  0  0  0  0  0
    3.1822    8.2905    3.7081 C   0  0  0  0  0  0  0  0  0  0  0  0
    3.3296    9.3059    4.2229 N   0  0  0  0  0  0  0  0  0  0  0  0
   -1.9580    8.3754    5.7953 C   0  0  0  0  0  0  0  0  0  0  0  0
   -1.8541    8.2043    7.3259 C   0  0  0  0  0  0  0  0  0  0  0  0
   -3.2108    8.6403    7.8308 C   0  0  0  0  0  0  0  0  0  0  0  0
   -4.0882    7.7049    7.4904 C   0  0  0  0  0  0  0  0  0  0  0  0
   -3.3393    6.6208    6.7495 C   0  0  0  0  0  0  0  0  0  0  0  0
   -1.9919    6.6841    7.4804 C   0  0  0  0  0  0  0  0  0  0  0  0
   -2.9899    7.2726    5.3948 C   0  0  0  0  0  0  0  0  0  0  0  0
    2.8655    2.9334    1.3408 C   0  0  0  0  0  0  0  0  0  0  0  0
    4.3267    1.9339    1.4515 S   0  0  0  0  0  0  0  0  0  0  0  0
    3.5262    0.6630    0.6314 C   0  0  0  0  0  0  0  0  0  0  0  0
    3.7154   -0.6769    0.2568 C   0  0  0  0  0  0  0  0  0  0  0  0
    4.7414   -1.6165    0.5126 C   0  0  0  0  0  0  0  0  0  0  0  0
    4.5307   -2.9981    0.1670 C   0  0  0  0  0  0  0  0  0  0  0  0
    5.5367   -3.7693    0.5464 N   0  0  0  0  0  0  0  0  0  0  0  0
    6.6556   -2.8462    1.2619 S   0  0  0  0  0  0  0  0  0  0  0  0
    5.8989   -1.4238    1.1243 N   0  0  0  0  0  0  0  0  0  0  0  0
    3.3668   -3.3614   -0.5499 C   0  0  0  0  0  0  0  0  0  0  0  0
    2.9048   -4.5719   -1.0884 C   0  0  0  0  0  0  0  0  0  0  0  0
    1.7317   -4.2883   -1.8195 C   0  0  0  0  0  0  0  0  0  0  0  0
    1.4530   -2.9430   -1.7413 N   0  0  0  0  0  0  0  0  0  0  0  0
    0.7149   -2.2742   -2.7952 C   0  0  0  0  0  0  0  0  0  0  0  0
    1.3510   -2.5240   -4.1623 C   0  0  0  0  0  0  0  0  0  0  0  0
    2.4139   -2.3755   -0.9281 C   0  0  0  0  0  0  0  0  0  0  0  0
    2.5130   -1.0776   -0.3881 C   0  0  0  0  0  0  0  0  0  0  0  0
    1.6018   -0.0395   -0.3625 N   0  0  0  0  0  0  0  0  0  0  0  0
    2.2195    1.0231    0.2517 C   0  0  0  0  0  0  0  0  0  0  0  0
    1.8529    2.3087    0.6328 C   0  0  0  0  0  0  0  0  0  0  0  0
    0.1566   -0.1710   -0.3326 C   0  0  0  0  0  0  0  0  0  0  0  0
   -0.3979   -0.0057    1.0825 C   0  0  0  0  0  0  0  0  0  0  0  0
    1.1367   -5.4015   -2.3930 C   0  0  0  0  0  0  0  0  0  0  0  0
    1.8429   -6.5616   -2.0968 C   0  0  0  0  0  0  0  0  0  0  0  0
    3.2923   -6.2346   -1.1226 S   0  0  0  0  0  0  0  0  0  0  0  0
    1.6030   -7.9090   -2.4113 C   0  0  0  0  0  0  0  0  0  0  0  0
    0.5152   -8.5285   -2.9715 C   0  0  0  0  0  0  0  0  0  0  0  0
   -0.7936   -7.9624   -3.3438 C   0  0  0  0  0  0  0  0  0  0  0  0
   -1.1087   -6.8017   -3.4979 O   0  0  0  0  0  0  0  0  0  0  0  0
   -1.7003   -9.1288   -3.4854 C   0  0  0  0  0  0  0  0  0  0  0  0
   -3.0716   -9.1364   -3.6718 C   0  0  0  0  0  0  0  0  0  0  0  0
   -3.9468   -7.6955   -3.9320 Cl  0  0  0  0  0  0  0  0  0  0  0  0
   -3.7403  -10.3680   -3.6284 C   0  0  0  0  0  0  0  0  0  0  0  0
   -5.4308  -10.4297   -3.8786 Cl  0  0  0  0  0  0  0  0  0  0  0  0
   -3.0377  -11.5364   -3.3375 C   0  0  0  0  0  0  0  0  0  0  0  0
   -3.8906  -13.0114   -3.1894 Cl  0  0  0  0  0  0  0  0  0  0  0  0
   -1.6461  -11.5224   -3.1485 C   0  0  0  0  0  0  0  0  0  0  0  0
   -0.8770  -12.9635   -2.6261 Cl  0  0  0  0  0  0  0  0  0  0  0  0
   -0.9701  -10.3181   -3.2932 C   0  0  0  0  0  0  0  0  0  0  0  0
    0.4432   -9.9656   -3.1988 C   0  0  0  0  0  0  0  0  0  0  0  0
    1.5066  -10.7710   -3.5023 C   0  0  0  0  0  0  0  0  0  0  0  0
    2.8566  -10.3506   -3.4745 C   0  0  0  0  0  0  0  0  0  0  0  0
    3.9743  -10.0904   -3.4823 N   0  0  0  0  0  0  0  0  0  0  0  0
    1.4263  -12.0637   -4.0659 C   0  0  0  0  0  0  0  0  0  0  0  0
    1.4678  -13.0711   -4.6134 N   0  0  0  0  0  0  0  0  0  0  0  0
    3.8892    4.5334    2.2338 H   0  0  0  0  0  0  0  0  0  0  0  0
   -2.2245    4.7756    3.5158 H   0  0  0  0  0  0  0  0  0  0  0  0
    1.0568    8.4075    4.8217 H   0  0  0  0  0  0  0  0  0  0  0  0
   -2.1493    9.4036    5.4944 H   0  0  0  0  0  0  0  0  0  0  0  0
   -0.9877    8.6781    7.7789 H   0  0  0  0  0  0  0  0  0  0  0  0
   -3.3959    9.5791    8.3187 H   0  0  0  0  0  0  0  0  0  0  0  0
   -5.1523    7.7060    7.6367 H   0  0  0  0  0  0  0  0  0  0  0  0
   -3.8255    5.6516    6.6770 H   0  0  0  0  0  0  0  0  0  0  0  0
   -2.0752    6.3826    8.5232 H   0  0  0  0  0  0  0  0  0  0  0  0
   -1.1986    6.1148    6.9994 H   0  0  0  0  0  0  0  0  0  0  0  0
   -3.8686    7.5648    4.8229 H   0  0  0  0  0  0  0  0  0  0  0  0
   -0.3160   -2.6418   -2.7928 H   0  0  0  0  0  0  0  0  0  0  0  0
    0.7203   -1.2022   -2.6046 H   0  0  0  0  0  0  0  0  0  0  0  0
    0.7985   -1.9789   -4.9226 H   0  0  0  0  0  0  0  0  0  0  0  0
    2.3828   -2.1790   -4.1666 H   0  0  0  0  0  0  0  0  0  0  0  0
    1.3360   -3.5806   -4.4137 H   0  0  0  0  0  0  0  0  0  0  0  0
    0.9186    2.7824    0.4063 H   0  0  0  0  0  0  0  0  0  0  0  0
   -0.1092   -1.1651   -0.6876 H   0  0  0  0  0  0  0  0  0  0  0  0
   -0.2828    0.5820   -0.9946 H   0  0  0  0  0  0  0  0  0  0  0  0
    0.0913   -0.7030    1.7596 H   0  0  0  0  0  0  0  0  0  0  0  0
   -1.4631   -0.2204    1.0742 H   0  0  0  0  0  0  0  0  0  0  0  0
   -0.2540    1.0036    1.4561 H   0  0  0  0  0  0  0  0  0  0  0  0
    0.2338   -5.4076   -2.9739 H   0  0  0  0  0  0  0  0  0  0  0  0
    2.4026   -8.5670   -2.0905 H   0  0  0  0  0  0  0  0  0  0  0  0
  1  2  2  0  0  0  0
  2  3  1  0  0  0  0
  3  4  2  0  0  0  0
  3  5  1  0  0  0  0
  5  6  2  0  0  0  0
  6  7  1  0  0  0  0
  7  8  2  0  0  0  0
  8  9  1  0  0  0  0
  9 10  2  0  0  0  0
 10 11  1  0  0  0  0
 11 12  2  0  0  0  0
 12 13  1  0  0  0  0
 13 14  3  0  0  0  0
 12 15  1  0  0  0  0
 15 16  3  0  0  0  0
  8 17  1  0  0  0  0
 17 18  1  0  0  0  0
 18 19  1  0  0  0  0
 19 20  2  0  0  0  0
 20 21  1  0  0  0  0
 21 22  1  0  0  0  0
 21 23  1  0  0  0  0
  1 24  1  0  0  0  0
 24 25  1  0  0  0  0
 25 26  1  0  0  0  0
 26 27  1  0  0  0  0
 27 28  1  0  0  0  0
 28 29  1  0  0  0  0
 29 30  2  0  0  0  0
 30 31  1  0  0  0  0
 31 32  1  0  0  0  0
 29 33  1  0  0  0  0
 33 34  1  0  0  0  0
 34 35  2  0  0  0  0
 35 36  1  0  0  0  0
 36 37  1  0  0  0  0
 37 38  1  0  0  0  0
 36 39  1  0  0  0  0
 39 40  1  0  0  0  0
 40 41  1  0  0  0  0
 41 42  1  0  0  0  0
 42 43  1  0  0  0  0
 41 44  1  0  0  0  0
 44 45  1  0  0  0  0
 35 46  1  0  0  0  0
 46 47  2  0  0  0  0
 47 48  1  0  0  0  0
 47 49  1  0  0  0  0
 49 50  2  0  0  0  0
 50 51  1  0  0  0  0
 51 52  2  0  0  0  0
 51 53  1  0  0  0  0
 53 54  2  0  0  0  0
 54 55  1  0  0  0  0
 54 56  1  0  0  0  0
 56 57  1  0  0  0  0
 56 58  2  0  0  0  0
 58 59  1  0  0  0  0
 58 60  1  0  0  0  0
 60 61  1  0  0  0  0
 60 62  2  0  0  0  0
 62 63  1  0  0  0  0
 63 64  2  0  0  0  0
 64 65  1  0  0  0  0
 65 66  3  0  0  0  0
 64 67  1  0  0  0  0
 67 68  3  0  0  0  0
 11  2  1  0  0  0  0
 23 17  1  0  0  0  0
 43 24  2  0  0  0  0
 63 50  1  0  0  0  0
 10  5  1  0  0  0  0
 22 18  1  0  0  0  0
 42 26  2  0  0  0  0
 62 53  1  0  0  0  0
 23  7  1  0  0  0  0
 40 27  2  0  0  0  0
 32 28  2  0  0  0  0
 39 33  2  0  0  0  0
 48 34  1  0  0  0  0
  1 69  1  0  0  0  0
  6 70  1  0  0  0  0
  9 71  1  0  0  0  0
 17 72  1  0  0  0  0
 18 73  1  0  0  0  0
 19 74  1  0  0  0  0
 20 75  1  0  0  0  0
 21 76  1  0  0  0  0
 22 77  1  0  0  0  0
 22 78  1  0  0  0  0
 23 79  1  0  0  0  0
 37 80  1  0  0  0  0
 37 81  1  0  0  0  0
 38 82  1  0  0  0  0
 38 83  1  0  0  0  0
 38 84  1  0  0  0  0
 43 85  1  0  0  0  0
 44 86  1  0  0  0  0
 44 87  1  0  0  0  0
 45 88  1  0  0  0  0
 45 89  1  0  0  0  0
 45 90  1  0  0  0  0
 46 91  1  0  0  0  0
 49 92  1  0  0  0  0
M  END
