101

C         -3.09950        4.86230       -2.28660
C         -2.40630        6.03360       -2.44030
C         -1.01870        6.36450       -2.04650
O         -0.12380        5.62100       -1.68750
C         -0.89910        7.82710       -2.17090
C          0.20770        8.60020       -1.82670
C          0.02890        9.94840       -2.01840
C         -1.16380       10.48920       -2.51820
C         -2.25780        9.73640       -2.87300
C         -2.09610        8.36050       -2.68570
C         -3.01740        7.25720       -2.94170
C         -4.21030        7.36850       -3.60700
C         -4.74070        8.58370       -4.09060
N         -5.23640        9.53080       -4.50970
C         -5.06900        6.30550       -3.96210
N         -5.81640        5.50690       -4.31320
C         -0.65400       11.90520       -2.42380
C         -1.15540       12.77320       -1.24300
C         -1.51100       11.81980       -0.12940
C         -0.38160       11.30810        0.34170
C          0.75820       11.90630       -0.44530
C          0.18930       13.30670       -0.72340
C          0.67530       11.30250       -1.86930
C         -2.71490        3.59660       -1.80210
Se        -4.10220        2.27600       -1.61410
C         -2.76940        1.17190       -0.98410
C         -2.59250       -0.10270       -0.43070
C         -3.53470       -1.07450       -0.02990
C         -3.08970       -2.20930        0.72610
N         -4.09330       -2.98370        1.10790
S         -5.47470       -2.34610        0.55730
N         -4.84840       -1.05060       -0.18600
C         -1.70160       -2.39090        0.92440
C         -0.96830       -3.42170        1.53050
S         -1.24050       -4.87460        2.42140
C          0.49090       -5.13600        2.50550
C          1.27970       -6.15500        3.05020
C          0.76860       -7.27130        3.89270
C         -0.36350       -6.86380        4.83060
C          2.63730       -5.92200        2.80000
S          2.91290       -4.38890        1.96370
C          1.21910       -4.11850        1.86270
C          0.38770       -3.14170        1.31680
N          0.52480       -1.96610        0.62230
C         -0.74860       -1.47210        0.39640
C         -1.20500       -0.25030       -0.15490
N         -0.56560        0.92680       -0.48460
C         -1.50530        1.79440       -0.98490
C         -1.47300        3.11500       -1.42090
C          0.72290        1.42360       -0.05080
C          1.66650        1.69530       -1.22300
C          1.71690       -1.76070       -0.17350
C          1.81870       -2.80100       -1.28880
C          3.79020       -6.62990        3.16660
C          3.93060       -7.98860        3.33600
C          3.06410       -9.00140        2.70790
O          2.08490       -8.81910        2.01900
C          3.72670      -10.30250        2.98440
C          4.92240      -10.08640        3.69130
C          5.73270      -11.15000        4.04950
C          5.32540      -12.42820        3.69460
F          6.09050      -13.47010        4.02970
C          4.14100      -12.66060        2.99940
F          3.78000      -13.90720        2.68320
C          3.33260      -11.58120        2.63510
F          2.20040      -11.80710        1.97480
C          5.06650       -8.64970        3.93110
C          6.06150       -8.06040        4.66900
C          7.14600       -8.75750        5.24030
N          8.05430       -9.26820        5.72140
C          6.12220       -6.68530        4.97970
N          6.22520       -5.58570        5.29420
H         -4.15140        4.90610       -2.55040
H          1.10550        8.14200       -1.44200
H         -3.16740       10.16930       -3.25370
H         -0.61240       12.46070       -3.35840
H         -1.91460       13.50310       -1.51050
H         -2.51890       11.57990        0.15460
H         -0.25760       10.55490        1.09780
H          1.74160       11.84740        0.01380
H          0.75310       13.86380       -1.47040
H          0.08400       13.90530        0.18010
H          1.58610       11.46390       -2.44270
H          1.59900       -7.67590        4.47700
H          0.42500       -8.07130        3.22760
H         -1.26880       -6.62600        4.27990
H         -0.07790       -5.99810        5.42410
H         -0.58510       -7.68630        5.50560
H         -0.59660        3.73580       -1.46160
H          1.15260        0.71670        0.66030
H          0.55250        2.36470        0.48420
H          1.32810        2.55730       -1.79010
H          1.71570        0.84850       -1.90450
H          2.66510        1.90300       -0.84830
H          1.69350       -0.77400       -0.62040
H          2.58370       -1.83880        0.48980
H          0.94230       -2.75070       -1.93170
H          2.70360       -2.60660       -1.88810
H          1.89300       -3.80540       -0.88120
H          4.68090       -6.02110        3.27450
H          6.65970      -11.02910        4.58500
