
  xtb     02022208283D
 energy: -183.760137880845 gnorm: 0.000896045253 xtb: 6.4.1 (unknown)
 98112  0     0  0            999 V2000
   -5.8813   -2.9558    1.0304 C   0  0  0  0  0  0  0  0  0  0  0  0
   -6.6979   -2.0407    1.6472 C   0  0  0  0  0  0  0  0  0  0  0  0
   -6.3123   -0.6873    2.0270 C   0  0  0  0  0  0  0  0  0  0  0  0
   -5.2141   -0.1622    1.8722 O   0  0  0  0  0  0  0  0  0  0  0  0
   -7.4937   -0.0613    2.6335 C   0  0  0  0  0  0  0  0  0  0  0  0
   -7.6008    1.2352    3.1341 C   0  0  0  0  0  0  0  0  0  0  0  0
   -8.8431    1.5387    3.6375 C   0  0  0  0  0  0  0  0  0  0  0  0
   -9.9021    0.6213    3.6402 C   0  0  0  0  0  0  0  0  0  0  0  0
   -9.8109   -0.6593    3.1470 C   0  0  0  0  0  0  0  0  0  0  0  0
   -8.5547   -0.9915    2.6325 C   0  0  0  0  0  0  0  0  0  0  0  0
   -8.0842   -2.2377    2.0270 C   0  0  0  0  0  0  0  0  0  0  0  0
   -8.8361   -3.3720    1.8650 C   0  0  0  0  0  0  0  0  0  0  0  0
   -8.3950   -4.5779    1.2799 C   0  0  0  0  0  0  0  0  0  0  0  0
   -8.1203   -5.5922    0.8155 N   0  0  0  0  0  0  0  0  0  0  0  0
  -10.1812   -3.5059    2.2704 C   0  0  0  0  0  0  0  0  0  0  0  0
  -11.2733   -3.6941    2.5711 N   0  0  0  0  0  0  0  0  0  0  0  0
  -10.8498    1.5938    4.2957 C   0  0  0  0  0  0  0  0  0  0  0  0
  -11.1186    1.3862    5.8014 C   0  0  0  0  0  0  0  0  0  0  0  0
  -11.6682    2.7190    6.2562 C   0  0  0  0  0  0  0  0  0  0  0  0
  -10.6675    3.5901    6.2533 C   0  0  0  0  0  0  0  0  0  0  0  0
   -9.4243    2.8609    5.7966 C   0  0  0  0  0  0  0  0  0  0  0  0
   -9.7025    1.4719    6.3856 C   0  0  0  0  0  0  0  0  0  0  0  0
   -9.6696    2.6179    4.2922 C   0  0  0  0  0  0  0  0  0  0  0  0
   -4.5421   -2.8584    0.6270 C   0  0  0  0  0  0  0  0  0  0  0  0
   -3.9081   -3.9299   -0.0053 C   0  0  0  0  0  0  0  0  0  0  0  0
   -2.5911   -3.7082   -0.3611 C   0  0  0  0  0  0  0  0  0  0  0  0
   -1.4490   -4.7526   -1.1869 S   0  0  0  0  0  0  0  0  0  0  0  0
   -0.2793   -3.4848   -1.0984 C   0  0  0  0  0  0  0  0  0  0  0  0
    1.0265   -3.2172   -1.5243 C   0  0  0  0  0  0  0  0  0  0  0  0
    1.9040   -3.9831   -2.3232 C   0  0  0  0  0  0  0  0  0  0  0  0
    3.1412   -3.3981   -2.7439 C   0  0  0  0  0  0  0  0  0  0  0  0
    3.8376   -4.1989   -3.5349 N   0  0  0  0  0  0  0  0  0  0  0  0
    3.0079   -5.5755   -3.7279 S   0  0  0  0  0  0  0  0  0  0  0  0
    1.7271   -5.2001   -2.8125 N   0  0  0  0  0  0  0  0  0  0  0  0
    3.4863   -2.1170   -2.2596 C   0  0  0  0  0  0  0  0  0  0  0  0
    4.6500   -1.3597   -2.4412 C   0  0  0  0  0  0  0  0  0  0  0  0
    4.5195   -0.2126   -1.6475 C   0  0  0  0  0  0  0  0  0  0  0  0
    3.3073   -0.2241   -1.0075 N   0  0  0  0  0  0  0  0  0  0  0  0
    3.0895    0.6590    0.1154 C   0  0  0  0  0  0  0  0  0  0  0  0
    3.1135   -0.1008    1.4389 C   0  0  0  0  0  0  0  0  0  0  0  0
    2.6402   -1.3818   -1.3769 C   0  0  0  0  0  0  0  0  0  0  0  0
    1.3483   -1.8966   -1.0866 C   0  0  0  0  0  0  0  0  0  0  0  0
    0.2417   -1.3820   -0.4318 N   0  0  0  0  0  0  0  0  0  0  0  0
   -0.7440   -2.3327   -0.4528 C   0  0  0  0  0  0  0  0  0  0  0  0
   -2.0734   -2.4387   -0.0301 C   0  0  0  0  0  0  0  0  0  0  0  0
   -3.3632   -1.3820    0.8161 Se  0  0  0  0  0  2  0  0  0  0  0  0
   -0.0995   -0.0231   -0.0805 C   0  0  0  0  0  0  0  0  0  0  0  0
   -0.1626    0.8755   -1.3127 C   0  0  0  0  0  0  0  0  0  0  0  0
    5.6358    0.6235   -1.7313 C   0  0  0  0  0  0  0  0  0  0  0  0
    6.6030    0.0939   -2.6148 C   0  0  0  0  0  0  0  0  0  0  0  0
    6.1350   -1.4398   -3.3169 S   0  0  0  0  0  0  0  0  0  0  0  0
    7.7514    0.8497   -2.8027 C   0  0  0  0  0  0  0  0  0  0  0  0
    7.7829    2.0335   -2.0831 C   0  0  0  0  0  0  0  0  0  0  0  0
    6.2057    2.2456   -1.0205 Se  0  0  0  0  0  2  0  0  0  0  0  0
    8.7316    3.0639   -1.9879 C   0  0  0  0  0  0  0  0  0  0  0  0
    9.9092    3.2985   -2.6522 C   0  0  0  0  0  0  0  0  0  0  0  0
   10.4932    2.5539   -3.7863 C   0  0  0  0  0  0  0  0  0  0  0  0
   10.1354    1.5048   -4.2807 O   0  0  0  0  0  0  0  0  0  0  0  0
   11.6452    3.3638   -4.2416 C   0  0  0  0  0  0  0  0  0  0  0  0
   12.4860    3.1193   -5.3082 C   0  0  0  0  0  0  0  0  0  0  0  0
   13.4913    4.0470   -5.5353 C   0  0  0  0  0  0  0  0  0  0  0  0
   14.3346    3.8553   -6.5632 F   0  0  0  0  0  0  0  0  0  0  0  0
   13.6577    5.1714   -4.7404 C   0  0  0  0  0  0  0  0  0  0  0  0
   12.8071    5.4013   -3.6698 C   0  0  0  0  0  0  0  0  0  0  0  0
   11.7920    4.4897   -3.4154 C   0  0  0  0  0  0  0  0  0  0  0  0
   10.7565    4.4490   -2.3847 C   0  0  0  0  0  0  0  0  0  0  0  0
   10.6642    5.3252   -1.3337 C   0  0  0  0  0  0  0  0  0  0  0  0
   11.5350    6.4182   -1.1364 C   0  0  0  0  0  0  0  0  0  0  0  0
   12.1972    7.3294   -0.9155 N   0  0  0  0  0  0  0  0  0  0  0  0
    9.7299    5.2694   -0.2774 C   0  0  0  0  0  0  0  0  0  0  0  0
    9.0238    5.2967    0.6288 N   0  0  0  0  0  0  0  0  0  0  0  0
   -6.3196   -3.9207    0.8022 H   0  0  0  0  0  0  0  0  0  0  0  0
   -6.7604    1.9109    3.1067 H   0  0  0  0  0  0  0  0  0  0  0  0
  -10.6389   -1.3478    3.1523 H   0  0  0  0  0  0  0  0  0  0  0  0
  -11.7495    1.8323    3.7319 H   0  0  0  0  0  0  0  0  0  0  0  0
  -11.7078    0.5054    6.0410 H   0  0  0  0  0  0  0  0  0  0  0  0
  -12.7049    2.8977    6.4727 H   0  0  0  0  0  0  0  0  0  0  0  0
  -10.7014    4.6424    6.4666 H   0  0  0  0  0  0  0  0  0  0  0  0
   -8.4705    3.3245    6.0340 H   0  0  0  0  0  0  0  0  0  0  0  0
   -9.0277    0.6955    6.0300 H   0  0  0  0  0  0  0  0  0  0  0  0
   -9.7067    1.4799    7.4742 H   0  0  0  0  0  0  0  0  0  0  0  0
   -9.7817    3.5397    3.7245 H   0  0  0  0  0  0  0  0  0  0  0  0
   -4.4220   -4.8560   -0.2009 H   0  0  0  0  0  0  0  0  0  0  0  0
    3.9108    1.3848    0.1052 H   0  0  0  0  0  0  0  0  0  0  0  0
    2.1665    1.2247   -0.0117 H   0  0  0  0  0  0  0  0  0  0  0  0
    2.9325    0.5836    2.2631 H   0  0  0  0  0  0  0  0  0  0  0  0
    4.0864   -0.5650    1.5825 H   0  0  0  0  0  0  0  0  0  0  0  0
    2.3590   -0.8840    1.4580 H   0  0  0  0  0  0  0  0  0  0  0  0
    0.5879    0.3650    0.6707 H   0  0  0  0  0  0  0  0  0  0  0  0
   -1.0914   -0.0607    0.3855 H   0  0  0  0  0  0  0  0  0  0  0  0
   -0.4030    1.8931   -1.0176 H   0  0  0  0  0  0  0  0  0  0  0  0
   -0.9369    0.5208   -1.9889 H   0  0  0  0  0  0  0  0  0  0  0  0
    0.7833    0.8759   -1.8500 H   0  0  0  0  0  0  0  0  0  0  0  0
    8.5544    0.5579   -3.4568 H   0  0  0  0  0  0  0  0  0  0  0  0
    8.4537    3.8226   -1.2629 H   0  0  0  0  0  0  0  0  0  0  0  0
   12.3656    2.2501   -5.9347 H   0  0  0  0  0  0  0  0  0  0  0  0
   14.4549    5.8616   -4.9670 H   0  0  0  0  0  0  0  0  0  0  0  0
   12.9454    6.2800   -3.0623 H   0  0  0  0  0  0  0  0  0  0  0  0
  1  2  2  0  0  0  0
  2  3  1  0  0  0  0
  3  4  2  0  0  0  0
  3  5  1  0  0  0  0
  5  6  2  0  0  0  0
  6  7  1  0  0  0  0
  7  8  2  0  0  0  0
  8  9  1  0  0  0  0
  9 10  2  0  0  0  0
 10 11  1  0  0  0  0
 11 12  2  0  0  0  0
 12 13  1  0  0  0  0
 13 14  3  0  0  0  0
 12 15  1  0  0  0  0
 15 16  3  0  0  0  0
  8 17  1  0  0  0  0
 17 18  1  0  0  0  0
 18 19  1  0  0  0  0
 19 20  2  0  0  0  0
 20 21  1  0  0  0  0
 21 22  1  0  0  0  0
 21 23  1  0  0  0  0
  1 24  1  0  0  0  0
 24 25  2  0  0  0  0
 25 26  1  0  0  0  0
 26 27  1  0  0  0  0
 27 28  1  0  0  0  0
 28 29  1  0  0  0  0
 29 30  1  0  0  0  0
 30 31  1  0  0  0  0
 31 32  2  0  0  0  0
 32 33  1  0  0  0  0
 33 34  1  0  0  0  0
 31 35  1  0  0  0  0
 35 36  1  0  0  0  0
 36 37  2  0  0  0  0
 37 38  1  0  0  0  0
 38 39  1  0  0  0  0
 39 40  1  0  0  0  0
 38 41  1  0  0  0  0
 41 42  1  0  0  0  0
 42 43  1  0  0  0  0
 43 44  1  0  0  0  0
 44 45  1  0  0  0  0
 45 46  1  0  0  0  0
 43 47  1  0  0  0  0
 47 48  1  0  0  0  0
 37 49  1  0  0  0  0
 49 50  2  0  0  0  0
 50 51  1  0  0  0  0
 50 52  1  0  0  0  0
 52 53  2  0  0  0  0
 53 54  1  0  0  0  0
 53 55  1  0  0  0  0
 55 56  2  0  0  0  0
 56 57  1  0  0  0  0
 57 58  2  0  0  0  0
 57 59  1  0  0  0  0
 59 60  2  0  0  0  0
 60 61  1  0  0  0  0
 61 62  1  0  0  0  0
 61 63  2  0  0  0  0
 63 64  1  0  0  0  0
 64 65  2  0  0  0  0
 65 66  1  0  0  0  0
 66 67  2  0  0  0  0
 67 68  1  0  0  0  0
 68 69  3  0  0  0  0
 67 70  1  0  0  0  0
 70 71  3  0  0  0  0
 11  2  1  0  0  0  0
 23 17  1  0  0  0  0
 46 24  1  0  0  0  0
 54 49  1  0  0  0  0
 66 56  1  0  0  0  0
 10  5  1  0  0  0  0
 22 18  1  0  0  0  0
 45 26  2  0  0  0  0
 65 59  1  0  0  0  0
 23  7  1  0  0  0  0
 44 28  2  0  0  0  0
 42 29  2  0  0  0  0
 34 30  2  0  0  0  0
 41 35  2  0  0  0  0
 51 36  1  0  0  0  0
  1 72  1  0  0  0  0
  6 73  1  0  0  0  0
  9 74  1  0  0  0  0
 17 75  1  0  0  0  0
 18 76  1  0  0  0  0
 19 77  1  0  0  0  0
 20 78  1  0  0  0  0
 21 79  1  0  0  0  0
 22 80  1  0  0  0  0
 22 81  1  0  0  0  0
 23 82  1  0  0  0  0
 25 83  1  0  0  0  0
 39 84  1  0  0  0  0
 39 85  1  0  0  0  0
 40 86  1  0  0  0  0
 40 87  1  0  0  0  0
 40 88  1  0  0  0  0
 47 89  1  0  0  0  0
 47 90  1  0  0  0  0
 48 91  1  0  0  0  0
 48 92  1  0  0  0  0
 48 93  1  0  0  0  0
 52 94  1  0  0  0  0
 55 95  1  0  0  0  0
 60 96  1  0  0  0  0
 63 97  1  0  0  0  0
 64 98  1  0  0  0  0
M  END
