
  xtb     02012222053D
 energy: -210.233229331089 gnorm: 0.000464492832 xtb: 6.4.1 (unknown)
123140  0     0  0            999 V2000
   -4.2193    1.1990   -7.5293 C   0  0  0  0  0  0  0  0  0  0  0  0
   -5.2362    1.7295   -6.7932 C   0  0  0  0  0  0  0  0  0  0  0  0
   -6.0833    2.7995   -7.3802 C   0  0  0  0  0  0  0  0  0  0  0  0
   -6.1737    3.0939   -8.5515 O   0  0  0  0  0  0  0  0  0  0  0  0
   -6.7260    3.4607   -6.2261 C   0  0  0  0  0  0  0  0  0  0  0  0
   -7.5094    4.6130   -6.2413 C   0  0  0  0  0  0  0  0  0  0  0  0
   -7.9426    5.0123   -4.9995 C   0  0  0  0  0  0  0  0  0  0  0  0
   -7.6172    4.3239   -3.8228 C   0  0  0  0  0  0  0  0  0  0  0  0
   -6.8514    3.1827   -3.7917 C   0  0  0  0  0  0  0  0  0  0  0  0
   -6.4073    2.7565   -5.0458 C   0  0  0  0  0  0  0  0  0  0  0  0
   -5.6210    1.5806   -5.4087 C   0  0  0  0  0  0  0  0  0  0  0  0
   -5.5153    0.4334   -4.6639 C   0  0  0  0  0  0  0  0  0  0  0  0
   -5.0416   -0.7838   -5.1965 C   0  0  0  0  0  0  0  0  0  0  0  0
   -4.7152   -1.8038   -5.6106 N   0  0  0  0  0  0  0  0  0  0  0  0
   -5.9327    0.3124   -3.3257 C   0  0  0  0  0  0  0  0  0  0  0  0
   -6.2162    0.1656   -2.2222 N   0  0  0  0  0  0  0  0  0  0  0  0
   -8.3836    5.2876   -2.9517 C   0  0  0  0  0  0  0  0  0  0  0  0
   -9.7579    4.8075   -2.4391 C   0  0  0  0  0  0  0  0  0  0  0  0
  -10.4629    6.0850   -2.0442 C   0  0  0  0  0  0  0  0  0  0  0  0
  -10.7748    6.7346   -3.1584 C   0  0  0  0  0  0  0  0  0  0  0  0
  -10.2859    5.9070   -4.3252 C   0  0  0  0  0  0  0  0  0  0  0  0
  -10.4882    4.4983   -3.7524 C   0  0  0  0  0  0  0  0  0  0  0  0
   -8.7506    6.0525   -4.2638 C   0  0  0  0  0  0  0  0  0  0  0  0
   -3.0456    0.5486   -7.0963 C   0  0  0  0  0  0  0  0  0  0  0  0
   -2.1141   -0.1023   -7.8981 C   0  0  0  0  0  0  0  0  0  0  0  0
   -2.2282   -0.3053   -9.3731 C   0  0  0  0  0  0  0  0  0  0  0  0
   -1.5163    0.8230  -10.1231 C   0  0  0  0  0  0  0  0  0  0  0  0
   -1.0128   -0.5471   -7.1614 C   0  0  0  0  0  0  0  0  0  0  0  0
    0.5670   -1.4769   -7.6419 Se  0  0  0  0  0  2  0  0  0  0  0  0
    0.9763   -1.3736   -5.8312 C   0  0  0  0  0  0  0  0  0  0  0  0
    1.9971   -1.7530   -4.9545 C   0  0  0  0  0  0  0  0  0  0  0  0
    3.2408   -2.3500   -5.2466 C   0  0  0  0  0  0  0  0  0  0  0  0
    4.1690   -2.5502   -4.1810 C   0  0  0  0  0  0  0  0  0  0  0  0
    5.3103   -3.0813   -4.5896 N   0  0  0  0  0  0  0  0  0  0  0  0
    5.2168   -3.3107   -6.1928 S   0  0  0  0  0  0  0  0  0  0  0  0
    3.7160   -2.7373   -6.4197 N   0  0  0  0  0  0  0  0  0  0  0  0
    3.7746   -2.2111   -2.8702 C   0  0  0  0  0  0  0  0  0  0  0  0
    4.4661   -2.3867   -1.6691 C   0  0  0  0  0  0  0  0  0  0  0  0
    6.1212   -3.0000   -1.0816 Se  0  0  0  0  0  2  0  0  0  0  0  0
    5.4342   -2.6378    0.6529 C   0  0  0  0  0  0  0  0  0  0  0  0
    5.9716   -2.7892    1.9244 C   0  0  0  0  0  0  0  0  0  0  0  0
    7.3730   -3.2576    2.1450 C   0  0  0  0  0  0  0  0  0  0  0  0
    8.3263   -2.0700    2.2965 C   0  0  0  0  0  0  0  0  0  0  0  0
    5.0641   -2.3991    2.9230 C   0  0  0  0  0  0  0  0  0  0  0  0
    3.5348   -1.8491    2.2406 S   0  0  0  0  0  0  0  0  0  0  0  0
    4.1252   -2.1265    0.6447 C   0  0  0  0  0  0  0  0  0  0  0  0
    3.6012   -1.9821   -0.6461 C   0  0  0  0  0  0  0  0  0  0  0  0
    2.4148   -1.5613   -1.1833 N   0  0  0  0  0  0  0  0  0  0  0  0
    2.4927   -1.6643   -2.5587 C   0  0  0  0  0  0  0  0  0  0  0  0
    1.6103   -1.3618   -3.6377 C   0  0  0  0  0  0  0  0  0  0  0  0
    0.3925   -0.7147   -3.7438 N   0  0  0  0  0  0  0  0  0  0  0  0
    0.0078   -0.7266   -5.0565 C   0  0  0  0  0  0  0  0  0  0  0  0
   -1.0798   -0.2479   -5.7941 C   0  0  0  0  0  0  0  0  0  0  0  0
   -2.5141    0.6291   -5.4185 S   0  0  0  0  0  0  0  0  0  0  0  0
   -0.4821   -0.0890   -2.7800 C   0  0  0  0  0  0  0  0  0  0  0  0
   -1.6207   -1.0219   -2.3664 C   0  0  0  0  0  0  0  0  0  0  0  0
    1.3496   -1.1718   -0.2896 C   0  0  0  0  0  0  0  0  0  0  0  0
    1.5078    0.2740    0.1813 C   0  0  0  0  0  0  0  0  0  0  0  0
    5.3627   -2.4415    4.2894 C   0  0  0  0  0  0  0  0  0  0  0  0
    4.5914   -2.1468    5.3863 C   0  0  0  0  0  0  0  0  0  0  0  0
    3.1758   -1.7704    5.3763 C   0  0  0  0  0  0  0  0  0  0  0  0
    2.4722   -1.5418    4.4054 O   0  0  0  0  0  0  0  0  0  0  0  0
    2.7468   -1.7300    6.7842 C   0  0  0  0  0  0  0  0  0  0  0  0
    1.4637   -1.4757    7.2635 C   0  0  0  0  0  0  0  0  0  0  0  0
    1.3584   -1.5290    8.6326 C   0  0  0  0  0  0  0  0  0  0  0  0
    2.4489   -1.8156    9.4642 C   0  0  0  0  0  0  0  0  0  0  0  0
    3.7196   -2.0686    9.0037 C   0  0  0  0  0  0  0  0  0  0  0  0
    3.8500   -2.0173    7.6128 C   0  0  0  0  0  0  0  0  0  0  0  0
    5.0227   -2.2366    6.7668 C   0  0  0  0  0  0  0  0  0  0  0  0
    6.3000   -2.4431    7.2237 C   0  0  0  0  0  0  0  0  0  0  0  0
    7.4460   -2.5984    6.4170 C   0  0  0  0  0  0  0  0  0  0  0  0
    8.4287   -2.7214    5.8335 N   0  0  0  0  0  0  0  0  0  0  0  0
    6.6626   -2.4987    8.5855 C   0  0  0  0  0  0  0  0  0  0  0  0
    7.0367   -2.5557    9.6698 N   0  0  0  0  0  0  0  0  0  0  0  0
    1.6214   -1.7093   10.7209 C   0  0  0  0  0  0  0  0  0  0  0  0
    1.7746   -0.4116   11.5421 C   0  0  0  0  0  0  0  0  0  0  0  0
    0.5345   -0.3832   12.4062 C   0  0  0  0  0  0  0  0  0  0  0  0
   -0.4994   -0.1132   11.6196 C   0  0  0  0  0  0  0  0  0  0  0  0
    0.0245    0.0458   10.2105 C   0  0  0  0  0  0  0  0  0  0  0  0
    1.3997    0.6575   10.5076 C   0  0  0  0  0  0  0  0  0  0  0  0
    0.4049   -1.3905    9.7935 C   0  0  0  0  0  0  0  0  0  0  0  0
   -4.2761    1.4044   -8.5934 H   0  0  0  0  0  0  0  0  0  0  0  0
   -7.7337    5.1190   -7.1672 H   0  0  0  0  0  0  0  0  0  0  0  0
   -6.5966    2.6632   -2.8823 H   0  0  0  0  0  0  0  0  0  0  0  0
   -7.8027    5.8065   -2.1914 H   0  0  0  0  0  0  0  0  0  0  0  0
   -9.7148    4.0198   -1.6920 H   0  0  0  0  0  0  0  0  0  0  0  0
  -10.6079    6.4009   -1.0278 H   0  0  0  0  0  0  0  0  0  0  0  0
  -11.2323    7.7015   -3.2586 H   0  0  0  0  0  0  0  0  0  0  0  0
  -10.7254    6.1218   -5.2955 H   0  0  0  0  0  0  0  0  0  0  0  0
  -11.5398    4.2659   -3.5934 H   0  0  0  0  0  0  0  0  0  0  0  0
  -10.0262    3.7084   -4.3417 H   0  0  0  0  0  0  0  0  0  0  0  0
   -8.4159    7.0821   -4.3779 H   0  0  0  0  0  0  0  0  0  0  0  0
   -1.7496   -1.2569   -9.6232 H   0  0  0  0  0  0  0  0  0  0  0  0
   -3.2742   -0.3557   -9.6748 H   0  0  0  0  0  0  0  0  0  0  0  0
   -1.5805    0.6571  -11.1951 H   0  0  0  0  0  0  0  0  0  0  0  0
   -1.9696    1.7844   -9.8920 H   0  0  0  0  0  0  0  0  0  0  0  0
   -0.4660    0.8569   -9.8386 H   0  0  0  0  0  0  0  0  0  0  0  0
    7.6709   -3.8442    1.2697 H   0  0  0  0  0  0  0  0  0  0  0  0
    7.4440   -3.8972    3.0257 H   0  0  0  0  0  0  0  0  0  0  0  0
    9.3458   -2.4273    2.4085 H   0  0  0  0  0  0  0  0  0  0  0  0
    8.2724   -1.4309    1.4175 H   0  0  0  0  0  0  0  0  0  0  0  0
    8.0726   -1.4814    3.1745 H   0  0  0  0  0  0  0  0  0  0  0  0
    0.0919    0.2557   -1.9254 H   0  0  0  0  0  0  0  0  0  0  0  0
   -0.9113    0.7948   -3.2638 H   0  0  0  0  0  0  0  0  0  0  0  0
   -2.2495   -1.2514   -3.2233 H   0  0  0  0  0  0  0  0  0  0  0  0
   -2.2366   -0.5441   -1.6096 H   0  0  0  0  0  0  0  0  0  0  0  0
   -1.2411   -1.9624   -1.9721 H   0  0  0  0  0  0  0  0  0  0  0  0
    1.4059   -1.8270    0.5853 H   0  0  0  0  0  0  0  0  0  0  0  0
    0.3885   -1.3451   -0.7658 H   0  0  0  0  0  0  0  0  0  0  0  0
    1.6246    0.9574   -0.6580 H   0  0  0  0  0  0  0  0  0  0  0  0
    0.6396    0.5694    0.7632 H   0  0  0  0  0  0  0  0  0  0  0  0
    2.3876    0.3627    0.8129 H   0  0  0  0  0  0  0  0  0  0  0  0
    6.3686   -2.7815    4.4954 H   0  0  0  0  0  0  0  0  0  0  0  0
    0.6503   -1.2668    6.5864 H   0  0  0  0  0  0  0  0  0  0  0  0
    4.5442   -2.2977    9.6575 H   0  0  0  0  0  0  0  0  0  0  0  0
    1.5841   -2.6030   11.3408 H   0  0  0  0  0  0  0  0  0  0  0  0
    2.7287   -0.3047   12.0507 H   0  0  0  0  0  0  0  0  0  0  0  0
    0.5295   -0.6105   13.4561 H   0  0  0  0  0  0  0  0  0  0  0  0
   -1.5405   -0.0701   11.8810 H   0  0  0  0  0  0  0  0  0  0  0  0
   -0.6163    0.5703    9.5066 H   0  0  0  0  0  0  0  0  0  0  0  0
    1.3222    1.6491   10.9503 H   0  0  0  0  0  0  0  0  0  0  0  0
    2.0646    0.6941    9.6465 H   0  0  0  0  0  0  0  0  0  0  0  0
   -0.4431   -2.0730    9.7945 H   0  0  0  0  0  0  0  0  0  0  0  0
  1  2  2  0  0  0  0
  2  3  1  0  0  0  0
  3  4  2  0  0  0  0
  3  5  1  0  0  0  0
  5  6  2  0  0  0  0
  6  7  1  0  0  0  0
  7  8  2  0  0  0  0
  8  9  1  0  0  0  0
  9 10  2  0  0  0  0
 10 11  1  0  0  0  0
 11 12  2  0  0  0  0
 12 13  1  0  0  0  0
 13 14  3  0  0  0  0
 12 15  1  0  0  0  0
 15 16  3  0  0  0  0
  8 17  1  0  0  0  0
 17 18  1  0  0  0  0
 18 19  1  0  0  0  0
 19 20  2  0  0  0  0
 20 21  1  0  0  0  0
 21 22  1  0  0  0  0
 21 23  1  0  0  0  0
  1 24  1  0  0  0  0
 24 25  2  0  0  0  0
 25 26  1  0  0  0  0
 26 27  1  0  0  0  0
 25 28  1  0  0  0  0
 28 29  1  0  0  0  0
 29 30  1  0  0  0  0
 30 31  1  0  0  0  0
 31 32  1  0  0  0  0
 32 33  1  0  0  0  0
 33 34  2  0  0  0  0
 34 35  1  0  0  0  0
 35 36  1  0  0  0  0
 33 37  1  0  0  0  0
 37 38  1  0  0  0  0
 38 39  1  0  0  0  0
 39 40  1  0  0  0  0
 40 41  1  0  0  0  0
 41 42  1  0  0  0  0
 42 43  1  0  0  0  0
 41 44  2  0  0  0  0
 44 45  1  0  0  0  0
 45 46  1  0  0  0  0
 46 47  1  0  0  0  0
 47 48  1  0  0  0  0
 48 49  1  0  0  0  0
 49 50  1  0  0  0  0
 50 51  1  0  0  0  0
 51 52  1  0  0  0  0
 52 53  1  0  0  0  0
 53 54  1  0  0  0  0
 51 55  1  0  0  0  0
 55 56  1  0  0  0  0
 48 57  1  0  0  0  0
 57 58  1  0  0  0  0
 44 59  1  0  0  0  0
 59 60  2  0  0  0  0
 60 61  1  0  0  0  0
 61 62  2  0  0  0  0
 61 63  1  0  0  0  0
 63 64  2  0  0  0  0
 64 65  1  0  0  0  0
 65 66  2  0  0  0  0
 66 67  1  0  0  0  0
 67 68  2  0  0  0  0
 68 69  1  0  0  0  0
 69 70  2  0  0  0  0
 70 71  1  0  0  0  0
 71 72  3  0  0  0  0
 70 73  1  0  0  0  0
 73 74  3  0  0  0  0
 66 75  1  0  0  0  0
 75 76  1  0  0  0  0
 76 77  1  0  0  0  0
 77 78  2  0  0  0  0
 78 79  1  0  0  0  0
 79 80  1  0  0  0  0
 79 81  1  0  0  0  0
 11  2  1  0  0  0  0
 23 17  1  0  0  0  0
 54 24  1  0  0  0  0
 69 60  1  0  0  0  0
 81 75  1  0  0  0  0
 10  5  1  0  0  0  0
 22 18  1  0  0  0  0
 53 28  2  0  0  0  0
 68 63  1  0  0  0  0
 80 76  1  0  0  0  0
 23  7  1  0  0  0  0
 52 30  2  0  0  0  0
 81 65  1  0  0  0  0
 50 31  2  0  0  0  0
 36 32  2  0  0  0  0
 49 37  2  0  0  0  0
 47 38  2  0  0  0  0
 46 40  2  0  0  0  0
  1 82  1  0  0  0  0
  6 83  1  0  0  0  0
  9 84  1  0  0  0  0
 17 85  1  0  0  0  0
 18 86  1  0  0  0  0
 19 87  1  0  0  0  0
 20 88  1  0  0  0  0
 21 89  1  0  0  0  0
 22 90  1  0  0  0  0
 22 91  1  0  0  0  0
 23 92  1  0  0  0  0
 26 93  1  0  0  0  0
 26 94  1  0  0  0  0
 27 95  1  0  0  0  0
 27 96  1  0  0  0  0
 27 97  1  0  0  0  0
 42 98  1  0  0  0  0
 42 99  1  0  0  0  0
 43100  1  0  0  0  0
 43101  1  0  0  0  0
 43102  1  0  0  0  0
 55103  1  0  0  0  0
 55104  1  0  0  0  0
 56105  1  0  0  0  0
 56106  1  0  0  0  0
 56107  1  0  0  0  0
 57108  1  0  0  0  0
 57109  1  0  0  0  0
 58110  1  0  0  0  0
 58111  1  0  0  0  0
 58112  1  0  0  0  0
 59113  1  0  0  0  0
 64114  1  0  0  0  0
 67115  1  0  0  0  0
 75116  1  0  0  0  0
 76117  1  0  0  0  0
 77118  1  0  0  0  0
 78119  1  0  0  0  0
 79120  1  0  0  0  0
 80121  1  0  0  0  0
 80122  1  0  0  0  0
 81123  1  0  0  0  0
M  END
