95

C         -3.77130       -0.33770       -5.46860
C         -3.21130        0.58860       -6.31370
C         -1.95410        1.28850       -6.08390
O         -1.21420        1.17660       -5.11110
C         -1.73120        2.15980       -7.24340
C         -0.64860        3.00770       -7.46650
C         -0.72130        3.70720       -8.64690
C         -1.79380        3.57470       -9.53880
C         -2.86460        2.73610       -9.33360
C         -2.81110        2.01290       -8.13970
C         -3.74990        1.03720       -7.58430
C         -4.92150        0.64090       -8.17440
C         -5.83500       -0.29680       -7.64750
N         -6.63130       -1.04620       -7.29460
C         -5.39550        1.12090       -9.41390
N         -5.84490        1.46420      -10.41300
C         -1.22280        4.58500      -10.50080
C         -1.83690        6.00740      -10.49960
C         -2.39740        6.23470       -9.11740
C         -1.37580        6.35690       -8.28070
C         -0.10530        6.21330       -9.08200
C         -0.55070        6.84440      -10.41080
C         -0.02340        4.72750       -9.51120
C         -3.34060       -0.81320       -4.22220
C         -4.08560       -1.76620       -3.52330
C         -3.57050       -2.12920       -2.29330
S         -4.17440       -3.25540       -1.08950
C         -2.82580       -2.85480       -0.08490
C         -2.32400       -3.14320        1.18880
C         -2.85660       -3.95870        2.21110
C         -2.18690       -4.00410        3.47400
N         -2.80990       -4.77440        4.35210
S         -4.12810       -5.39230        3.64460
N         -3.95390       -4.69910        2.19210
C         -0.98160       -3.28540        3.63000
C         -0.11260       -3.21570        4.72470
C          0.97540       -2.42790        4.33020
N          0.80230       -2.01210        3.03720
C          1.88270       -1.30340        2.39470
C          1.89230        0.17980        2.76540
C         -0.40770       -2.50430        2.57970
C         -1.12670       -2.37790        1.35820
N         -0.94490       -1.62810        0.21050
C         -1.95960       -1.91870       -0.65940
C         -2.37020       -1.48720       -1.92360
Se        -1.79450       -0.30260       -3.24740
C         -0.01720       -0.58540       -0.15540
C          1.06850       -1.09660       -1.10200
C          1.93830       -2.30270        5.33440
C          1.55170       -3.00580        6.49780
S          0.00870       -3.81740        6.33790
C          2.42230       -2.94540        7.57620
C          3.56410       -2.19360        7.34960
Se         3.58190       -1.46720        5.58070
C          4.66180       -1.86340        8.16050
C          4.98560       -2.17610        9.45540
C          4.24400       -3.02810       10.42020
O          3.20460       -3.63530       10.26750
C          5.05940       -2.98660       11.63310
S          4.95310       -3.66870       13.19630
C          6.44760       -2.88260       13.61650
Br         7.16170       -3.10240       15.33390
C          6.99710       -2.13760       12.60970
C          6.18910       -2.20220       11.46050
C          6.18830       -1.67730       10.10660
C          7.17330       -0.86630        9.60410
C          7.24510       -0.32330        8.30560
N          7.38680        0.15850        7.27210
C          8.27990       -0.47750       10.38950
N          9.18830       -0.14690       11.00740
H         -4.70270       -0.78860       -5.79160
H          0.15540        3.08040       -6.75100
H         -3.67740        2.64500      -10.03420
H         -1.01660        4.22440      -11.50650
H         -2.50980        6.20820      -11.32870
H         -3.44700        6.22670       -8.88850
H         -1.40070        6.47150       -7.21280
H          0.79970        6.60120       -8.62200
H         -0.74790        7.91180      -10.32460
H          0.14230        6.66320      -11.23130
H          0.96660        4.45140       -9.86890
H         -4.99830       -2.17480       -3.92360
H          2.81930       -1.75440        2.74950
H          1.83550       -1.45490        1.32010
H          2.64740        0.70120        2.18420
H          2.12920        0.29910        3.82170
H          0.92400        0.64380        2.58890
H          0.40030       -0.13070        0.73770
H         -0.59360        0.18810       -0.68180
H          0.62870       -1.35940       -2.06350
H          1.56220       -1.98190       -0.70560
H          1.80920       -0.31970       -1.26830
H          2.23860       -3.43510        8.51630
H          5.38110       -1.22770        7.65360
H          7.91640       -1.59100       12.70900
