130

C         -6.46240       -3.15930       -0.55870
C         -7.19650       -2.40920        0.30720
C         -8.62670       -2.12190        0.02280
O         -9.33710       -2.68870       -0.77650
C         -8.96210       -0.96210        0.87410
C        -10.14980       -0.23340        0.87650
C        -10.16110        0.81640        1.76340
C         -9.07330        1.12470        2.59220
C         -7.90000        0.40870        2.61100
C         -7.86820       -0.66220        1.71410
C         -6.82470       -1.65600        1.48370
C         -5.83020       -1.99730        2.36470
C         -5.07440       -3.18030        2.23130
N         -4.48210       -4.16280        2.17720
C         -5.50270       -1.26740        3.52220
N         -5.16240       -0.69120        4.45560
C         -9.77530        2.30910        3.20820
C         -9.34940        3.70380        2.70260
C        -10.49900        4.60000        3.10310
C        -11.53050        4.30670        2.32170
C        -11.09540        3.20740        1.37970
C         -9.61980        3.58550        1.19700
C        -10.98930        1.96340        2.28740
C         -5.06080       -3.19580       -0.73040
C         -4.36700       -4.17210       -1.43850
C         -5.02250       -5.39610       -1.91260
C         -5.61640       -6.21630       -0.95580
C         -6.24000       -7.39100       -1.32860
C         -6.28390       -7.74730       -2.66550
C         -5.70890       -6.92530       -3.61800
C         -5.06980       -5.74450       -3.26510
C         -4.53420       -4.83150       -4.33130
C         -5.47890       -3.64930       -4.55850
C         -2.99560       -3.89020       -1.49510
S         -1.62280       -4.75430       -2.15120
C         -0.58200       -3.51420       -1.54360
C          0.78690       -3.21840       -1.46110
C          1.92150       -3.94520       -1.88500
C          3.22590       -3.42820       -1.59090
N          4.19320       -4.23240       -2.00230
S          3.52060       -5.52730       -2.70290
N          1.96900       -5.11100       -2.51010
C          3.33480       -2.15360       -0.99090
C          4.45000       -1.34280       -0.75260
S          6.16960       -1.40470       -0.93050
C          6.24720        0.26020       -0.38630
C          7.30630        1.12910       -0.18620
C          8.71020        0.80370       -0.47820
C          9.65660        0.62640        0.53370
C          9.26970        0.64880        1.98550
C          8.75070       -0.72670        2.41080
C         10.96490        0.33680        0.17150
C         11.33590        0.22690       -1.15540
C         10.38920        0.38700       -2.15230
C          9.08070        0.66970       -1.81300
C          6.86830        2.38670        0.28140
S          5.11640        2.44590        0.47460
C          4.98910        0.81700       -0.07440
C          3.96840       -0.11010       -0.28580
N          2.60060       -0.14310       -0.21620
C          2.18330       -1.39300       -0.62290
C          0.90220       -1.98750       -0.75210
N         -0.36780       -1.57010       -0.38150
C         -1.25820       -2.49020       -0.87190
C         -2.63830       -2.70050       -0.84760
S         -4.01000       -1.89070       -0.19070
C         -0.78400       -0.79230        0.76880
C         -0.96600       -1.68070        1.99950
C          1.86050        1.08730       -0.04280
C          1.83320        1.54270        1.41660
C          7.76180        3.42600        0.52910
C          7.54980        4.69680        1.02220
C          6.25230        5.26140        1.38280
O          5.15940        4.73120        1.31350
C          6.53130        6.63710        1.85840
C          7.91400        6.88320        1.78870
C          8.42800        8.10720        2.17990
C          7.54220        9.07190        2.63980
F          8.01820       10.25950        3.02270
C          6.17090        8.84230        2.71570
F          5.35100        9.79690        3.16520
C          5.65810        7.60560        2.31810
F          4.34760        7.38740        2.39060
C          8.57590        5.68010        1.27430
C          9.93070        5.54540        1.10010
C         10.59820        4.39300        0.63380
N         11.23180        3.50530        0.27260
C         10.86910        6.56040        1.38170
N         11.68330        7.34220        1.59080
H         -7.03300       -3.74970       -1.26990
H        -10.96760       -0.50410        0.22730
H         -7.06670        0.64980        3.25100
H         -9.91140        2.27080        4.28720
H         -8.35530        4.01580        3.01090
H        -10.46200        5.29280        3.92320
H        -12.52720        4.70550        2.35860
H        -11.69190        3.06730        0.48220
H         -9.49980        4.53690        0.68150
H         -9.02490        2.82310        0.69730
H        -11.93540        1.69340        2.75250
H         -5.56320       -5.92970        0.08460
H         -6.69090       -8.02280       -0.57880
H         -6.77130       -8.66230       -2.96740
H         -5.75850       -7.20160       -4.66150
H         -3.54850       -4.45630       -4.05460
H         -4.43010       -5.38980       -5.26300
H         -5.10710       -3.01830       -5.36240
H         -5.56400       -3.04510       -3.65810
H         -6.47160       -4.00370       -4.82670
H         10.14230        0.90850        2.58730
H          8.49650        1.39580        2.17260
H          7.87170       -0.99810        1.83020
H          9.51310       -1.48480        2.24810
H          8.48310       -0.72220        3.46480
H         11.70410        0.20300        0.94720
H         12.36230        0.01390       -1.41170
H         10.66760        0.29590       -3.19120
H          8.33390        0.80450       -2.58220
H         -1.73400       -0.31280        0.51360
H         -0.05280       -0.02680        0.99370
H         -1.28310       -1.07380        2.84310
H         -1.71990       -2.44460        1.82620
H         -0.02890       -2.17220        2.25280
H          0.85920        0.95780       -0.45570
H          2.36320        1.85960       -0.63510
H          1.53660        0.73660        2.08440
H          2.81890        1.88420        1.71930
H          1.13970        2.37100        1.53050
H          8.78740        3.16210        0.29810
H          9.47810        8.34430        2.14420
