
  xtb     02022205393D
 energy: -196.758196521575 gnorm: 0.000221046832 xtb: 6.4.1 (unknown)
116130  0     0  0            999 V2000
    1.8588    4.5041   -2.6850 C   0  0  0  0  0  0  0  0  0  0  0  0
    2.8129    4.1589   -3.6089 C   0  0  0  0  0  0  0  0  0  0  0  0
    3.0882    2.8079   -4.1023 C   0  0  0  0  0  0  0  0  0  0  0  0
    2.5751    1.7633   -3.7326 O   0  0  0  0  0  0  0  0  0  0  0  0
    4.1200    2.9483   -5.1431 C   0  0  0  0  0  0  0  0  0  0  0  0
    4.6726    1.9336   -5.9206 C   0  0  0  0  0  0  0  0  0  0  0  0
    5.6144    2.3693   -6.8215 C   0  0  0  0  0  0  0  0  0  0  0  0
    5.9880    3.7149   -6.9319 C   0  0  0  0  0  0  0  0  0  0  0  0
    5.4528    4.7251   -6.1683 C   0  0  0  0  0  0  0  0  0  0  0  0
    4.4834    4.3060   -5.2534 C   0  0  0  0  0  0  0  0  0  0  0  0
    3.6898    5.0816   -4.3001 C   0  0  0  0  0  0  0  0  0  0  0  0
    3.7834    6.4373   -4.1110 C   0  0  0  0  0  0  0  0  0  0  0  0
    3.0337    7.2074   -3.1970 C   0  0  0  0  0  0  0  0  0  0  0  0
    2.4772    7.9231   -2.4904 N   0  0  0  0  0  0  0  0  0  0  0  0
    4.6667    7.2822   -4.8153 C   0  0  0  0  0  0  0  0  0  0  0  0
    5.3534    8.0351   -5.3452 N   0  0  0  0  0  0  0  0  0  0  0  0
    6.9709    3.4346   -8.0407 C   0  0  0  0  0  0  0  0  0  0  0  0
    6.5477    3.7996   -9.4849 C   0  0  0  0  0  0  0  0  0  0  0  0
    5.0404    3.7459   -9.5154 C   0  0  0  0  0  0  0  0  0  0  0  0
    4.6789    2.4738   -9.4145 C   0  0  0  0  0  0  0  0  0  0  0  0
    5.9353    1.6443   -9.3150 C   0  0  0  0  0  0  0  0  0  0  0  0
    6.8801    2.4779  -10.1955 C   0  0  0  0  0  0  0  0  0  0  0  0
    6.5494    1.9359   -7.9228 C   0  0  0  0  0  0  0  0  0  0  0  0
    0.9753    3.7088   -1.9470 C   0  0  0  0  0  0  0  0  0  0  0  0
    0.0287    4.2580   -1.0610 C   0  0  0  0  0  0  0  0  0  0  0  0
   -0.2513    5.6845   -0.9350 C   0  0  0  0  0  0  0  0  0  0  0  0
   -0.4620    6.4830   -2.0585 C   0  0  0  0  0  0  0  0  0  0  0  0
   -0.6968    7.8353   -1.9190 C   0  0  0  0  0  0  0  0  0  0  0  0
   -0.7265    8.4287   -0.6629 C   0  0  0  0  0  0  0  0  0  0  0  0
   -1.0018    9.8956   -0.5178 C   0  0  0  0  0  0  0  0  0  0  0  0
   -2.5086   10.1504   -0.4352 C   0  0  0  0  0  0  0  0  0  0  0  0
   -0.5469    7.6244    0.4563 C   0  0  0  0  0  0  0  0  0  0  0  0
   -0.3175    6.2700    0.3279 C   0  0  0  0  0  0  0  0  0  0  0  0
   -0.6063    3.2678   -0.3144 C   0  0  0  0  0  0  0  0  0  0  0  0
   -1.8440    3.3307    0.9253 S   0  0  0  0  0  0  0  0  0  0  0  0
   -1.7772    1.6058    1.0295 C   0  0  0  0  0  0  0  0  0  0  0  0
   -2.3378    0.5688    1.7855 C   0  0  0  0  0  0  0  0  0  0  0  0
   -3.2305    0.6129    2.8783 C   0  0  0  0  0  0  0  0  0  0  0  0
   -3.5360   -0.6040    3.5679 C   0  0  0  0  0  0  0  0  0  0  0  0
   -4.3414   -0.4138    4.6013 N   0  0  0  0  0  0  0  0  0  0  0  0
   -4.6896    1.1647    4.6933 S   0  0  0  0  0  0  0  0  0  0  0  0
   -3.8233    1.6650    3.4208 N   0  0  0  0  0  0  0  0  0  0  0  0
   -3.0055   -1.8157    3.0748 C   0  0  0  0  0  0  0  0  0  0  0  0
   -3.1932   -3.1340    3.5126 C   0  0  0  0  0  0  0  0  0  0  0  0
   -3.9943   -3.9865    4.7858 S   0  0  0  0  0  0  0  0  0  0  0  0
   -3.4207   -5.4887    4.1011 C   0  0  0  0  0  0  0  0  0  0  0  0
   -3.5525   -6.8244    4.5174 C   0  0  0  0  0  0  0  0  0  0  0  0
   -4.1747   -7.1944    5.7860 C   0  0  0  0  0  0  0  0  0  0  0  0
   -5.4027   -6.6507    6.1519 C   0  0  0  0  0  0  0  0  0  0  0  0
   -5.9754   -6.9827    7.3622 C   0  0  0  0  0  0  0  0  0  0  0  0
   -5.3357   -7.8451    8.2439 C   0  0  0  0  0  0  0  0  0  0  0  0
   -5.9473   -8.1663    9.5755 C   0  0  0  0  0  0  0  0  0  0  0  0
   -5.5689   -7.1009   10.6072 C   0  0  0  0  0  0  0  0  0  0  0  0
   -4.0965   -8.3624    7.8864 C   0  0  0  0  0  0  0  0  0  0  0  0
   -3.5218   -8.0487    6.6719 C   0  0  0  0  0  0  0  0  0  0  0  0
   -2.8969   -7.6887    3.6474 C   0  0  0  0  0  0  0  0  0  0  0  0
   -2.0617   -6.8216    2.3528 S   0  0  0  0  0  0  0  0  0  0  0  0
   -2.6466   -5.3130    2.9473 C   0  0  0  0  0  0  0  0  0  0  0  0
   -2.5173   -3.9610    2.6110 C   0  0  0  0  0  0  0  0  0  0  0  0
   -1.9016   -3.2049    1.6490 N   0  0  0  0  0  0  0  0  0  0  0  0
   -2.1759   -1.8717    1.9173 C   0  0  0  0  0  0  0  0  0  0  0  0
   -1.7625   -0.6505    1.3169 C   0  0  0  0  0  0  0  0  0  0  0  0
   -0.8641   -0.3403    0.3103 N   0  0  0  0  0  0  0  0  0  0  0  0
   -0.8641    1.0190    0.1471 C   0  0  0  0  0  0  0  0  0  0  0  0
   -0.1855    1.9659   -0.6286 C   0  0  0  0  0  0  0  0  0  0  0  0
    1.0065    1.9492   -1.8782 S   0  0  0  0  0  0  0  0  0  0  0  0
    0.2030   -1.1188   -0.2767 C   0  0  0  0  0  0  0  0  0  0  0  0
    1.2193   -1.5549    0.7760 C   0  0  0  0  0  0  0  0  0  0  0  0
   -1.4595   -3.8421    0.4282 C   0  0  0  0  0  0  0  0  0  0  0  0
   -2.3894   -3.5189   -0.7388 C   0  0  0  0  0  0  0  0  0  0  0  0
   -2.8134   -9.0993    3.6030 C   0  0  0  0  0  0  0  0  0  0  0  0
   -3.6824  -10.0143    4.1243 C   0  0  0  0  0  0  0  0  0  0  0  0
   -4.9328   -9.7405    4.7136 C   0  0  0  0  0  0  0  0  0  0  0  0
   -5.9952   -9.6015    5.1250 N   0  0  0  0  0  0  0  0  0  0  0  0
   -3.3933  -11.3914    4.0064 C   0  0  0  0  0  0  0  0  0  0  0  0
   -3.1423  -12.5070    3.9164 N   0  0  0  0  0  0  0  0  0  0  0  0
    1.7572    5.5603   -2.4681 H   0  0  0  0  0  0  0  0  0  0  0  0
    4.3592    0.9085   -5.7984 H   0  0  0  0  0  0  0  0  0  0  0  0
    5.7519    5.7547   -6.2692 H   0  0  0  0  0  0  0  0  0  0  0  0
    8.0083    3.6900   -7.8343 H   0  0  0  0  0  0  0  0  0  0  0  0
    7.0037    4.7063   -9.8733 H   0  0  0  0  0  0  0  0  0  0  0  0
    4.4109    4.6158   -9.5475 H   0  0  0  0  0  0  0  0  0  0  0  0
    3.6864    2.0684   -9.3454 H   0  0  0  0  0  0  0  0  0  0  0  0
    5.8329    0.5882   -9.5509 H   0  0  0  0  0  0  0  0  0  0  0  0
    6.5872    2.4785  -11.2443 H   0  0  0  0  0  0  0  0  0  0  0  0
    7.9260    2.1879  -10.1055 H   0  0  0  0  0  0  0  0  0  0  0  0
    7.3127    1.2110   -7.6467 H   0  0  0  0  0  0  0  0  0  0  0  0
   -0.4645    6.0334   -3.0415 H   0  0  0  0  0  0  0  0  0  0  0  0
   -0.8497    8.4425   -2.7989 H   0  0  0  0  0  0  0  0  0  0  0  0
   -0.5225   10.2739    0.3869 H   0  0  0  0  0  0  0  0  0  0  0  0
   -0.5901   10.4326   -1.3739 H   0  0  0  0  0  0  0  0  0  0  0  0
   -2.7089   11.2141   -0.3307 H   0  0  0  0  0  0  0  0  0  0  0  0
   -2.9342    9.6306    0.4204 H   0  0  0  0  0  0  0  0  0  0  0  0
   -3.0039    9.7903   -1.3342 H   0  0  0  0  0  0  0  0  0  0  0  0
   -0.5761    8.0675    1.4412 H   0  0  0  0  0  0  0  0  0  0  0  0
   -0.1577    5.6615    1.2055 H   0  0  0  0  0  0  0  0  0  0  0  0
   -5.9204   -5.9936    5.4697 H   0  0  0  0  0  0  0  0  0  0  0  0
   -6.9385   -6.5708    7.6251 H   0  0  0  0  0  0  0  0  0  0  0  0
   -5.5977   -9.1417    9.9184 H   0  0  0  0  0  0  0  0  0  0  0  0
   -7.0338   -8.2058    9.4807 H   0  0  0  0  0  0  0  0  0  0  0  0
   -4.4887   -7.0564   10.7271 H   0  0  0  0  0  0  0  0  0  0  0  0
   -5.9173   -6.1219   10.2860 H   0  0  0  0  0  0  0  0  0  0  0  0
   -6.0163   -7.3304   11.5714 H   0  0  0  0  0  0  0  0  0  0  0  0
   -3.5780   -9.0246    8.5650 H   0  0  0  0  0  0  0  0  0  0  0  0
   -2.5527   -8.4521    6.4117 H   0  0  0  0  0  0  0  0  0  0  0  0
   -0.2000   -1.9681   -0.8278 H   0  0  0  0  0  0  0  0  0  0  0  0
    0.6966   -0.4702   -1.0043 H   0  0  0  0  0  0  0  0  0  0  0  0
    1.9965   -2.1573    0.3139 H   0  0  0  0  0  0  0  0  0  0  0  0
    0.7468   -2.1321    1.5678 H   0  0  0  0  0  0  0  0  0  0  0  0
    1.6830   -0.6802    1.2258 H   0  0  0  0  0  0  0  0  0  0  0  0
   -0.4263   -3.5767    0.2060 H   0  0  0  0  0  0  0  0  0  0  0  0
   -1.4792   -4.9186    0.6157 H   0  0  0  0  0  0  0  0  0  0  0  0
   -3.3904   -3.8896   -0.5299 H   0  0  0  0  0  0  0  0  0  0  0  0
   -2.0265   -3.9954   -1.6454 H   0  0  0  0  0  0  0  0  0  0  0  0
   -2.4542   -2.4461   -0.9053 H   0  0  0  0  0  0  0  0  0  0  0  0
   -1.9778   -9.4968    3.0363 H   0  0  0  0  0  0  0  0  0  0  0  0
  1  2  2  0  0  0  0
  2  3  1  0  0  0  0
  3  4  2  0  0  0  0
  3  5  1  0  0  0  0
  5  6  2  0  0  0  0
  6  7  1  0  0  0  0
  7  8  2  0  0  0  0
  8  9  1  0  0  0  0
  9 10  2  0  0  0  0
 10 11  1  0  0  0  0
 11 12  2  0  0  0  0
 12 13  1  0  0  0  0
 13 14  3  0  0  0  0
 12 15  1  0  0  0  0
 15 16  3  0  0  0  0
  8 17  1  0  0  0  0
 17 18  1  0  0  0  0
 18 19  1  0  0  0  0
 19 20  2  0  0  0  0
 20 21  1  0  0  0  0
 21 22  1  0  0  0  0
 21 23  1  0  0  0  0
  1 24  1  0  0  0  0
 24 25  2  0  0  0  0
 25 26  1  0  0  0  0
 26 27  2  0  0  0  0
 27 28  1  0  0  0  0
 28 29  2  0  0  0  0
 29 30  1  0  0  0  0
 30 31  1  0  0  0  0
 29 32  1  0  0  0  0
 32 33  2  0  0  0  0
 25 34  1  0  0  0  0
 34 35  1  0  0  0  0
 35 36  1  0  0  0  0
 36 37  1  0  0  0  0
 37 38  1  0  0  0  0
 38 39  1  0  0  0  0
 39 40  2  0  0  0  0
 40 41  1  0  0  0  0
 41 42  1  0  0  0  0
 39 43  1  0  0  0  0
 43 44  1  0  0  0  0
 44 45  1  0  0  0  0
 45 46  1  0  0  0  0
 46 47  1  0  0  0  0
 47 48  1  0  0  0  0
 48 49  2  0  0  0  0
 49 50  1  0  0  0  0
 50 51  2  0  0  0  0
 51 52  1  0  0  0  0
 52 53  1  0  0  0  0
 51 54  1  0  0  0  0
 54 55  2  0  0  0  0
 47 56  2  0  0  0  0
 56 57  1  0  0  0  0
 57 58  1  0  0  0  0
 58 59  1  0  0  0  0
 59 60  1  0  0  0  0
 60 61  1  0  0  0  0
 61 62  1  0  0  0  0
 62 63  1  0  0  0  0
 63 64  1  0  0  0  0
 64 65  1  0  0  0  0
 65 66  1  0  0  0  0
 63 67  1  0  0  0  0
 67 68  1  0  0  0  0
 60 69  1  0  0  0  0
 69 70  1  0  0  0  0
 56 71  1  0  0  0  0
 71 72  2  0  0  0  0
 72 73  1  0  0  0  0
 73 74  3  0  0  0  0
 72 75  1  0  0  0  0
 75 76  3  0  0  0  0
 11  2  1  0  0  0  0
 23 17  1  0  0  0  0
 66 24  1  0  0  0  0
 10  5  1  0  0  0  0
 22 18  1  0  0  0  0
 33 26  1  0  0  0  0
 65 34  2  0  0  0  0
 23  7  1  0  0  0  0
 64 36  2  0  0  0  0
 62 37  2  0  0  0  0
 42 38  2  0  0  0  0
 61 43  2  0  0  0  0
 59 44  2  0  0  0  0
 58 46  2  0  0  0  0
 55 48  1  0  0  0  0
  1 77  1  0  0  0  0
  6 78  1  0  0  0  0
  9 79  1  0  0  0  0
 17 80  1  0  0  0  0
 18 81  1  0  0  0  0
 19 82  1  0  0  0  0
 20 83  1  0  0  0  0
 21 84  1  0  0  0  0
 22 85  1  0  0  0  0
 22 86  1  0  0  0  0
 23 87  1  0  0  0  0
 27 88  1  0  0  0  0
 28 89  1  0  0  0  0
 30 90  1  0  0  0  0
 30 91  1  0  0  0  0
 31 92  1  0  0  0  0
 31 93  1  0  0  0  0
 31 94  1  0  0  0  0
 32 95  1  0  0  0  0
 33 96  1  0  0  0  0
 49 97  1  0  0  0  0
 50 98  1  0  0  0  0
 52 99  1  0  0  0  0
 52100  1  0  0  0  0
 53101  1  0  0  0  0
 53102  1  0  0  0  0
 53103  1  0  0  0  0
 54104  1  0  0  0  0
 55105  1  0  0  0  0
 67106  1  0  0  0  0
 67107  1  0  0  0  0
 68108  1  0  0  0  0
 68109  1  0  0  0  0
 68110  1  0  0  0  0
 69111  1  0  0  0  0
 69112  1  0  0  0  0
 70113  1  0  0  0  0
 70114  1  0  0  0  0
 70115  1  0  0  0  0
 71116  1  0  0  0  0
M  END
