
  xtb     02112201563D
 energy: -192.235523448876 gnorm: 0.000340891737 xtb: 6.4.1 (unknown)
112125  0     0  0            999 V2000
    6.1038    0.1446   -0.3982 C   0  0  0  0  0  0  0  0  0  0  0  0
    6.5040    1.2305    0.3197 C   0  0  0  0  0  0  0  0  0  0  0  0
    7.9265    1.6521    0.3297 C   0  0  0  0  0  0  0  0  0  0  0  0
    8.8151    1.2169   -0.3707 O   0  0  0  0  0  0  0  0  0  0  0  0
    8.0315    2.6641    1.4001 C   0  0  0  0  0  0  0  0  0  0  0  0
    9.1844    3.3050    1.8473 C   0  0  0  0  0  0  0  0  0  0  0  0
    8.9689    4.2012    2.8670 C   0  0  0  0  0  0  0  0  0  0  0  0
    7.7025    4.4282    3.4223 C   0  0  0  0  0  0  0  0  0  0  0  0
    6.5557    3.8058    2.9912 C   0  0  0  0  0  0  0  0  0  0  0  0
    6.7502    2.9112    1.9365 C   0  0  0  0  0  0  0  0  0  0  0  0
    5.7710    2.1382    1.1749 C   0  0  0  0  0  0  0  0  0  0  0  0
    4.4317    2.4306    1.0940 C   0  0  0  0  0  0  0  0  0  0  0  0
    3.7848    3.3942    1.8935 C   0  0  0  0  0  0  0  0  0  0  0  0
    3.1988    4.1544    2.5239 N   0  0  0  0  0  0  0  0  0  0  0  0
    3.5485    1.8987    0.1327 C   0  0  0  0  0  0  0  0  0  0  0  0
    2.7851    1.5819   -0.6650 N   0  0  0  0  0  0  0  0  0  0  0  0
    8.2245    5.4518    4.3982 C   0  0  0  0  0  0  0  0  0  0  0  0
    7.9558    6.9432    4.0792 C   0  0  0  0  0  0  0  0  0  0  0  0
    7.8098    7.0397    2.5806 C   0  0  0  0  0  0  0  0  0  0  0  0
    9.0052    6.8338    2.0441 C   0  0  0  0  0  0  0  0  0  0  0  0
    9.9808    6.5944    3.1700 C   0  0  0  0  0  0  0  0  0  0  0  0
    9.3758    7.5057    4.2499 C   0  0  0  0  0  0  0  0  0  0  0  0
    9.6335    5.2091    3.7710 C   0  0  0  0  0  0  0  0  0  0  0  0
    4.8894   -0.5799   -0.2948 C   0  0  0  0  0  0  0  0  0  0  0  0
    4.1623   -1.0806   -1.3848 C   0  0  0  0  0  0  0  0  0  0  0  0
    2.9589   -1.5331   -0.8577 C   0  0  0  0  0  0  0  0  0  0  0  0
    3.0193   -1.3903    0.5406 C   0  0  0  0  0  0  0  0  0  0  0  0
    4.1818   -0.7836    0.8798 N   0  0  0  0  0  0  0  0  0  0  0  0
    4.7031   -0.7421    2.2265 C   0  0  0  0  0  0  0  0  0  0  0  0
    5.8082   -1.7765    2.4257 C   0  0  0  0  0  0  0  0  0  0  0  0
    1.8116   -1.8821    1.0618 C   0  0  0  0  0  0  0  0  0  0  0  0
    1.3701   -2.1205    2.3815 C   0  0  0  0  0  0  0  0  0  0  0  0
    0.0765   -2.7075    2.5915 C   0  0  0  0  0  0  0  0  0  0  0  0
   -0.1787   -2.9330    3.8695 N   0  0  0  0  0  0  0  0  0  0  0  0
    1.0890   -2.4434    4.7454 S   0  0  0  0  0  0  0  0  0  0  0  0
    2.0214   -1.9241    3.5194 N   0  0  0  0  0  0  0  0  0  0  0  0
   -0.7758   -2.8879    1.4803 C   0  0  0  0  0  0  0  0  0  0  0  0
   -2.1411   -3.1984    1.4073 C   0  0  0  0  0  0  0  0  0  0  0  0
   -3.4480   -3.6143    2.4598 S   0  0  0  0  0  0  0  0  0  0  0  0
   -4.5434   -3.5122    1.1007 C   0  0  0  0  0  0  0  0  0  0  0  0
   -5.9316   -3.6492    0.9952 C   0  0  0  0  0  0  0  0  0  0  0  0
   -6.8289   -3.9222    2.1547 C   0  0  0  0  0  0  0  0  0  0  0  0
   -7.4136   -2.6164    2.6979 C   0  0  0  0  0  0  0  0  0  0  0  0
   -6.3700   -3.3725   -0.2922 C   0  0  0  0  0  0  0  0  0  0  0  0
   -5.0337   -3.0305   -1.3915 S   0  0  0  0  0  0  0  0  0  0  0  0
   -3.9017   -3.1882   -0.1011 C   0  0  0  0  0  0  0  0  0  0  0  0
   -2.5260   -3.0227    0.0723 C   0  0  0  0  0  0  0  0  0  0  0  0
   -1.4434   -2.6715   -0.6875 N   0  0  0  0  0  0  0  0  0  0  0  0
   -0.3498   -2.5804    0.1560 C   0  0  0  0  0  0  0  0  0  0  0  0
    1.0033   -2.2210   -0.0668 C   0  0  0  0  0  0  0  0  0  0  0  0
    1.7398   -2.0374   -1.2253 N   0  0  0  0  0  0  0  0  0  0  0  0
    1.5501   -2.5936   -2.5450 C   0  0  0  0  0  0  0  0  0  0  0  0
    1.2679   -4.0933   -2.4963 C   0  0  0  0  0  0  0  0  0  0  0  0
   -1.6448   -2.0944   -1.9989 C   0  0  0  0  0  0  0  0  0  0  0  0
   -1.3634   -0.5947   -2.0065 C   0  0  0  0  0  0  0  0  0  0  0  0
   -7.7057   -3.3711   -0.7518 C   0  0  0  0  0  0  0  0  0  0  0  0
   -8.2205   -2.7218   -1.8309 C   0  0  0  0  0  0  0  0  0  0  0  0
   -9.5114   -3.1495   -2.4229 C   0  0  0  0  0  0  0  0  0  0  0  0
  -10.3304   -3.8912   -1.9280 O   0  0  0  0  0  0  0  0  0  0  0  0
   -9.5426   -2.5264   -3.7652 C   0  0  0  0  0  0  0  0  0  0  0  0
  -10.4695   -2.6913   -4.7746 C   0  0  0  0  0  0  0  0  0  0  0  0
  -10.2481   -2.0234   -5.9706 C   0  0  0  0  0  0  0  0  0  0  0  0
   -9.1180   -1.2459   -6.1607 C   0  0  0  0  0  0  0  0  0  0  0  0
   -8.1692   -1.0775   -5.1474 C   0  0  0  0  0  0  0  0  0  0  0  0
   -7.0100   -0.4041   -5.2784 O   0  0  0  0  0  0  0  0  0  0  0  0
   -6.7694    0.3549   -6.4411 C   0  0  0  0  0  0  0  0  0  0  0  0
   -8.4159   -1.7006   -3.9191 C   0  0  0  0  0  0  0  0  0  0  0  0
   -7.6927   -1.6489   -2.6552 C   0  0  0  0  0  0  0  0  0  0  0  0
   -6.9304   -0.6104   -2.1885 C   0  0  0  0  0  0  0  0  0  0  0  0
   -6.5386   -0.5128   -0.8350 C   0  0  0  0  0  0  0  0  0  0  0  0
   -6.2447   -0.3696    0.2657 N   0  0  0  0  0  0  0  0  0  0  0  0
   -6.5545    0.5489   -2.8972 C   0  0  0  0  0  0  0  0  0  0  0  0
   -6.2058    1.5439   -3.3524 N   0  0  0  0  0  0  0  0  0  0  0  0
    6.8082   -0.2069   -1.1457 H   0  0  0  0  0  0  0  0  0  0  0  0
   10.1435    3.0960    1.3999 H   0  0  0  0  0  0  0  0  0  0  0  0
    5.5872    3.9848    3.4283 H   0  0  0  0  0  0  0  0  0  0  0  0
    8.0893    5.2205    5.4529 H   0  0  0  0  0  0  0  0  0  0  0  0
    7.1624    7.3951    4.6683 H   0  0  0  0  0  0  0  0  0  0  0  0
    6.8710    7.1851    2.0790 H   0  0  0  0  0  0  0  0  0  0  0  0
    9.2651    6.7731    1.0034 H   0  0  0  0  0  0  0  0  0  0  0  0
   11.0322    6.7313    2.9310 H   0  0  0  0  0  0  0  0  0  0  0  0
    9.4433    8.5623    3.9954 H   0  0  0  0  0  0  0  0  0  0  0  0
    9.7924    7.3388    5.2424 H   0  0  0  0  0  0  0  0  0  0  0  0
   10.4224    4.8286    4.4171 H   0  0  0  0  0  0  0  0  0  0  0  0
    4.4681   -1.0059   -2.4092 H   0  0  0  0  0  0  0  0  0  0  0  0
    3.8647   -0.9612    2.8939 H   0  0  0  0  0  0  0  0  0  0  0  0
    5.0890    0.2535    2.4584 H   0  0  0  0  0  0  0  0  0  0  0  0
    5.4337   -2.7742    2.2093 H   0  0  0  0  0  0  0  0  0  0  0  0
    6.1516   -1.7504    3.4559 H   0  0  0  0  0  0  0  0  0  0  0  0
    6.6527   -1.5697    1.7709 H   0  0  0  0  0  0  0  0  0  0  0  0
   -6.2467   -4.4135    2.9369 H   0  0  0  0  0  0  0  0  0  0  0  0
   -7.6405   -4.5876    1.8525 H   0  0  0  0  0  0  0  0  0  0  0  0
   -8.0441   -2.8194    3.5596 H   0  0  0  0  0  0  0  0  0  0  0  0
   -8.0074   -2.1196    1.9346 H   0  0  0  0  0  0  0  0  0  0  0  0
   -6.6153   -1.9426    2.9970 H   0  0  0  0  0  0  0  0  0  0  0  0
    2.4860   -2.4215   -3.0813 H   0  0  0  0  0  0  0  0  0  0  0  0
    0.7676   -2.0577   -3.0863 H   0  0  0  0  0  0  0  0  0  0  0  0
    0.3679   -4.3090   -1.9262 H   0  0  0  0  0  0  0  0  0  0  0  0
    2.0993   -4.6130   -2.0253 H   0  0  0  0  0  0  0  0  0  0  0  0
    1.1442   -4.4801   -3.5045 H   0  0  0  0  0  0  0  0  0  0  0  0
   -2.6940   -2.2648   -2.2537 H   0  0  0  0  0  0  0  0  0  0  0  0
   -1.0456   -2.6202   -2.7433 H   0  0  0  0  0  0  0  0  0  0  0  0
   -2.0287   -0.0897   -1.3099 H   0  0  0  0  0  0  0  0  0  0  0  0
   -1.5391   -0.1927   -3.0005 H   0  0  0  0  0  0  0  0  0  0  0  0
   -0.3385   -0.3785   -1.7155 H   0  0  0  0  0  0  0  0  0  0  0  0
   -8.3980   -4.0162   -0.2194 H   0  0  0  0  0  0  0  0  0  0  0  0
  -11.3342   -3.3173   -4.6243 H   0  0  0  0  0  0  0  0  0  0  0  0
  -10.9584   -2.1179   -6.7781 H   0  0  0  0  0  0  0  0  0  0  0  0
   -8.9695   -0.7679   -7.1162 H   0  0  0  0  0  0  0  0  0  0  0  0
   -6.6413   -0.2876   -7.3179 H   0  0  0  0  0  0  0  0  0  0  0  0
   -7.5732    1.0735   -6.6212 H   0  0  0  0  0  0  0  0  0  0  0  0
   -5.8458    0.8951   -6.2418 H   0  0  0  0  0  0  0  0  0  0  0  0
  1  2  2  0  0  0  0
  2  3  1  0  0  0  0
  3  4  2  0  0  0  0
  3  5  1  0  0  0  0
  5  6  2  0  0  0  0
  6  7  1  0  0  0  0
  7  8  2  0  0  0  0
  8  9  1  0  0  0  0
  9 10  2  0  0  0  0
 10 11  1  0  0  0  0
 11 12  2  0  0  0  0
 12 13  1  0  0  0  0
 13 14  3  0  0  0  0
 12 15  1  0  0  0  0
 15 16  3  0  0  0  0
  8 17  1  0  0  0  0
 17 18  1  0  0  0  0
 18 19  1  0  0  0  0
 19 20  2  0  0  0  0
 20 21  1  0  0  0  0
 21 22  1  0  0  0  0
 21 23  1  0  0  0  0
  1 24  1  0  0  0  0
 24 25  2  0  0  0  0
 25 26  1  0  0  0  0
 26 27  2  0  0  0  0
 27 28  1  0  0  0  0
 28 29  1  0  0  0  0
 29 30  1  0  0  0  0
 27 31  1  0  0  0  0
 31 32  1  0  0  0  0
 32 33  1  0  0  0  0
 33 34  2  0  0  0  0
 34 35  1  0  0  0  0
 35 36  1  0  0  0  0
 33 37  1  0  0  0  0
 37 38  1  0  0  0  0
 38 39  1  0  0  0  0
 39 40  1  0  0  0  0
 40 41  1  0  0  0  0
 41 42  1  0  0  0  0
 42 43  1  0  0  0  0
 41 44  2  0  0  0  0
 44 45  1  0  0  0  0
 45 46  1  0  0  0  0
 46 47  1  0  0  0  0
 47 48  1  0  0  0  0
 48 49  1  0  0  0  0
 49 50  1  0  0  0  0
 50 51  1  0  0  0  0
 51 52  1  0  0  0  0
 52 53  1  0  0  0  0
 48 54  1  0  0  0  0
 54 55  1  0  0  0  0
 44 56  1  0  0  0  0
 56 57  2  0  0  0  0
 57 58  1  0  0  0  0
 58 59  2  0  0  0  0
 58 60  1  0  0  0  0
 60 61  2  0  0  0  0
 61 62  1  0  0  0  0
 62 63  2  0  0  0  0
 63 64  1  0  0  0  0
 64 65  1  0  0  0  0
 65 66  1  0  0  0  0
 64 67  2  0  0  0  0
 67 68  1  0  0  0  0
 68 69  2  0  0  0  0
 69 70  1  0  0  0  0
 70 71  3  0  0  0  0
 69 72  1  0  0  0  0
 72 73  3  0  0  0  0
 11  2  1  0  0  0  0
 23 17  1  0  0  0  0
 28 24  1  0  0  0  0
 50 31  2  0  0  0  0
 68 57  1  0  0  0  0
 10  5  1  0  0  0  0
 22 18  1  0  0  0  0
 51 26  1  0  0  0  0
 67 60  1  0  0  0  0
 23  7  1  0  0  0  0
 36 32  2  0  0  0  0
 49 37  2  0  0  0  0
 47 38  2  0  0  0  0
 46 40  2  0  0  0  0
  1 74  1  0  0  0  0
  6 75  1  0  0  0  0
  9 76  1  0  0  0  0
 17 77  1  0  0  0  0
 18 78  1  0  0  0  0
 19 79  1  0  0  0  0
 20 80  1  0  0  0  0
 21 81  1  0  0  0  0
 22 82  1  0  0  0  0
 22 83  1  0  0  0  0
 23 84  1  0  0  0  0
 25 85  1  0  0  0  0
 29 86  1  0  0  0  0
 29 87  1  0  0  0  0
 30 88  1  0  0  0  0
 30 89  1  0  0  0  0
 30 90  1  0  0  0  0
 42 91  1  0  0  0  0
 42 92  1  0  0  0  0
 43 93  1  0  0  0  0
 43 94  1  0  0  0  0
 43 95  1  0  0  0  0
 52 96  1  0  0  0  0
 52 97  1  0  0  0  0
 53 98  1  0  0  0  0
 53 99  1  0  0  0  0
 53100  1  0  0  0  0
 54101  1  0  0  0  0
 54102  1  0  0  0  0
 55103  1  0  0  0  0
 55104  1  0  0  0  0
 55105  1  0  0  0  0
 56106  1  0  0  0  0
 61107  1  0  0  0  0
 62108  1  0  0  0  0
 63109  1  0  0  0  0
 66110  1  0  0  0  0
 66111  1  0  0  0  0
 66112  1  0  0  0  0
M  END
