102

C         -0.46980       -0.58460       -7.84080
C          0.00500       -1.85950       -8.02880
C          0.61750       -2.69180       -7.00130
O          0.78580       -2.40410       -5.82020
C          1.00370       -3.95240       -7.64670
C          1.63110       -5.04680       -7.05410
C          1.85840       -6.09320       -7.91540
C          1.49370       -6.05190       -9.26750
C          0.88020       -4.97610       -9.86580
C          0.63360       -3.90150       -9.00710
C          0.00020       -2.60890       -9.27110
C         -0.51620       -2.21240      -10.47720
C         -0.50320       -2.99700      -11.65000
N         -0.53250       -3.57470      -12.64180
C         -1.14640       -0.97740      -10.73910
N         -1.67540       -0.00310      -11.04010
C          2.00580       -7.44530       -9.53150
C          0.94200       -8.55960       -9.63120
C          1.72940       -9.83090       -9.41030
C          2.07940       -9.87150       -8.13100
C          1.53350       -8.62860       -7.46540
C          0.24110       -8.44430       -8.27130
C          2.41480       -7.49130       -8.02420
C         -0.53690        0.20180       -6.68230
C         -1.07130        1.49230       -6.72570
C         -1.11810        2.14980       -5.51110
S         -1.68990        3.75830       -5.10140
C         -1.28290        3.44900       -3.45000
C         -1.30230        4.09550       -2.20750
C         -1.63180        5.42390       -1.85750
C         -1.45950        5.84300       -0.49800
N         -1.74820        7.12260       -0.32300
S         -2.20340        7.74550       -1.74600
N         -2.04860        6.40590       -2.64070
C         -1.08920        4.88340        0.47180
C         -1.01290        4.98100        1.86480
C         -0.76040        3.67670        2.34560
N         -0.65020        2.80320        1.29620
C         -0.73170        1.38590        1.57830
C         -1.96280        0.73940        0.95300
C         -0.83310        3.51970        0.12740
C         -0.81330        3.16140       -1.24450
N         -0.46530        1.99650       -1.90800
C         -0.74580        2.17390       -3.23770
C         -0.63050        1.41980       -4.40730
Se        -0.00940       -0.26430       -4.91750
C          0.48050        0.96230       -1.55590
C          1.90120        1.36190       -1.94870
C         -0.72920        3.63230        3.72620
C         -0.94400        4.89790        4.27520
S         -1.19360        6.17290        3.09930
C         -0.91370        4.70760        5.67340
C         -1.08700        5.63470        6.65620
Se        -0.57960        2.77430        5.48580
C         -1.11090        5.60150        8.06220
C         -0.96340        4.61290        9.00780
C         -0.69500        3.18960        8.81610
O         -0.55090        2.55620        7.77450
C         -0.61580        2.59180       10.15540
C         -0.37490        1.27050       10.47490
C         -0.34360        0.92140       11.82550
O         -0.12110       -0.32460       12.29360
C          0.10080       -1.36700       11.37000
C         -0.55460        1.90980       12.79870
C         -0.79400        3.22800       12.46640
C         -0.82700        3.58630       11.12310
C         -1.05050        4.85640       10.44530
C         -1.30220        6.04380       11.08330
C         -1.36480        6.18260       12.48690
N         -1.43200        6.37750       13.61640
C         -1.53920        7.30040       10.48650
N         -1.74950        8.36650       10.11200
H         -0.86780       -0.08180       -8.71480
H          1.89820       -5.03350       -6.00910
H          0.61350       -4.96150      -10.90910
H          2.78420       -7.53150      -10.28700
H          0.32040       -8.51620      -10.52120
H          1.98920      -10.51910      -10.19290
H          2.69020      -10.60050       -7.63150
H          1.45040       -8.65040       -6.38210
H         -0.25330       -7.48880       -8.10570
H         -0.46700       -9.25410       -8.10390
H          3.46780       -7.60510       -7.77340
H         -1.42100        1.92870       -7.64620
H         -0.79630        1.30220        2.66820
H          0.18890        0.87360        1.28140
H         -1.95210        0.81880       -0.13060
H         -2.86280        1.22460        1.32350
H         -1.99970       -0.31200        1.22440
H          0.44070        0.75520       -0.49320
H          0.18980        0.05510       -2.10180
H          2.59550        0.57660       -1.66420
H          2.18810        2.28500       -1.44900
H          1.97120        1.51020       -3.02460
H         -1.25150        6.63070        6.24880
H         -1.29050        6.58470        8.47990
H         -0.22060        0.55810        9.68060
H         -0.76040       -1.50670       10.71010
H          0.24590       -2.26400       11.96920
H          0.99600       -1.18340       10.76850
H         -0.52380        1.60550       13.83290
H         -0.94970        3.95120       13.24940
