111

C         -1.83300        3.55200       -4.42850
C         -2.29850        4.81440       -4.16070
C         -2.46250        5.50210       -2.86310
O         -2.36100        5.05150       -1.73800
C         -2.78420        6.90600       -3.18610
C         -2.95580        7.94890       -2.27830
C         -3.21900        9.16350       -2.86450
C         -3.30240        9.32920       -4.25330
C         -3.13930        8.30850       -5.15900
C         -2.87510        7.06220       -4.58190
C         -2.63720        5.76390       -5.20720
C         -2.76900        5.50710       -6.55000
C         -2.60600        4.25670       -7.18080
N         -2.50130        3.28060       -7.78010
C         -3.12640        6.47020       -7.51670
N         -3.41050        7.19010       -8.36530
C         -3.57810       10.80780       -4.14170
C         -5.04050       11.25560       -4.34690
C         -5.08770       12.63000       -3.71960
C         -5.00830       12.47600       -2.40410
C         -4.90760       10.99450       -2.11970
C         -5.76860       10.44700       -3.26530
C         -3.48620       10.62360       -2.59270
C         -1.44610        2.48770       -3.59820
C         -1.50630        2.34320       -2.19740
C         -0.99400        1.08850       -1.92430
C         -0.64130        0.47980       -3.14810
N         -0.92550        1.32120       -4.16020
C         -0.61720        1.06910       -5.54860
C          0.67770        1.75970       -5.97260
C         -0.14920       -0.80100       -2.84170
C          0.24950       -1.87550       -3.66660
C          0.64150       -3.11320       -3.05960
N          0.94620       -4.04420       -3.94900
S          0.76010       -3.42400       -5.43050
N          0.28070       -1.93680       -4.99080
C          0.70760       -3.18990       -1.65190
C          1.16660       -4.21020       -0.81300
S          1.78190       -5.82180       -0.92980
C          1.99930       -5.82840        0.81150
C          2.48360       -6.78760        1.68550
C          3.00160       -8.11140        1.22810
C          4.52200       -8.06970        1.04930
C          2.47060       -6.32380        3.01720
S          1.83260       -4.68000        3.13960
C          1.60560       -4.62730        1.43330
C          1.12740       -3.71030        0.49600
N          0.63570       -2.43260        0.49380
C          0.35900       -2.08470       -0.81630
C         -0.17600       -0.91490       -1.41540
N         -0.71290        0.24600       -0.87750
C         -1.35240        0.48040        0.39880
C         -2.43460       -0.55640        0.69090
C          0.81220       -1.60320        1.66590
C          1.87470       -0.53180        1.43690
C          2.92120       -7.08860        4.09100
C          2.97550       -6.81090        5.44100
C          2.50800       -5.58750        6.08810
O          2.03810       -4.59120        5.56630
C          2.71030       -5.79010        7.53910
C          2.40050       -4.93760        8.57740
C          2.68390       -5.36910        9.86970
C          2.32680       -4.49180       11.03760
F          2.34440       -3.18710       10.73130
F          1.08680       -4.75350       11.49720
F          3.15330       -4.65250       12.08140
C          3.25300       -6.61620       10.10170
C          3.56260       -7.46690        9.04920
C          3.28820       -7.05190        7.75550
C          3.48060       -7.70670        6.45740
C          4.05600       -8.94040        6.28190
C          4.54150       -9.74570        7.33340
N          4.95700      -10.45380        8.13570
C          4.26400       -9.58550        5.04510
N          4.47090      -10.17750        4.08200
H         -1.71960        3.33320       -5.48040
H         -2.87370        7.77700       -1.21630
H         -3.19680        8.45700       -6.22400
H         -2.85990       11.46230       -4.63210
H         -5.40380       11.16940       -5.36720
H         -5.11540       13.54520       -4.28140
H         -4.95630       13.23700       -1.64760
H         -5.15140       10.67270       -1.11070
H         -6.81390       10.73590       -3.16900
H         -5.69930        9.36870       -3.39580
H         -2.70550       11.15470       -2.05110
H         -1.87540        3.09070       -1.52690
H         -1.44650        1.39530       -6.18180
H         -0.49830       -0.01210       -5.65560
H          1.51320        1.37990       -5.38920
H          0.61580        2.83630       -5.82960
H          0.86630        1.56020       -7.02310
H          2.53710       -8.34500        0.26800
H          2.74200       -8.90060        1.93490
H          4.87650       -9.03530        0.70060
H          4.79640       -7.31120        0.32000
H          5.01560       -7.84320        1.99120
H         -0.61640        0.52960        1.20240
H         -1.81250        1.46810        0.32460
H         -3.20780       -0.50990       -0.07250
H         -2.88980       -0.35460        1.65690
H         -2.02730       -1.56480        0.69890
H          1.13770       -2.26720        2.47020
H         -0.13800       -1.16830        1.97500
H          2.83140       -0.99950        1.21610
H          1.61200        0.11530        0.60330
H          1.98580        0.07400        2.33190
H          3.28240       -8.06520        3.79930
H          1.95780       -3.97230        8.38590
H          3.45990       -6.92470       11.11510
H          4.00350       -8.42750        9.25680
