130

C          0.60240        0.92390       -7.20900
C          0.70810       -0.39620       -7.52480
C          0.40010       -0.87580       -8.89670
O          0.27610       -0.19940       -9.89300
C          0.22030       -2.33680       -8.76450
C         -0.18640       -3.23070       -9.75330
C         -0.27800       -4.53430       -9.32760
C          0.00880       -4.92760       -8.01310
C          0.42120       -4.06110       -7.02930
C          0.52410       -2.73080       -7.44400
C          0.98210       -1.55700       -6.70800
C          1.78150       -1.57480       -5.59280
C          2.06360       -2.72330       -4.83070
N          2.29610       -3.61680       -4.14730
C          2.47780       -0.43390       -5.14420
N          3.10130        0.46520       -4.79490
C         -0.30660       -6.37600       -8.29160
C         -1.67030       -6.89620       -7.78980
C         -1.89920       -8.15050       -8.60200
C         -2.16580       -7.78100       -9.84820
C         -2.12230       -6.27080       -9.89910
C         -2.64540       -5.94410       -8.49440
C         -0.62150       -5.93920       -9.75830
C          0.43720        1.50750       -5.93290
C          0.68660        2.83610       -5.60890
C          1.33130        3.75130       -6.55960
C          2.61290        3.41530       -6.99410
C          3.28430        4.22380       -7.88890
C          2.66860        5.36600       -8.37370
C          1.39170        5.69040       -7.95680
C          0.70410        4.90050       -7.04270
C         -0.69340        5.28320       -6.63920
C         -0.72030        6.60330       -5.86840
C          0.39250        3.10310       -4.26520
S          0.61910        4.51030       -3.25520
C          0.05810        3.60060       -1.89730
C         -0.04370        3.73300       -0.50420
C          0.37960        4.75530        0.37580
C          0.41950        4.48780        1.78740
N          0.92480        5.49790        2.47720
S          1.30760        6.68540        1.44670
N          0.84930        5.95580        0.07680
C         -0.09530        3.26280        2.26830
C         -0.21730        2.72730        3.56150
S          0.25670        3.09750        5.18390
C         -0.45500        1.58850        5.70880
C         -0.52830        0.96310        6.96040
C          0.00700        1.56080        8.18730
C         -0.76870        1.77350        9.33210
C         -2.26340        1.60140        9.33610
C         -2.93050        2.71640        8.52850
C         -0.14000        2.26620       10.46800
C          1.21330        2.55530       10.48170
C          1.96080        2.39450        9.32930
C          1.35730        1.90480        8.18740
C         -1.17660       -0.26680        6.86950
S         -1.76940       -0.59220        5.24080
C         -1.06130        0.86990        4.66860
C         -0.91040        1.51610        3.44010
N         -1.21260        1.27400        2.12380
C         -0.67870        2.31420        1.38380
C         -0.51980        2.48620       -0.01180
N         -0.66940        1.61440       -1.07290
C         -0.31050        2.28560       -2.21230
C         -0.11000        1.99800       -3.56410
S         -0.23750        0.60860       -4.57860
C         -0.73880        0.16860       -1.07010
C         -2.02640       -0.35080       -1.70770
C         -2.35790        0.45470        1.78780
C         -3.63630        1.00280        2.42170
C         -1.47070       -1.21140        7.87560
C         -0.71340       -1.46990        8.98700
C          0.74400       -1.19690        9.09530
O          1.47220       -0.73870        8.23910
C          1.13310       -1.73980       10.39780
C          0.00030       -2.35700       11.02070
C          0.29570       -2.89400       12.23410
S          1.95950       -2.64570       12.62740
C          2.27770       -1.80560       11.12720
C          3.61320       -1.26370       10.79180
C         -1.15310       -2.19690       10.16000
C         -2.43230       -2.57790       10.48080
C         -3.57280       -2.32180        9.69850
N         -4.53810       -2.11640        9.10980
C         -2.71280       -3.25450       11.68400
N         -2.95290       -3.81100       12.65900
H          0.57000        1.61260       -8.04790
H         -0.39370       -2.89120      -10.75600
H          0.64230       -4.36970       -6.02040
H          0.50610       -7.07890       -8.11960
H         -1.75260       -6.99030       -6.71040
H         -1.79150       -9.14560       -8.21200
H         -2.32520       -8.40600      -10.70720
H         -2.61720       -5.79520      -10.74160
H         -2.53000       -4.89980       -8.20990
H         -3.68320       -6.24550       -8.36150
H         -0.01670       -6.35010      -10.56440
H          3.07960        2.52290       -6.60280
H          4.27960        3.95970       -8.21240
H          3.18080        5.99870       -9.08320
H          0.90810        6.57010       -8.35600
H         -1.13610        4.49610       -6.02660
H         -1.30390        5.38630       -7.54090
H         -1.73830        6.84240       -5.57000
H         -0.10430        6.53480       -4.97540
H         -0.34170        7.41640       -6.48220
H         -2.55820        0.63710        8.92010
H         -2.62540        1.63980       10.36550
H         -2.61110        2.67980        7.48930
H         -2.66280        3.68990        8.93320
H         -4.01190        2.60880        8.56270
H         -0.72780        2.43040       11.36030
H          1.67590        2.92180       11.38620
H          3.01090        2.64420        9.31820
H          1.93770        1.75080        7.29140
H          0.11180       -0.20670       -1.65100
H         -0.62230       -0.18980       -0.04740
H         -2.05060       -0.09900       -2.76440
H         -2.06860       -1.43190       -1.61200
H         -2.91120        0.07720       -1.24170
H         -2.17580       -0.56520        2.14130
H         -2.48380        0.45070        0.71040
H         -3.80230        2.03070        2.10590
H         -3.57960        0.97610        3.50610
H         -4.48370        0.39930        2.10830
H         -2.37630       -1.78850        7.72210
H         -0.33350       -3.42030       12.92370
H          4.36310       -2.05410       10.79690
H          3.57160       -0.81150        9.80330
H          3.91630       -0.51050       11.51860
