
  xtb     02112202373D
 energy: -209.410754369454 gnorm: 0.000581503419 xtb: 6.4.1 (unknown)
134150  0     0  0            999 V2000
    5.0100    4.0490   -5.1128 C   0  0  0  0  0  0  0  0  0  0  0  0
    4.5525    5.3372   -4.9953 C   0  0  0  0  0  0  0  0  0  0  0  0
    3.5503    5.8163   -4.0362 C   0  0  0  0  0  0  0  0  0  0  0  0
    2.8868    5.1568   -3.2546 O   0  0  0  0  0  0  0  0  0  0  0  0
    3.4995    7.2810   -4.1889 C   0  0  0  0  0  0  0  0  0  0  0  0
    2.7220    8.1719   -3.4525 C   0  0  0  0  0  0  0  0  0  0  0  0
    2.9004    9.4887   -3.8018 C   0  0  0  0  0  0  0  0  0  0  0  0
    3.7837    9.8894   -4.8126 C   0  0  0  0  0  0  0  0  0  0  0  0
    4.5504    9.0196   -5.5513 C   0  0  0  0  0  0  0  0  0  0  0  0
    4.3877    7.6735   -5.2093 C   0  0  0  0  0  0  0  0  0  0  0  0
    5.0292    6.4766   -5.7536 C   0  0  0  0  0  0  0  0  0  0  0  0
    5.8972    6.4610   -6.8163 C   0  0  0  0  0  0  0  0  0  0  0  0
    6.3108    7.6062   -7.5277 C   0  0  0  0  0  0  0  0  0  0  0  0
    6.6937    8.4895   -8.1542 N   0  0  0  0  0  0  0  0  0  0  0  0
    6.4932    5.3139   -7.3797 C   0  0  0  0  0  0  0  0  0  0  0  0
    7.0180    4.4369   -7.9060 N   0  0  0  0  0  0  0  0  0  0  0  0
    3.4719   11.3525   -4.6157 C   0  0  0  0  0  0  0  0  0  0  0  0
    4.5207   12.1816   -3.8446 C   0  0  0  0  0  0  0  0  0  0  0  0
    3.7546   13.4035   -3.3915 C   0  0  0  0  0  0  0  0  0  0  0  0
    2.9187   13.0236   -2.4337 C   0  0  0  0  0  0  0  0  0  0  0  0
    3.1054   11.5383   -2.2235 C   0  0  0  0  0  0  0  0  0  0  0  0
    4.6064   11.4174   -2.5170 C   0  0  0  0  0  0  0  0  0  0  0  0
    2.4870   10.9052   -3.4883 C   0  0  0  0  0  0  0  0  0  0  0  0
    4.6365    2.8813   -4.4343 C   0  0  0  0  0  0  0  0  0  0  0  0
    3.3648    2.7194   -3.2405 S   0  0  0  0  0  0  0  0  0  0  0  0
    3.7144    1.0519   -3.0770 C   0  0  0  0  0  0  0  0  0  0  0  0
    3.0791    0.0946   -2.2205 C   0  0  0  0  0  0  0  0  0  0  0  0
    3.6452   -1.2056   -2.3051 C   0  0  0  0  0  0  0  0  0  0  0  0
    5.0711   -1.2145   -3.5568 Si  0  0  0  0  0  4  0  0  0  0  0  0
    4.7634    0.6178   -3.8894 C   0  0  0  0  0  0  0  0  0  0  0  0
    5.2706    1.6517   -4.6509 C   0  0  0  0  0  0  0  0  0  0  0  0
    6.7732   -1.5043   -2.7410 C   0  0  0  0  0  0  0  0  0  0  0  0
    7.0167   -0.5828   -1.5494 C   0  0  0  0  0  0  0  0  0  0  0  0
    4.7609   -2.3440   -5.0612 C   0  0  0  0  0  0  0  0  0  0  0  0
    5.7155   -2.0617   -6.2164 C   0  0  0  0  0  0  0  0  0  0  0  0
    3.1363   -2.2206   -1.5284 C   0  0  0  0  0  0  0  0  0  0  0  0
    2.0597   -1.9551   -0.6833 C   0  0  0  0  0  0  0  0  0  0  0  0
    1.2998   -2.7610    0.2199 C   0  0  0  0  0  0  0  0  0  0  0  0
    0.3016   -1.9124    0.7696 C   0  0  0  0  0  0  0  0  0  0  0  0
    0.4318   -0.6545    0.2400 N   0  0  0  0  0  0  0  0  0  0  0  0
   -0.3485    0.4963    0.6128 C   0  0  0  0  0  0  0  0  0  0  0  0
    0.2526    1.2152    1.8193 C   0  0  0  0  0  0  0  0  0  0  0  0
    1.4952   -0.6525   -0.6271 C   0  0  0  0  0  0  0  0  0  0  0  0
    2.0091    0.3856   -1.3866 C   0  0  0  0  0  0  0  0  0  0  0  0
   -0.6260   -2.3923    1.6805 C   0  0  0  0  0  0  0  0  0  0  0  0
   -0.5371   -3.7303    2.0335 C   0  0  0  0  0  0  0  0  0  0  0  0
   -1.4233   -4.3920    2.9433 C   0  0  0  0  0  0  0  0  0  0  0  0
   -1.2283   -5.7364    3.2194 C   0  0  0  0  0  0  0  0  0  0  0  0
    0.3142   -6.3115    2.2976 Si  0  0  0  0  0  4  0  0  0  0  0  0
    0.4684   -4.5898    1.5136 C   0  0  0  0  0  0  0  0  0  0  0  0
    1.3811   -4.0969    0.6094 C   0  0  0  0  0  0  0  0  0  0  0  0
    1.7455   -6.6670    3.5098 C   0  0  0  0  0  0  0  0  0  0  0  0
    1.9082   -5.5693    4.5586 C   0  0  0  0  0  0  0  0  0  0  0  0
   -0.0256   -7.7333    1.0745 C   0  0  0  0  0  0  0  0  0  0  0  0
    1.1678   -8.0269    0.1730 C   0  0  0  0  0  0  0  0  0  0  0  0
   -2.1890   -6.2356    4.0888 C   0  0  0  0  0  0  0  0  0  0  0  0
   -3.1073   -5.2859    4.5132 C   0  0  0  0  0  0  0  0  0  0  0  0
   -2.7781   -3.7341    3.7677 S   0  0  0  0  0  0  0  0  0  0  0  0
   -4.2341   -5.5252    5.3286 C   0  0  0  0  0  0  0  0  0  0  0  0
   -5.0555   -4.6327    5.9483 C   0  0  0  0  0  0  0  0  0  0  0  0
   -6.4467   -5.0201    6.2961 C   0  0  0  0  0  0  0  0  0  0  0  0
   -6.8981   -6.1425    6.3524 O   0  0  0  0  0  0  0  0  0  0  0  0
   -7.1657   -3.7431    6.4860 C   0  0  0  0  0  0  0  0  0  0  0  0
   -8.5351   -3.5643    6.6725 C   0  0  0  0  0  0  0  0  0  0  0  0
   -8.9191   -2.2488    6.7778 C   0  0  0  0  0  0  0  0  0  0  0  0
   -8.0109   -1.1837    6.7084 C   0  0  0  0  0  0  0  0  0  0  0  0
   -6.6564   -1.3435    6.5370 C   0  0  0  0  0  0  0  0  0  0  0  0
   -6.2471   -2.6743    6.4225 C   0  0  0  0  0  0  0  0  0  0  0  0
   -4.9066   -3.2281    6.2521 C   0  0  0  0  0  0  0  0  0  0  0  0
   -3.7337   -2.6056    6.5953 C   0  0  0  0  0  0  0  0  0  0  0  0
   -2.5070   -3.2943    6.6943 C   0  0  0  0  0  0  0  0  0  0  0  0
   -1.5051   -3.8374    6.8346 N   0  0  0  0  0  0  0  0  0  0  0  0
   -3.6364   -1.2536    6.9739 C   0  0  0  0  0  0  0  0  0  0  0  0
   -3.5001   -0.1518    7.2681 N   0  0  0  0  0  0  0  0  0  0  0  0
   -9.0927   -0.1448    6.8689 C   0  0  0  0  0  0  0  0  0  0  0  0
   -9.5323    0.5960    5.5883 C   0  0  0  0  0  0  0  0  0  0  0  0
  -10.8841    1.1691    5.9472 C   0  0  0  0  0  0  0  0  0  0  0  0
  -11.7445    0.1612    6.0141 C   0  0  0  0  0  0  0  0  0  0  0  0
  -10.9886   -1.1100    5.7011 C   0  0  0  0  0  0  0  0  0  0  0  0
   -9.9697   -0.5684    4.6901 C   0  0  0  0  0  0  0  0  0  0  0  0
  -10.1056   -1.3317    6.9478 C   0  0  0  0  0  0  0  0  0  0  0  0
    5.8055    3.8804   -5.8291 H   0  0  0  0  0  0  0  0  0  0  0  0
    2.0531    7.8183   -2.6835 H   0  0  0  0  0  0  0  0  0  0  0  0
    5.2236    9.3463   -6.3258 H   0  0  0  0  0  0  0  0  0  0  0  0
    3.0701   11.8738   -5.4824 H   0  0  0  0  0  0  0  0  0  0  0  0
    5.4479   12.3568   -4.3833 H   0  0  0  0  0  0  0  0  0  0  0  0
    3.8566   14.3752   -3.8380 H   0  0  0  0  0  0  0  0  0  0  0  0
    2.1828   13.6143   -1.9202 H   0  0  0  0  0  0  0  0  0  0  0  0
    2.7437   11.1275   -1.2847 H   0  0  0  0  0  0  0  0  0  0  0  0
    4.9580   10.3922   -2.6168 H   0  0  0  0  0  0  0  0  0  0  0  0
    5.2134   11.9401   -1.7796 H   0  0  0  0  0  0  0  0  0  0  0  0
    1.4280   11.1294   -3.6024 H   0  0  0  0  0  0  0  0  0  0  0  0
    6.0817    1.5528   -5.3516 H   0  0  0  0  0  0  0  0  0  0  0  0
    6.8501   -2.5417   -2.4138 H   0  0  0  0  0  0  0  0  0  0  0  0
    7.5634   -1.3523   -3.4767 H   0  0  0  0  0  0  0  0  0  0  0  0
    7.9919   -0.7735   -1.1055 H   0  0  0  0  0  0  0  0  0  0  0  0
    6.2564   -0.7353   -0.7870 H   0  0  0  0  0  0  0  0  0  0  0  0
    6.9800    0.4592   -1.8585 H   0  0  0  0  0  0  0  0  0  0  0  0
    3.7344   -2.2212   -5.4078 H   0  0  0  0  0  0  0  0  0  0  0  0
    4.8647   -3.3862   -4.7585 H   0  0  0  0  0  0  0  0  0  0  0  0
    6.7475   -2.2095   -5.9085 H   0  0  0  0  0  0  0  0  0  0  0  0
    5.5132   -2.7263   -7.0544 H   0  0  0  0  0  0  0  0  0  0  0  0
    5.6050   -1.0369   -6.5612 H   0  0  0  0  0  0  0  0  0  0  0  0
    3.5585   -3.2134   -1.5731 H   0  0  0  0  0  0  0  0  0  0  0  0
   -1.3654    0.1658    0.8404 H   0  0  0  0  0  0  0  0  0  0  0  0
   -0.3947    1.1736   -0.2437 H   0  0  0  0  0  0  0  0  0  0  0  0
   -0.3532    2.0785    2.0801 H   0  0  0  0  0  0  0  0  0  0  0  0
    1.2618    1.5513    1.5927 H   0  0  0  0  0  0  0  0  0  0  0  0
    0.2947    0.5463    2.6758 H   0  0  0  0  0  0  0  0  0  0  0  0
    1.6084    1.3874   -1.3507 H   0  0  0  0  0  0  0  0  0  0  0  0
   -1.3933   -1.7664    2.1117 H   0  0  0  0  0  0  0  0  0  0  0  0
    2.1556   -4.7312    0.2049 H   0  0  0  0  0  0  0  0  0  0  0  0
    2.6783   -6.7712    2.9540 H   0  0  0  0  0  0  0  0  0  0  0  0
    1.5752   -7.6205    4.0113 H   0  0  0  0  0  0  0  0  0  0  0  0
    1.0043   -5.4660    5.1536 H   0  0  0  0  0  0  0  0  0  0  0  0
    2.1084   -4.6123    4.0823 H   0  0  0  0  0  0  0  0  0  0  0  0
    2.7342   -5.7976    5.2291 H   0  0  0  0  0  0  0  0  0  0  0  0
   -0.8901   -7.4923    0.4551 H   0  0  0  0  0  0  0  0  0  0  0  0
   -0.2816   -8.6356    1.6304 H   0  0  0  0  0  0  0  0  0  0  0  0
    2.0386   -8.2974    0.7648 H   0  0  0  0  0  0  0  0  0  0  0  0
    1.4172   -7.1546   -0.4255 H   0  0  0  0  0  0  0  0  0  0  0  0
    0.9473   -8.8509   -0.5031 H   0  0  0  0  0  0  0  0  0  0  0  0
   -2.2239   -7.2537    4.4342 H   0  0  0  0  0  0  0  0  0  0  0  0
   -4.5493   -6.5628    5.3897 H   0  0  0  0  0  0  0  0  0  0  0  0
   -9.2028   -4.4099    6.7253 H   0  0  0  0  0  0  0  0  0  0  0  0
   -5.9634   -0.5199    6.4809 H   0  0  0  0  0  0  0  0  0  0  0  0
   -8.9940    0.5141    7.7294 H   0  0  0  0  0  0  0  0  0  0  0  0
   -8.7971    1.2892    5.1885 H   0  0  0  0  0  0  0  0  0  0  0  0
  -11.0574    2.2069    6.1638 H   0  0  0  0  0  0  0  0  0  0  0  0
  -12.7804    0.1892    6.2973 H   0  0  0  0  0  0  0  0  0  0  0  0
  -11.5814   -1.9706    5.4029 H   0  0  0  0  0  0  0  0  0  0  0  0
   -9.1707   -1.2668    4.4478 H   0  0  0  0  0  0  0  0  0  0  0  0
  -10.4437   -0.2246    3.7721 H   0  0  0  0  0  0  0  0  0  0  0  0
  -10.6832   -1.4637    7.8607 H   0  0  0  0  0  0  0  0  0  0  0  0
  1  2  2  0  0  0  0
  2  3  1  0  0  0  0
  3  4  2  0  0  0  0
  3  5  1  0  0  0  0
  5  6  2  0  0  0  0
  6  7  1  0  0  0  0
  7  8  2  0  0  0  0
  8  9  1  0  0  0  0
  9 10  2  0  0  0  0
 10 11  1  0  0  0  0
 11 12  2  0  0  0  0
 12 13  1  0  0  0  0
 13 14  3  0  0  0  0
 12 15  1  0  0  0  0
 15 16  3  0  0  0  0
  8 17  1  0  0  0  0
 17 18  1  0  0  0  0
 18 19  1  0  0  0  0
 19 20  2  0  0  0  0
 20 21  1  0  0  0  0
 21 22  1  0  0  0  0
 21 23  1  0  0  0  0
  1 24  1  0  0  0  0
 24 25  1  0  0  0  0
 25 26  1  0  0  0  0
 26 27  1  0  0  0  0
 27 28  2  0  0  0  0
 28 29  1  0  0  0  0
 29 30  1  0  0  0  0
 30 31  1  0  0  0  0
 29 32  1  0  0  0  0
 32 33  1  0  0  0  0
 29 34  1  0  0  0  0
 34 35  1  0  0  0  0
 28 36  1  0  0  0  0
 36 37  2  0  0  0  0
 37 38  1  0  0  0  0
 38 39  2  0  0  0  0
 39 40  1  0  0  0  0
 40 41  1  0  0  0  0
 41 42  1  0  0  0  0
 40 43  1  0  0  0  0
 43 44  2  0  0  0  0
 39 45  1  0  0  0  0
 45 46  2  0  0  0  0
 46 47  1  0  0  0  0
 47 48  2  0  0  0  0
 48 49  1  0  0  0  0
 49 50  1  0  0  0  0
 50 51  2  0  0  0  0
 49 52  1  0  0  0  0
 52 53  1  0  0  0  0
 49 54  1  0  0  0  0
 54 55  1  0  0  0  0
 48 56  1  0  0  0  0
 56 57  2  0  0  0  0
 57 58  1  0  0  0  0
 57 59  1  0  0  0  0
 59 60  2  0  0  0  0
 60 61  1  0  0  0  0
 61 62  2  0  0  0  0
 61 63  1  0  0  0  0
 63 64  2  0  0  0  0
 64 65  1  0  0  0  0
 65 66  2  0  0  0  0
 66 67  1  0  0  0  0
 67 68  2  0  0  0  0
 68 69  1  0  0  0  0
 69 70  2  0  0  0  0
 70 71  1  0  0  0  0
 71 72  3  0  0  0  0
 70 73  1  0  0  0  0
 73 74  3  0  0  0  0
 66 75  1  0  0  0  0
 75 76  1  0  0  0  0
 76 77  1  0  0  0  0
 77 78  2  0  0  0  0
 78 79  1  0  0  0  0
 79 80  1  0  0  0  0
 79 81  1  0  0  0  0
 11  2  1  0  0  0  0
 23 17  1  0  0  0  0
 31 24  2  0  0  0  0
 43 37  1  0  0  0  0
 50 46  1  0  0  0  0
 69 60  1  0  0  0  0
 81 75  1  0  0  0  0
 10  5  1  0  0  0  0
 22 18  1  0  0  0  0
 30 26  2  0  0  0  0
 51 38  1  0  0  0  0
 68 63  1  0  0  0  0
 80 76  1  0  0  0  0
 23  7  1  0  0  0  0
 44 27  1  0  0  0  0
 58 47  1  0  0  0  0
 81 65  1  0  0  0  0
  1 82  1  0  0  0  0
  6 83  1  0  0  0  0
  9 84  1  0  0  0  0
 17 85  1  0  0  0  0
 18 86  1  0  0  0  0
 19 87  1  0  0  0  0
 20 88  1  0  0  0  0
 21 89  1  0  0  0  0
 22 90  1  0  0  0  0
 22 91  1  0  0  0  0
 23 92  1  0  0  0  0
 31 93  1  0  0  0  0
 32 94  1  0  0  0  0
 32 95  1  0  0  0  0
 33 96  1  0  0  0  0
 33 97  1  0  0  0  0
 33 98  1  0  0  0  0
 34 99  1  0  0  0  0
 34100  1  0  0  0  0
 35101  1  0  0  0  0
 35102  1  0  0  0  0
 35103  1  0  0  0  0
 36104  1  0  0  0  0
 41105  1  0  0  0  0
 41106  1  0  0  0  0
 42107  1  0  0  0  0
 42108  1  0  0  0  0
 42109  1  0  0  0  0
 44110  1  0  0  0  0
 45111  1  0  0  0  0
 51112  1  0  0  0  0
 52113  1  0  0  0  0
 52114  1  0  0  0  0
 53115  1  0  0  0  0
 53116  1  0  0  0  0
 53117  1  0  0  0  0
 54118  1  0  0  0  0
 54119  1  0  0  0  0
 55120  1  0  0  0  0
 55121  1  0  0  0  0
 55122  1  0  0  0  0
 56123  1  0  0  0  0
 59124  1  0  0  0  0
 64125  1  0  0  0  0
 67126  1  0  0  0  0
 75127  1  0  0  0  0
 76128  1  0  0  0  0
 77129  1  0  0  0  0
 78130  1  0  0  0  0
 79131  1  0  0  0  0
 80132  1  0  0  0  0
 80133  1  0  0  0  0
 81134  1  0  0  0  0
M  END
