124

C         -2.10080        3.89010       -6.41770
C         -1.36740        3.94170       -7.57350
C         -0.22820        3.07900       -7.91150
O          0.16920        2.10060       -7.30290
C          0.35920        3.63310       -9.14210
C          1.50450        3.18670       -9.79820
C          1.83550        3.92560      -10.90830
C          1.08380        5.02900      -11.33400
C         -0.04970        5.47700      -10.69790
C         -0.40720        4.73730       -9.56630
C         -1.52010        4.91830       -8.63540
C         -2.53250        5.83170       -8.77950
C         -3.63060        5.98760       -7.90790
N         -4.55690        6.17860       -7.25530
C         -2.63930        6.74310       -9.85100
N         -2.79440        7.51200      -10.68950
C          1.99790        5.30230      -12.50250
C          1.49480        4.86070      -13.89290
C          2.75140        4.80800      -14.73160
C          3.46120        3.76130      -14.32990
C          2.69650        3.08910      -13.21240
C          1.25930        3.36030      -13.67550
C          2.83460        4.07040      -12.02910
C         -1.99520        3.03320       -5.31060
C         -2.76770        3.21980       -4.16180
C         -2.47620        2.29780       -3.17570
S         -3.03020        2.05040       -1.53960
C         -1.92430        0.72400       -1.39160
C         -1.52000       -0.15460       -0.33850
C         -0.51050       -0.99670       -0.86710
C         -0.27570       -0.70460       -2.33610
C         -0.79970       -1.83580       -3.25280
C         -0.11000       -3.18390       -3.09740
C          1.18700       -0.35630       -2.64630
C          1.68280        0.84390       -1.84790
C         -1.18610        0.47440       -2.53460
C         -1.48910        1.36570       -3.55970
S         -0.90540        1.66030       -5.15250
C          0.13520       -1.89480       -0.05000
C         -0.24050       -1.92960        1.29040
C          0.24430       -2.73420        2.36630
C         -0.40290       -2.40610        3.54380
C         -1.39510       -1.29870        3.31720
C         -1.23990       -1.07880        1.82380
C         -1.90780       -0.20310        0.99890
C         -0.91470       -0.08860        4.15250
C         -1.71390        1.19680        3.99030
C         -2.82000       -1.72330        3.70410
C         -3.25320       -3.01140        3.01350
C          0.08260       -3.13640        4.62580
C          1.09230       -4.04350        4.23990
S          1.43910       -3.97710        2.53220
C          1.61350       -4.76380        5.29630
C          1.03750       -4.40900        6.51790
S         -0.19890       -3.17120        6.32500
C          1.46470       -4.98400        7.72510
C          1.12040       -4.69360        9.01840
C          0.18840       -3.64300        9.44710
O         -0.52600       -2.95160        8.74190
C          0.28920       -3.57530       10.91400
C         -0.36470       -2.68030       11.75840
C         -0.04370       -2.82960       13.08610
C          0.85720       -3.80140       13.54160
C          1.49980       -4.69750       12.72070
C          1.19110       -4.56090       11.36370
C          1.68440       -5.30580       10.20650
C          2.50840       -6.40040       10.26050
C          2.95950       -7.14760        9.15230
N          3.36780       -7.81600        8.31160
C          3.01530       -6.96080       11.45180
N          3.46380       -7.47090       12.37760
C          0.72590       -3.36460       14.97940
C          1.88340       -2.51620       15.54790
C          1.27910       -1.84650       16.76100
C          0.42460       -0.92710       16.33060
C          0.43720       -0.95980       14.81930
C          1.90620       -1.32930       14.57610
C         -0.27990       -2.28200       14.47170
H         -2.86900        4.64390       -6.29280
H          2.05880        2.33790       -9.42950
H         -0.60980        6.33340      -11.03390
H          2.47270        6.28150      -12.51270
H          0.66820        5.44680      -14.28490
H          3.01250        5.54510      -15.46810
H          4.43360        3.44960      -14.66350
H          2.96470        2.06080      -12.98540
H          1.02150        2.84260      -14.60320
H          0.50170        3.13390      -12.92760
H          3.86800        4.22810      -11.72560
H         -3.49220        4.00930       -4.07380
H         -1.86700       -1.96310       -3.05250
H         -0.69340       -1.49150       -4.28420
H          0.95700       -3.10830       -3.28710
H         -0.52990       -3.88440       -3.81580
H         -0.26630       -3.58880       -2.10130
H          1.26930       -0.14160       -3.71390
H          1.81500       -1.21810       -2.41960
H          1.59900        0.65700       -0.77920
H          2.72560        1.04210       -2.08270
H          1.10470        1.73350       -2.08720
H          0.92440       -2.53830       -0.40610
H         -2.69740        0.43990        1.35460
H          0.12710        0.11030        3.88700
H         -0.93720       -0.39530        5.20120
H         -1.62740        1.58650        2.98000
H         -2.76370        1.04460        4.22480
H         -1.32300        1.94710        4.67410
H         -3.51290       -0.92580        3.43480
H         -2.85600       -1.86000        4.78690
H         -4.27590       -3.25620        3.28950
H         -2.61360       -3.84140        3.30460
H         -3.20460       -2.90310        1.93180
H          2.38700       -5.50620        5.21460
H          2.21730       -5.75000        7.58060
H         -1.05110       -1.94760       11.36400
H          2.18910       -5.43860       13.08890
H          0.37080       -4.12150       15.67580
H          2.81280       -3.05820       15.69980
H          1.48730       -2.13870       17.77350
H         -0.22370       -0.29780       16.91160
H          0.04940       -0.08310       14.30750
H          2.58700       -0.54440       14.90150
H          2.13130       -1.60200       13.54660
H         -1.30710       -2.31640       14.82940
