
  xtb     02022223383D
 energy: -184.993309610926 gnorm: 0.000475435362 xtb: 6.4.1 (unknown)
104117  0     0  0            999 V2000
   -0.2305   -3.3029   -3.4583 C   0  0  0  0  0  0  0  0  0  0  0  0
    0.0871   -2.9477   -4.7464 C   0  0  0  0  0  0  0  0  0  0  0  0
    0.6251   -1.6729   -5.2614 C   0  0  0  0  0  0  0  0  0  0  0  0
    0.8264   -0.6284   -4.6709 O   0  0  0  0  0  0  0  0  0  0  0  0
    0.9093   -1.8997   -6.6919 C   0  0  0  0  0  0  0  0  0  0  0  0
    1.4606   -0.9814   -7.5827 C   0  0  0  0  0  0  0  0  0  0  0  0
    1.6253   -1.4685   -8.8567 C   0  0  0  0  0  0  0  0  0  0  0  0
    1.2753   -2.7765   -9.2161 C   0  0  0  0  0  0  0  0  0  0  0  0
    0.7311   -3.6914   -8.3465 C   0  0  0  0  0  0  0  0  0  0  0  0
    0.5465   -3.2123   -7.0454 C   0  0  0  0  0  0  0  0  0  0  0  0
   -0.0024   -3.8722   -5.8626 C   0  0  0  0  0  0  0  0  0  0  0  0
   -0.5468   -5.1341   -5.8565 C   0  0  0  0  0  0  0  0  0  0  0  0
   -0.6212   -5.9787   -6.9834 C   0  0  0  0  0  0  0  0  0  0  0  0
   -0.7210   -6.7289   -7.8476 N   0  0  0  0  0  0  0  0  0  0  0  0
   -1.1380   -5.7863   -4.7555 C   0  0  0  0  0  0  0  0  0  0  0  0
   -1.6462   -6.3942   -3.9213 N   0  0  0  0  0  0  0  0  0  0  0  0
    1.7129   -2.5857  -10.6476 C   0  0  0  0  0  0  0  0  0  0  0  0
    0.5932   -2.3721  -11.6877 C   0  0  0  0  0  0  0  0  0  0  0  0
    1.3055   -1.7435  -12.8635 C   0  0  0  0  0  0  0  0  0  0  0  0
    1.6301   -0.5029  -12.5226 C   0  0  0  0  0  0  0  0  0  0  0  0
    1.1436   -0.2726  -11.1101 C   0  0  0  0  0  0  0  0  0  0  0  0
   -0.1229   -1.1385  -11.1227 C   0  0  0  0  0  0  0  0  0  0  0  0
    2.0982   -1.1253  -10.2474 C   0  0  0  0  0  0  0  0  0  0  0  0
   -0.2602   -2.5789   -2.2573 C   0  0  0  0  0  0  0  0  0  0  0  0
   -0.0636   -1.2053   -2.0050 C   0  0  0  0  0  0  0  0  0  0  0  0
   -0.2496   -1.0394   -0.6461 C   0  0  0  0  0  0  0  0  0  0  0  0
   -0.5499   -2.2989   -0.0840 C   0  0  0  0  0  0  0  0  0  0  0  0
   -0.5681   -3.2266   -1.0592 N   0  0  0  0  0  0  0  0  0  0  0  0
   -0.7667   -4.6406   -0.8440 C   0  0  0  0  0  0  0  0  0  0  0  0
    0.5610   -5.3952   -0.8197 C   0  0  0  0  0  0  0  0  0  0  0  0
   -0.6976   -2.1045    1.3011 C   0  0  0  0  0  0  0  0  0  0  0  0
   -0.8939   -3.0150    2.3622 C   0  0  0  0  0  0  0  0  0  0  0  0
   -0.8786   -2.5286    3.7112 C   0  0  0  0  0  0  0  0  0  0  0  0
   -1.0186   -3.4953    4.6038 N   0  0  0  0  0  0  0  0  0  0  0  0
   -1.1669   -4.9029    3.8214 S   0  0  0  0  0  0  0  0  0  0  0  0
   -1.0564   -4.3297    2.3070 N   0  0  0  0  0  0  0  0  0  0  0  0
   -0.7834   -1.1381    3.9323 C   0  0  0  0  0  0  0  0  0  0  0  0
   -0.8660   -0.3888    5.1120 C   0  0  0  0  0  0  0  0  0  0  0  0
   -1.0084   -0.6421    6.8171 S   0  0  0  0  0  0  0  0  0  0  0  0
   -1.0534    1.0972    7.0388 C   0  0  0  0  0  0  0  0  0  0  0  0
   -1.1683    1.8932    8.1712 C   0  0  0  0  0  0  0  0  0  0  0  0
   -1.2355    1.3358    9.5554 C   0  0  0  0  0  0  0  0  0  0  0  0
    0.1529    1.3168   10.2005 C   0  0  0  0  0  0  0  0  0  0  0  0
   -1.1542    3.2568    7.8418 C   0  0  0  0  0  0  0  0  0  0  0  0
   -1.0066    3.5213    6.1024 S   0  0  0  0  0  0  0  0  0  0  0  0
   -0.9605    1.8203    5.8367 C   0  0  0  0  0  0  0  0  0  0  0  0
   -0.8490    0.9605    4.7398 C   0  0  0  0  0  0  0  0  0  0  0  0
   -0.7316    1.0703    3.3806 N   0  0  0  0  0  0  0  0  0  0  0  0
   -0.6752   -0.2086    2.8546 C   0  0  0  0  0  0  0  0  0  0  0  0
   -0.5169   -0.7053    1.5348 C   0  0  0  0  0  0  0  0  0  0  0  0
   -0.2351   -0.0752    0.3318 N   0  0  0  0  0  0  0  0  0  0  0  0
    0.4368    1.1783    0.0677 C   0  0  0  0  0  0  0  0  0  0  0  0
    1.7578    1.2855    0.8259 C   0  0  0  0  0  0  0  0  0  0  0  0
   -1.0385    2.3312    2.7410 C   0  0  0  0  0  0  0  0  0  0  0  0
   -2.3525    2.2611    1.9679 C   0  0  0  0  0  0  0  0  0  0  0  0
   -1.2409    4.2969    8.7727 C   0  0  0  0  0  0  0  0  0  0  0  0
   -1.2165    5.6547    8.5923 C   0  0  0  0  0  0  0  0  0  0  0  0
   -1.3093    6.5690    9.7427 C   0  0  0  0  0  0  0  0  0  0  0  0
   -1.4154    6.2681   10.9113 O   0  0  0  0  0  0  0  0  0  0  0  0
   -1.2425    7.9406    9.1691 C   0  0  0  0  0  0  0  0  0  0  0  0
   -1.2831    9.1647    9.8046 C   0  0  0  0  0  0  0  0  0  0  0  0
   -1.2004   10.3138    9.0238 C   0  0  0  0  0  0  0  0  0  0  0  0
   -1.2481   11.8552    9.7826 Cl  0  0  0  0  0  0  0  0  0  0  0  0
   -1.0799   10.2271    7.6334 C   0  0  0  0  0  0  0  0  0  0  0  0
   -0.9800   11.6629    6.6930 Cl  0  0  0  0  0  0  0  0  0  0  0  0
   -1.0391    8.9903    6.9976 C   0  0  0  0  0  0  0  0  0  0  0  0
   -1.1211    7.8545    7.7774 C   0  0  0  0  0  0  0  0  0  0  0  0
   -1.1028    6.4265    7.3630 C   0  0  0  0  0  0  0  0  0  0  0  0
   -1.0149    6.0167    6.2191 O   0  0  0  0  0  0  0  0  0  0  0  0
   -0.5069   -4.3402   -3.3373 H   0  0  0  0  0  0  0  0  0  0  0  0
    1.7231    0.0138   -7.2593 H   0  0  0  0  0  0  0  0  0  0  0  0
    0.4744   -4.6951   -8.6401 H   0  0  0  0  0  0  0  0  0  0  0  0
    2.4978   -3.2539  -10.9970 H   0  0  0  0  0  0  0  0  0  0  0  0
   -0.0103   -3.2518  -11.8938 H   0  0  0  0  0  0  0  0  0  0  0  0
    1.5416   -2.2666  -13.7716 H   0  0  0  0  0  0  0  0  0  0  0  0
    2.1916    0.2171  -13.0887 H   0  0  0  0  0  0  0  0  0  0  0  0
    1.0408    0.7610  -10.7902 H   0  0  0  0  0  0  0  0  0  0  0  0
   -0.5648   -1.2934  -10.1402 H   0  0  0  0  0  0  0  0  0  0  0  0
   -0.8784   -0.7525  -11.8051 H   0  0  0  0  0  0  0  0  0  0  0  0
    3.1388   -0.8181  -10.3347 H   0  0  0  0  0  0  0  0  0  0  0  0
    0.1768   -0.4804   -2.7541 H   0  0  0  0  0  0  0  0  0  0  0  0
   -1.2535   -4.7494    0.1279 H   0  0  0  0  0  0  0  0  0  0  0  0
   -1.4231   -5.0509   -1.6161 H   0  0  0  0  0  0  0  0  0  0  0  0
    1.1783   -5.0358    0.0002 H   0  0  0  0  0  0  0  0  0  0  0  0
    0.3724   -6.4546   -0.6757 H   0  0  0  0  0  0  0  0  0  0  0  0
    1.1065   -5.2625   -1.7514 H   0  0  0  0  0  0  0  0  0  0  0  0
   -1.9195    1.9208   10.1719 H   0  0  0  0  0  0  0  0  0  0  0  0
   -1.6156    0.3140    9.4950 H   0  0  0  0  0  0  0  0  0  0  0  0
    0.5553    2.3241   10.2776 H   0  0  0  0  0  0  0  0  0  0  0  0
    0.0935    0.8884   11.1974 H   0  0  0  0  0  0  0  0  0  0  0  0
    0.8360    0.7157    9.6050 H   0  0  0  0  0  0  0  0  0  0  0  0
   -0.2176    2.0247    0.2809 H   0  0  0  0  0  0  0  0  0  0  0  0
    0.6379    1.1890   -1.0057 H   0  0  0  0  0  0  0  0  0  0  0  0
    2.4265    0.4846    0.5185 H   0  0  0  0  0  0  0  0  0  0  0  0
    1.6068    1.2078    1.9000 H   0  0  0  0  0  0  0  0  0  0  0  0
    2.2345    2.2372    0.6068 H   0  0  0  0  0  0  0  0  0  0  0  0
   -0.2136    2.6502    2.1037 H   0  0  0  0  0  0  0  0  0  0  0  0
   -1.1297    3.0705    3.5404 H   0  0  0  0  0  0  0  0  0  0  0  0
   -3.1695    2.0242    2.6456 H   0  0  0  0  0  0  0  0  0  0  0  0
   -2.5576    3.2216    1.5034 H   0  0  0  0  0  0  0  0  0  0  0  0
   -2.3186    1.4961    1.1958 H   0  0  0  0  0  0  0  0  0  0  0  0
   -1.3375    3.9908    9.8100 H   0  0  0  0  0  0  0  0  0  0  0  0
   -1.3767    9.2314   10.8771 H   0  0  0  0  0  0  0  0  0  0  0  0
   -0.9457    8.9238    5.9251 H   0  0  0  0  0  0  0  0  0  0  0  0
  1  2  2  0  0  0  0
  2  3  1  0  0  0  0
  3  4  2  0  0  0  0
  3  5  1  0  0  0  0
  5  6  2  0  0  0  0
  6  7  1  0  0  0  0
  7  8  2  0  0  0  0
  8  9  1  0  0  0  0
  9 10  2  0  0  0  0
 10 11  1  0  0  0  0
 11 12  2  0  0  0  0
 12 13  1  0  0  0  0
 13 14  3  0  0  0  0
 12 15  1  0  0  0  0
 15 16  3  0  0  0  0
  8 17  1  0  0  0  0
 17 18  1  0  0  0  0
 18 19  1  0  0  0  0
 19 20  2  0  0  0  0
 20 21  1  0  0  0  0
 21 22  1  0  0  0  0
 21 23  1  0  0  0  0
  1 24  1  0  0  0  0
 24 25  2  0  0  0  0
 25 26  1  0  0  0  0
 26 27  2  0  0  0  0
 27 28  1  0  0  0  0
 28 29  1  0  0  0  0
 29 30  1  0  0  0  0
 27 31  1  0  0  0  0
 31 32  1  0  0  0  0
 32 33  1  0  0  0  0
 33 34  2  0  0  0  0
 34 35  1  0  0  0  0
 35 36  1  0  0  0  0
 33 37  1  0  0  0  0
 37 38  1  0  0  0  0
 38 39  1  0  0  0  0
 39 40  1  0  0  0  0
 40 41  1  0  0  0  0
 41 42  1  0  0  0  0
 42 43  1  0  0  0  0
 41 44  2  0  0  0  0
 44 45  1  0  0  0  0
 45 46  1  0  0  0  0
 46 47  1  0  0  0  0
 47 48  1  0  0  0  0
 48 49  1  0  0  0  0
 49 50  1  0  0  0  0
 50 51  1  0  0  0  0
 51 52  1  0  0  0  0
 52 53  1  0  0  0  0
 48 54  1  0  0  0  0
 54 55  1  0  0  0  0
 44 56  1  0  0  0  0
 56 57  2  0  0  0  0
 57 58  1  0  0  0  0
 58 59  2  0  0  0  0
 58 60  1  0  0  0  0
 60 61  2  0  0  0  0
 61 62  1  0  0  0  0
 62 63  1  0  0  0  0
 62 64  2  0  0  0  0
 64 65  1  0  0  0  0
 64 66  1  0  0  0  0
 66 67  2  0  0  0  0
 67 68  1  0  0  0  0
 68 69  2  0  0  0  0
 11  2  1  0  0  0  0
 23 17  1  0  0  0  0
 28 24  1  0  0  0  0
 50 31  2  0  0  0  0
 68 57  1  0  0  0  0
 10  5  1  0  0  0  0
 22 18  1  0  0  0  0
 51 26  1  0  0  0  0
 67 60  1  0  0  0  0
 23  7  1  0  0  0  0
 36 32  2  0  0  0  0
 49 37  2  0  0  0  0
 47 38  2  0  0  0  0
 46 40  2  0  0  0  0
  1 70  1  0  0  0  0
  6 71  1  0  0  0  0
  9 72  1  0  0  0  0
 17 73  1  0  0  0  0
 18 74  1  0  0  0  0
 19 75  1  0  0  0  0
 20 76  1  0  0  0  0
 21 77  1  0  0  0  0
 22 78  1  0  0  0  0
 22 79  1  0  0  0  0
 23 80  1  0  0  0  0
 25 81  1  0  0  0  0
 29 82  1  0  0  0  0
 29 83  1  0  0  0  0
 30 84  1  0  0  0  0
 30 85  1  0  0  0  0
 30 86  1  0  0  0  0
 42 87  1  0  0  0  0
 42 88  1  0  0  0  0
 43 89  1  0  0  0  0
 43 90  1  0  0  0  0
 43 91  1  0  0  0  0
 52 92  1  0  0  0  0
 52 93  1  0  0  0  0
 53 94  1  0  0  0  0
 53 95  1  0  0  0  0
 53 96  1  0  0  0  0
 54 97  1  0  0  0  0
 54 98  1  0  0  0  0
 55 99  1  0  0  0  0
 55100  1  0  0  0  0
 55101  1  0  0  0  0
 56102  1  0  0  0  0
 61103  1  0  0  0  0
 66104  1  0  0  0  0
M  END
