
  xtb     02022218013D
 energy: -186.307407913929 gnorm: 0.000178266931 xtb: 6.4.1 (unknown)
104117  0     0  0            999 V2000
   -3.5497    0.3024   -4.7745 C   0  0  0  0  0  0  0  0  0  0  0  0
   -4.6407    0.9606   -4.3062 C   0  0  0  0  0  0  0  0  0  0  0  0
   -5.0578    0.9205   -2.8773 C   0  0  0  0  0  0  0  0  0  0  0  0
   -4.4139    0.5359   -1.9264 O   0  0  0  0  0  0  0  0  0  0  0  0
   -6.4780    1.3200   -2.8799 C   0  0  0  0  0  0  0  0  0  0  0  0
   -7.3358    1.3481   -1.7822 C   0  0  0  0  0  0  0  0  0  0  0  0
   -8.6209    1.7290   -2.0841 C   0  0  0  0  0  0  0  0  0  0  0  0
   -9.0293    2.0592   -3.3841 C   0  0  0  0  0  0  0  0  0  0  0  0
   -8.1952    2.0385   -4.4761 C   0  0  0  0  0  0  0  0  0  0  0  0
   -6.8830    1.6505   -4.1903 C   0  0  0  0  0  0  0  0  0  0  0  0
   -5.7409    1.4984   -5.0818 C   0  0  0  0  0  0  0  0  0  0  0  0
   -5.6619    1.8831   -6.3933 C   0  0  0  0  0  0  0  0  0  0  0  0
   -6.7310    2.4300   -7.1314 C   0  0  0  0  0  0  0  0  0  0  0  0
   -7.5680    2.8730   -7.7801 N   0  0  0  0  0  0  0  0  0  0  0  0
   -4.4672    1.8272   -7.1427 C   0  0  0  0  0  0  0  0  0  0  0  0
   -3.5139    1.8402   -7.7821 N   0  0  0  0  0  0  0  0  0  0  0  0
  -10.4513    2.3209   -2.9563 C   0  0  0  0  0  0  0  0  0  0  0  0
  -11.5089    1.2340   -3.2713 C   0  0  0  0  0  0  0  0  0  0  0  0
  -10.7676   -0.0781   -3.3433 C   0  0  0  0  0  0  0  0  0  0  0  0
  -10.3798   -0.3920   -2.1144 C   0  0  0  0  0  0  0  0  0  0  0  0
  -10.8526    0.7019   -1.1888 C   0  0  0  0  0  0  0  0  0  0  0  0
  -12.1631    1.0992   -1.8869 C   0  0  0  0  0  0  0  0  0  0  0  0
   -9.9966    1.9528   -1.5088 C   0  0  0  0  0  0  0  0  0  0  0  0
   -2.4688   -0.1138   -3.9364 C   0  0  0  0  0  0  0  0  0  0  0  0
   -2.0306   -1.8175   -3.9505 S   0  0  0  0  0  0  0  0  0  0  0  0
   -0.8427   -1.5004   -2.7613 C   0  0  0  0  0  0  0  0  0  0  0  0
    0.1026   -2.2007   -2.0013 C   0  0  0  0  0  0  0  0  0  0  0  0
    0.3413   -3.5860   -1.8709 C   0  0  0  0  0  0  0  0  0  0  0  0
    1.3010   -4.0307   -0.9043 C   0  0  0  0  0  0  0  0  0  0  0  0
    1.3827   -5.3501   -0.8401 N   0  0  0  0  0  0  0  0  0  0  0  0
    0.3426   -5.9791   -1.9104 S   0  0  0  0  0  0  0  0  0  0  0  0
   -0.2515   -4.5916   -2.4949 N   0  0  0  0  0  0  0  0  0  0  0  0
    2.0601   -3.0648   -0.2074 C   0  0  0  0  0  0  0  0  0  0  0  0
    3.1390   -3.2128    0.6712 C   0  0  0  0  0  0  0  0  0  0  0  0
    4.0236   -4.4775    1.4491 S   0  0  0  0  0  0  0  0  0  0  0  0
    5.0754   -3.2623    2.1508 C   0  0  0  0  0  0  0  0  0  0  0  0
    6.1799   -3.3575    2.9840 C   0  0  0  0  0  0  0  0  0  0  0  0
    6.6681   -4.6577    3.5333 C   0  0  0  0  0  0  0  0  0  0  0  0
    6.0866   -4.9081    4.9277 C   0  0  0  0  0  0  0  0  0  0  0  0
    6.7147   -2.0889    3.2736 C   0  0  0  0  0  0  0  0  0  0  0  0
    5.8104   -0.7921    2.4867 S   0  0  0  0  0  0  0  0  0  0  0  0
    4.7380   -1.9454    1.7872 C   0  0  0  0  0  0  0  0  0  0  0  0
    3.6216   -1.9271    0.9478 C   0  0  0  0  0  0  0  0  0  0  0  0
    2.8584   -0.9930    0.2986 N   0  0  0  0  0  0  0  0  0  0  0  0
    1.8771   -1.6637   -0.4103 C   0  0  0  0  0  0  0  0  0  0  0  0
    0.7985   -1.2321   -1.2283 C   0  0  0  0  0  0  0  0  0  0  0  0
    0.2452    0.0150   -1.4863 N   0  0  0  0  0  0  0  0  0  0  0  0
   -0.7568   -0.1467   -2.4175 C   0  0  0  0  0  0  0  0  0  0  0  0
   -1.6874    0.6661   -3.1037 C   0  0  0  0  0  0  0  0  0  0  0  0
   -1.7010    2.1689   -3.1543 C   0  0  0  0  0  0  0  0  0  0  0  0
   -2.5465    2.8501   -2.0673 C   0  0  0  0  0  0  0  0  0  0  0  0
    0.2806    1.1730   -0.6183 C   0  0  0  0  0  0  0  0  0  0  0  0
   -0.1107    0.8170    0.8141 C   0  0  0  0  0  0  0  0  0  0  0  0
    3.3531    0.3596    0.1611 C   0  0  0  0  0  0  0  0  0  0  0  0
    3.7359    0.6741   -1.2823 C   0  0  0  0  0  0  0  0  0  0  0  0
    7.8358   -1.9043    4.0849 C   0  0  0  0  0  0  0  0  0  0  0  0
    8.5008   -0.7655    4.4710 C   0  0  0  0  0  0  0  0  0  0  0  0
    8.1634    0.6162    4.0918 C   0  0  0  0  0  0  0  0  0  0  0  0
    7.2470    0.9996    3.3867 O   0  0  0  0  0  0  0  0  0  0  0  0
    9.1806    1.4337    4.7486 C   0  0  0  0  0  0  0  0  0  0  0  0
    9.5478    3.1011    4.8436 S   0  0  0  0  0  0  0  0  0  0  0  0
   10.9060    2.7225    5.8632 C   0  0  0  0  0  0  0  0  0  0  0  0
   11.9958    4.1026    6.5089 Br  0  0  0  0  0  0  0  0  0  0  0  0
   11.0675    1.3879    6.1163 C   0  0  0  0  0  0  0  0  0  0  0  0
   10.0656    0.6447    5.4683 C   0  0  0  0  0  0  0  0  0  0  0  0
    9.6735   -0.7480    5.3232 C   0  0  0  0  0  0  0  0  0  0  0  0
   10.3336   -1.7982    5.9086 C   0  0  0  0  0  0  0  0  0  0  0  0
   11.4724   -1.5969    6.7165 C   0  0  0  0  0  0  0  0  0  0  0  0
   12.4000   -1.4550    7.3769 N   0  0  0  0  0  0  0  0  0  0  0  0
    9.9910   -3.1597    5.7972 C   0  0  0  0  0  0  0  0  0  0  0  0
    9.7693   -4.2863    5.7510 N   0  0  0  0  0  0  0  0  0  0  0  0
   -3.5125   -0.0115   -5.8116 H   0  0  0  0  0  0  0  0  0  0  0  0
   -6.9834    1.0846   -0.7971 H   0  0  0  0  0  0  0  0  0  0  0  0
   -8.5209    2.2850   -5.4733 H   0  0  0  0  0  0  0  0  0  0  0  0
  -10.8249    3.3274   -3.1336 H   0  0  0  0  0  0  0  0  0  0  0  0
  -12.1573    1.4659   -4.1118 H   0  0  0  0  0  0  0  0  0  0  0  0
  -10.5590   -0.5985   -4.2596 H   0  0  0  0  0  0  0  0  0  0  0  0
   -9.7819   -1.2269   -1.7991 H   0  0  0  0  0  0  0  0  0  0  0  0
  -10.9044    0.4483   -0.1332 H   0  0  0  0  0  0  0  0  0  0  0  0
  -12.9142    0.3117   -1.8514 H   0  0  0  0  0  0  0  0  0  0  0  0
  -12.5883    2.0304   -1.5150 H   0  0  0  0  0  0  0  0  0  0  0  0
  -10.0758    2.7179   -0.7389 H   0  0  0  0  0  0  0  0  0  0  0  0
    7.7574   -4.6799    3.5857 H   0  0  0  0  0  0  0  0  0  0  0  0
    6.3413   -5.4550    2.8630 H   0  0  0  0  0  0  0  0  0  0  0  0
    6.4375   -5.8637    5.3062 H   0  0  0  0  0  0  0  0  0  0  0  0
    5.0000   -4.9251    4.8864 H   0  0  0  0  0  0  0  0  0  0  0  0
    6.3963   -4.1290    5.6202 H   0  0  0  0  0  0  0  0  0  0  0  0
   -2.0725    2.4731   -4.1350 H   0  0  0  0  0  0  0  0  0  0  0  0
   -0.6653    2.5121   -3.0852 H   0  0  0  0  0  0  0  0  0  0  0  0
   -2.1039    3.8021   -1.7813 H   0  0  0  0  0  0  0  0  0  0  0  0
   -2.6406    2.2216   -1.1853 H   0  0  0  0  0  0  0  0  0  0  0  0
   -3.5516    3.0447   -2.4313 H   0  0  0  0  0  0  0  0  0  0  0  0
   -0.4452    1.8824   -1.0073 H   0  0  0  0  0  0  0  0  0  0  0  0
    1.2597    1.6526   -0.6592 H   0  0  0  0  0  0  0  0  0  0  0  0
   -0.0991    1.7116    1.4315 H   0  0  0  0  0  0  0  0  0  0  0  0
    0.5665    0.0851    1.2466 H   0  0  0  0  0  0  0  0  0  0  0  0
   -1.1152    0.3997    0.8270 H   0  0  0  0  0  0  0  0  0  0  0  0
    4.2421    0.4301    0.7923 H   0  0  0  0  0  0  0  0  0  0  0  0
    2.6284    1.0758    0.5510 H   0  0  0  0  0  0  0  0  0  0  0  0
    4.1041    1.6941   -1.3513 H   0  0  0  0  0  0  0  0  0  0  0  0
    4.5231    0.0002   -1.6122 H   0  0  0  0  0  0  0  0  0  0  0  0
    2.8878    0.5587   -1.9529 H   0  0  0  0  0  0  0  0  0  0  0  0
    8.2434   -2.8306    4.4672 H   0  0  0  0  0  0  0  0  0  0  0  0
   11.8568    0.9897    6.7266 H   0  0  0  0  0  0  0  0  0  0  0  0
  1  2  2  0  0  0  0
  2  3  1  0  0  0  0
  3  4  2  0  0  0  0
  3  5  1  0  0  0  0
  5  6  2  0  0  0  0
  6  7  1  0  0  0  0
  7  8  2  0  0  0  0
  8  9  1  0  0  0  0
  9 10  2  0  0  0  0
 10 11  1  0  0  0  0
 11 12  2  0  0  0  0
 12 13  1  0  0  0  0
 13 14  3  0  0  0  0
 12 15  1  0  0  0  0
 15 16  3  0  0  0  0
  8 17  1  0  0  0  0
 17 18  1  0  0  0  0
 18 19  1  0  0  0  0
 19 20  2  0  0  0  0
 20 21  1  0  0  0  0
 21 22  1  0  0  0  0
 21 23  1  0  0  0  0
  1 24  1  0  0  0  0
 24 25  1  0  0  0  0
 25 26  1  0  0  0  0
 26 27  1  0  0  0  0
 27 28  1  0  0  0  0
 28 29  1  0  0  0  0
 29 30  2  0  0  0  0
 30 31  1  0  0  0  0
 31 32  1  0  0  0  0
 29 33  1  0  0  0  0
 33 34  1  0  0  0  0
 34 35  1  0  0  0  0
 35 36  1  0  0  0  0
 36 37  1  0  0  0  0
 37 38  1  0  0  0  0
 38 39  1  0  0  0  0
 37 40  2  0  0  0  0
 40 41  1  0  0  0  0
 41 42  1  0  0  0  0
 42 43  1  0  0  0  0
 43 44  1  0  0  0  0
 44 45  1  0  0  0  0
 45 46  1  0  0  0  0
 46 47  1  0  0  0  0
 47 48  1  0  0  0  0
 48 49  1  0  0  0  0
 49 50  1  0  0  0  0
 50 51  1  0  0  0  0
 47 52  1  0  0  0  0
 52 53  1  0  0  0  0
 44 54  1  0  0  0  0
 54 55  1  0  0  0  0
 40 56  1  0  0  0  0
 56 57  2  0  0  0  0
 57 58  1  0  0  0  0
 58 59  2  0  0  0  0
 58 60  1  0  0  0  0
 60 61  1  0  0  0  0
 61 62  1  0  0  0  0
 62 63  1  0  0  0  0
 62 64  2  0  0  0  0
 64 65  1  0  0  0  0
 65 66  1  0  0  0  0
 66 67  2  0  0  0  0
 67 68  1  0  0  0  0
 68 69  3  0  0  0  0
 67 70  1  0  0  0  0
 70 71  3  0  0  0  0
 11  2  1  0  0  0  0
 23 17  1  0  0  0  0
 49 24  2  0  0  0  0
 66 57  1  0  0  0  0
 10  5  1  0  0  0  0
 22 18  1  0  0  0  0
 48 26  2  0  0  0  0
 65 60  2  0  0  0  0
 23  7  1  0  0  0  0
 46 27  2  0  0  0  0
 32 28  2  0  0  0  0
 45 33  2  0  0  0  0
 43 34  2  0  0  0  0
 42 36  2  0  0  0  0
  1 72  1  0  0  0  0
  6 73  1  0  0  0  0
  9 74  1  0  0  0  0
 17 75  1  0  0  0  0
 18 76  1  0  0  0  0
 19 77  1  0  0  0  0
 20 78  1  0  0  0  0
 21 79  1  0  0  0  0
 22 80  1  0  0  0  0
 22 81  1  0  0  0  0
 23 82  1  0  0  0  0
 38 83  1  0  0  0  0
 38 84  1  0  0  0  0
 39 85  1  0  0  0  0
 39 86  1  0  0  0  0
 39 87  1  0  0  0  0
 50 88  1  0  0  0  0
 50 89  1  0  0  0  0
 51 90  1  0  0  0  0
 51 91  1  0  0  0  0
 51 92  1  0  0  0  0
 52 93  1  0  0  0  0
 52 94  1  0  0  0  0
 53 95  1  0  0  0  0
 53 96  1  0  0  0  0
 53 97  1  0  0  0  0
 54 98  1  0  0  0  0
 54 99  1  0  0  0  0
 55100  1  0  0  0  0
 55101  1  0  0  0  0
 55102  1  0  0  0  0
 56103  1  0  0  0  0
 64104  1  0  0  0  0
M  END
