
  xtb     02112208133D
 energy: -194.246521712119 gnorm: 0.000191975923 xtb: 6.4.1 (unknown)
107121  0     0  0            999 V2000
    4.8181   -1.7314   -3.3088 C   0  0  0  0  0  0  0  0  0  0  0  0
    4.5901   -1.8471   -4.6461 C   0  0  0  0  0  0  0  0  0  0  0  0
    3.6231   -1.0050   -5.3962 C   0  0  0  0  0  0  0  0  0  0  0  0
    3.1402    0.0546   -5.0595 O   0  0  0  0  0  0  0  0  0  0  0  0
    3.2763   -1.7916   -6.5951 C   0  0  0  0  0  0  0  0  0  0  0  0
    2.3024   -1.4785   -7.5403 C   0  0  0  0  0  0  0  0  0  0  0  0
    2.1486   -2.4285   -8.5210 C   0  0  0  0  0  0  0  0  0  0  0  0
    2.9093   -3.6053   -8.5642 C   0  0  0  0  0  0  0  0  0  0  0  0
    3.8811   -3.9223   -7.6453 C   0  0  0  0  0  0  0  0  0  0  0  0
    4.0485   -2.9711   -6.6350 C   0  0  0  0  0  0  0  0  0  0  0  0
    4.9339   -2.9841   -5.4774 C   0  0  0  0  0  0  0  0  0  0  0  0
    5.9619   -3.8562   -5.2387 C   0  0  0  0  0  0  0  0  0  0  0  0
    6.8396   -3.7404   -4.1396 C   0  0  0  0  0  0  0  0  0  0  0  0
    7.5956   -3.6786   -3.2778 N   0  0  0  0  0  0  0  0  0  0  0  0
    6.3010   -4.9366   -6.0783 C   0  0  0  0  0  0  0  0  0  0  0  0
    6.6181   -5.8329   -6.7217 N   0  0  0  0  0  0  0  0  0  0  0  0
    2.1933   -4.1170   -9.7887 C   0  0  0  0  0  0  0  0  0  0  0  0
    1.1239   -5.2193   -9.5851 C   0  0  0  0  0  0  0  0  0  0  0  0
    0.5995   -5.0568   -8.1799 C   0  0  0  0  0  0  0  0  0  0  0  0
   -0.1178   -3.9419   -8.1416 C   0  0  0  0  0  0  0  0  0  0  0  0
   -0.0913   -3.3301   -9.5206 C   0  0  0  0  0  0  0  0  0  0  0  0
   -0.0387   -4.6033  -10.3799 C   0  0  0  0  0  0  0  0  0  0  0  0
    1.3491   -2.8045   -9.7428 C   0  0  0  0  0  0  0  0  0  0  0  0
    4.4660   -0.6038   -2.5213 C   0  0  0  0  0  0  0  0  0  0  0  0
    4.6109    0.7497   -2.7680 C   0  0  0  0  0  0  0  0  0  0  0  0
    5.3938    1.3353   -3.8946 C   0  0  0  0  0  0  0  0  0  0  0  0
    6.5565    2.1859   -3.3833 C   0  0  0  0  0  0  0  0  0  0  0  0
    4.0155    1.5123   -1.7491 C   0  0  0  0  0  0  0  0  0  0  0  0
    3.7794    3.2336   -1.5439 S   0  0  0  0  0  0  0  0  0  0  0  0
    2.8211    2.9175   -0.1410 C   0  0  0  0  0  0  0  0  0  0  0  0
    1.9794    3.6069    0.7458 C   0  0  0  0  0  0  0  0  0  0  0  0
    1.5588    4.9597    0.7602 C   0  0  0  0  0  0  0  0  0  0  0  0
    0.4450    5.3256    1.5997 C   0  0  0  0  0  0  0  0  0  0  0  0
    0.0560    6.5804    1.4900 N   0  0  0  0  0  0  0  0  0  0  0  0
    1.0886    7.3929    0.3146 Se  0  0  0  0  0  2  0  0  0  0  0  0
    2.0319    5.9355    0.0108 N   0  0  0  0  0  0  0  0  0  0  0  0
   -0.0990    4.3472    2.4669 C   0  0  0  0  0  0  0  0  0  0  0  0
   -1.1716    4.3956    3.3720 C   0  0  0  0  0  0  0  0  0  0  0  0
   -2.4395    5.4709    3.8387 S   0  0  0  0  0  0  0  0  0  0  0  0
   -3.0653    4.2341    4.9057 C   0  0  0  0  0  0  0  0  0  0  0  0
   -4.1981    4.1740    5.7200 C   0  0  0  0  0  0  0  0  0  0  0  0
   -5.2085    5.2653    5.8194 C   0  0  0  0  0  0  0  0  0  0  0  0
   -6.3828    4.9906    4.8764 C   0  0  0  0  0  0  0  0  0  0  0  0
   -4.3307    2.9217    6.3128 C   0  0  0  0  0  0  0  0  0  0  0  0
   -2.9833    1.8521    5.9164 S   0  0  0  0  0  0  0  0  0  0  0  0
   -2.2947    3.0623    4.9017 C   0  0  0  0  0  0  0  0  0  0  0  0
   -1.2143    3.1563    4.0263 C   0  0  0  0  0  0  0  0  0  0  0  0
   -0.2073    2.3465    3.5643 N   0  0  0  0  0  0  0  0  0  0  0  0
    0.4543    3.0412    2.5690 C   0  0  0  0  0  0  0  0  0  0  0  0
    1.4108    2.6297    1.6091 C   0  0  0  0  0  0  0  0  0  0  0  0
    1.8778    1.3847    1.2385 N   0  0  0  0  0  0  0  0  0  0  0  0
    2.7240    1.5573    0.1767 C   0  0  0  0  0  0  0  0  0  0  0  0
    3.4122    0.7543   -0.7389 C   0  0  0  0  0  0  0  0  0  0  0  0
    3.6609   -0.9327   -0.9881 S   0  0  0  0  0  0  0  0  0  0  0  0
    1.3730    0.0660    1.5532 C   0  0  0  0  0  0  0  0  0  0  0  0
    2.3938   -0.7700    2.3242 C   0  0  0  0  0  0  0  0  0  0  0  0
    0.3132    1.2908    4.4069 C   0  0  0  0  0  0  0  0  0  0  0  0
    0.7502    1.8320    5.7681 C   0  0  0  0  0  0  0  0  0  0  0  0
   -5.3623    2.5089    7.1785 C   0  0  0  0  0  0  0  0  0  0  0  0
   -5.7767    1.2396    7.4653 C   0  0  0  0  0  0  0  0  0  0  0  0
   -6.5283    0.9781    8.7249 C   0  0  0  0  0  0  0  0  0  0  0  0
   -7.0068    1.8041    9.4667 O   0  0  0  0  0  0  0  0  0  0  0  0
   -6.4992   -0.4861    8.8680 C   0  0  0  0  0  0  0  0  0  0  0  0
   -5.8788   -1.0705    7.7144 C   0  0  0  0  0  0  0  0  0  0  0  0
   -5.8145   -2.4260    7.7651 C   0  0  0  0  0  0  0  0  0  0  0  0
   -6.5028   -3.0276    9.2315 S   0  0  0  0  0  0  0  0  0  0  0  0
   -6.8985   -1.4139    9.7805 C   0  0  0  0  0  0  0  0  0  0  0  0
   -7.6789   -1.1583   11.2631 Cl  0  0  0  0  0  0  0  0  0  0  0  0
   -5.5494   -0.0126    6.7774 C   0  0  0  0  0  0  0  0  0  0  0  0
   -5.3370   -0.2034    5.4347 C   0  0  0  0  0  0  0  0  0  0  0  0
   -5.3588    0.8344    4.4836 C   0  0  0  0  0  0  0  0  0  0  0  0
   -5.4332    1.6515    3.6798 N   0  0  0  0  0  0  0  0  0  0  0  0
   -5.1655   -1.4890    4.8889 C   0  0  0  0  0  0  0  0  0  0  0  0
   -4.9885   -2.5277    4.4325 N   0  0  0  0  0  0  0  0  0  0  0  0
    5.1883   -2.5932   -2.7642 H   0  0  0  0  0  0  0  0  0  0  0  0
    1.7339   -0.5644   -7.4680 H   0  0  0  0  0  0  0  0  0  0  0  0
    4.4547   -4.8339   -7.6822 H   0  0  0  0  0  0  0  0  0  0  0  0
    2.8122   -4.2965  -10.6653 H   0  0  0  0  0  0  0  0  0  0  0  0
    1.4476   -6.2185   -9.8637 H   0  0  0  0  0  0  0  0  0  0  0  0
    0.8428   -5.7189   -7.3695 H   0  0  0  0  0  0  0  0  0  0  0  0
   -0.5931   -3.4860   -7.2927 H   0  0  0  0  0  0  0  0  0  0  0  0
   -0.8742   -2.6091   -9.7407 H   0  0  0  0  0  0  0  0  0  0  0  0
    0.2024   -4.4124  -11.4246 H   0  0  0  0  0  0  0  0  0  0  0  0
   -0.9519   -5.1928  -10.3147 H   0  0  0  0  0  0  0  0  0  0  0  0
    1.4171   -2.1242  -10.5893 H   0  0  0  0  0  0  0  0  0  0  0  0
    5.7789    0.5342   -4.5262 H   0  0  0  0  0  0  0  0  0  0  0  0
    4.7225    1.9502   -4.4984 H   0  0  0  0  0  0  0  0  0  0  0  0
    7.2235    1.5850   -2.7687 H   0  0  0  0  0  0  0  0  0  0  0  0
    6.1959    3.0230   -2.7917 H   0  0  0  0  0  0  0  0  0  0  0  0
    7.1221    2.5775   -4.2247 H   0  0  0  0  0  0  0  0  0  0  0  0
   -5.5757    5.3466    6.8446 H   0  0  0  0  0  0  0  0  0  0  0  0
   -4.7321    6.2076    5.5422 H   0  0  0  0  0  0  0  0  0  0  0  0
   -6.8788    4.0615    5.1470 H   0  0  0  0  0  0  0  0  0  0  0  0
   -6.0301    4.9014    3.8523 H   0  0  0  0  0  0  0  0  0  0  0  0
   -7.1023    5.8031    4.9304 H   0  0  0  0  0  0  0  0  0  0  0  0
    1.1578   -0.4397    0.6053 H   0  0  0  0  0  0  0  0  0  0  0  0
    0.4326    0.1625    2.0953 H   0  0  0  0  0  0  0  0  0  0  0  0
    3.2560   -0.9787    1.6967 H   0  0  0  0  0  0  0  0  0  0  0  0
    2.7459   -0.2569    3.2165 H   0  0  0  0  0  0  0  0  0  0  0  0
    1.9456   -1.7149    2.6172 H   0  0  0  0  0  0  0  0  0  0  0  0
    1.1781    0.8496    3.9230 H   0  0  0  0  0  0  0  0  0  0  0  0
   -0.4629    0.5300    4.5418 H   0  0  0  0  0  0  0  0  0  0  0  0
    1.1945    1.0290    6.3499 H   0  0  0  0  0  0  0  0  0  0  0  0
    1.4882    2.6211    5.6400 H   0  0  0  0  0  0  0  0  0  0  0  0
   -0.0939    2.2307    6.3233 H   0  0  0  0  0  0  0  0  0  0  0  0
   -5.8520    3.2936    7.7478 H   0  0  0  0  0  0  0  0  0  0  0  0
   -5.4052   -3.1146    7.0529 H   0  0  0  0  0  0  0  0  0  0  0  0
  1  2  2  0  0  0  0
  2  3  1  0  0  0  0
  3  4  2  0  0  0  0
  3  5  1  0  0  0  0
  5  6  2  0  0  0  0
  6  7  1  0  0  0  0
  7  8  2  0  0  0  0
  8  9  1  0  0  0  0
  9 10  2  0  0  0  0
 10 11  1  0  0  0  0
 11 12  2  0  0  0  0
 12 13  1  0  0  0  0
 13 14  3  0  0  0  0
 12 15  1  0  0  0  0
 15 16  3  0  0  0  0
  8 17  1  0  0  0  0
 17 18  1  0  0  0  0
 18 19  1  0  0  0  0
 19 20  2  0  0  0  0
 20 21  1  0  0  0  0
 21 22  1  0  0  0  0
 21 23  1  0  0  0  0
  1 24  1  0  0  0  0
 24 25  2  0  0  0  0
 25 26  1  0  0  0  0
 26 27  1  0  0  0  0
 25 28  1  0  0  0  0
 28 29  1  0  0  0  0
 29 30  1  0  0  0  0
 30 31  1  0  0  0  0
 31 32  1  0  0  0  0
 32 33  1  0  0  0  0
 33 34  2  0  0  0  0
 34 35  1  0  0  0  0
 35 36  1  0  0  0  0
 33 37  1  0  0  0  0
 37 38  1  0  0  0  0
 38 39  1  0  0  0  0
 39 40  1  0  0  0  0
 40 41  1  0  0  0  0
 41 42  1  0  0  0  0
 42 43  1  0  0  0  0
 41 44  2  0  0  0  0
 44 45  1  0  0  0  0
 45 46  1  0  0  0  0
 46 47  1  0  0  0  0
 47 48  1  0  0  0  0
 48 49  1  0  0  0  0
 49 50  1  0  0  0  0
 50 51  1  0  0  0  0
 51 52  1  0  0  0  0
 52 53  1  0  0  0  0
 53 54  1  0  0  0  0
 51 55  1  0  0  0  0
 55 56  1  0  0  0  0
 48 57  1  0  0  0  0
 57 58  1  0  0  0  0
 44 59  1  0  0  0  0
 59 60  2  0  0  0  0
 60 61  1  0  0  0  0
 61 62  2  0  0  0  0
 61 63  1  0  0  0  0
 63 64  1  0  0  0  0
 64 65  2  0  0  0  0
 65 66  1  0  0  0  0
 66 67  1  0  0  0  0
 67 68  1  0  0  0  0
 64 69  1  0  0  0  0
 69 70  2  0  0  0  0
 70 71  1  0  0  0  0
 71 72  3  0  0  0  0
 70 73  1  0  0  0  0
 73 74  3  0  0  0  0
 11  2  1  0  0  0  0
 23 17  1  0  0  0  0
 54 24  1  0  0  0  0
 69 60  1  0  0  0  0
 10  5  1  0  0  0  0
 22 18  1  0  0  0  0
 53 28  2  0  0  0  0
 67 63  2  0  0  0  0
 23  7  1  0  0  0  0
 52 30  2  0  0  0  0
 50 31  2  0  0  0  0
 36 32  2  0  0  0  0
 49 37  2  0  0  0  0
 47 38  2  0  0  0  0
 46 40  2  0  0  0  0
  1 75  1  0  0  0  0
  6 76  1  0  0  0  0
  9 77  1  0  0  0  0
 17 78  1  0  0  0  0
 18 79  1  0  0  0  0
 19 80  1  0  0  0  0
 20 81  1  0  0  0  0
 21 82  1  0  0  0  0
 22 83  1  0  0  0  0
 22 84  1  0  0  0  0
 23 85  1  0  0  0  0
 26 86  1  0  0  0  0
 26 87  1  0  0  0  0
 27 88  1  0  0  0  0
 27 89  1  0  0  0  0
 27 90  1  0  0  0  0
 42 91  1  0  0  0  0
 42 92  1  0  0  0  0
 43 93  1  0  0  0  0
 43 94  1  0  0  0  0
 43 95  1  0  0  0  0
 55 96  1  0  0  0  0
 55 97  1  0  0  0  0
 56 98  1  0  0  0  0
 56 99  1  0  0  0  0
 56100  1  0  0  0  0
 57101  1  0  0  0  0
 57102  1  0  0  0  0
 58103  1  0  0  0  0
 58104  1  0  0  0  0
 58105  1  0  0  0  0
 59106  1  0  0  0  0
 65107  1  0  0  0  0
M  END
