
  xtb     02022216133D
 energy: -183.580233776937 gnorm: 0.000697608591 xtb: 6.4.1 (unknown)
 98112  0     0  0            999 V2000
   -6.1078   -2.6300    2.1506 C   0  0  0  0  0  0  0  0  0  0  0  0
   -5.9357   -3.9226    1.7196 C   0  0  0  0  0  0  0  0  0  0  0  0
   -4.6921   -4.4826    1.2055 C   0  0  0  0  0  0  0  0  0  0  0  0
   -3.5941   -3.9360    1.1702 O   0  0  0  0  0  0  0  0  0  0  0  0
   -4.9973   -5.8369    0.7304 C   0  0  0  0  0  0  0  0  0  0  0  0
   -4.1248   -6.7302    0.1130 C   0  0  0  0  0  0  0  0  0  0  0  0
   -4.7059   -7.9247   -0.2381 C   0  0  0  0  0  0  0  0  0  0  0  0
   -6.0559   -8.2090    0.0061 C   0  0  0  0  0  0  0  0  0  0  0  0
   -6.9274   -7.3351    0.6136 C   0  0  0  0  0  0  0  0  0  0  0  0
   -6.3576   -6.1139    0.9815 C   0  0  0  0  0  0  0  0  0  0  0  0
   -6.9590   -4.9477    1.6300 C   0  0  0  0  0  0  0  0  0  0  0  0
   -8.2507   -4.8705    2.0812 C   0  0  0  0  0  0  0  0  0  0  0  0
   -9.1974   -5.9116    1.9756 C   0  0  0  0  0  0  0  0  0  0  0  0
  -10.0196   -6.7115    1.9252 N   0  0  0  0  0  0  0  0  0  0  0  0
   -8.8302   -3.7599    2.7306 C   0  0  0  0  0  0  0  0  0  0  0  0
   -9.3759   -2.9043    3.2688 N   0  0  0  0  0  0  0  0  0  0  0  0
   -5.9582   -9.5853   -0.6018 C   0  0  0  0  0  0  0  0  0  0  0  0
   -5.8849  -10.7956    0.3616 C   0  0  0  0  0  0  0  0  0  0  0  0
   -5.2819  -10.2851    1.6468 C   0  0  0  0  0  0  0  0  0  0  0  0
   -4.0039  -10.0162    1.4158 C   0  0  0  0  0  0  0  0  0  0  0  0
   -3.7195  -10.3397   -0.0302 C   0  0  0  0  0  0  0  0  0  0  0  0
   -4.6721  -11.5283   -0.2344 C   0  0  0  0  0  0  0  0  0  0  0  0
   -4.4538   -9.2684   -0.8740 C   0  0  0  0  0  0  0  0  0  0  0  0
   -5.1990   -1.5642    2.2189 C   0  0  0  0  0  0  0  0  0  0  0  0
   -5.6160   -0.2907    2.6157 C   0  0  0  0  0  0  0  0  0  0  0  0
   -4.6338    0.6820    2.5951 C   0  0  0  0  0  0  0  0  0  0  0  0
   -4.7047    2.3985    2.9609 S   0  0  0  0  0  0  0  0  0  0  0  0
   -3.0274    2.5260    2.5578 C   0  0  0  0  0  0  0  0  0  0  0  0
   -2.0141    3.4925    2.4817 C   0  0  0  0  0  0  0  0  0  0  0  0
   -2.0020    4.8645    2.8189 C   0  0  0  0  0  0  0  0  0  0  0  0
   -0.7857    5.6086    2.6620 C   0  0  0  0  0  0  0  0  0  0  0  0
   -0.9091    6.8673    3.0518 N   0  0  0  0  0  0  0  0  0  0  0  0
   -2.4252    7.0986    3.5688 S   0  0  0  0  0  0  0  0  0  0  0  0
   -2.9839    5.6015    3.3136 N   0  0  0  0  0  0  0  0  0  0  0  0
    0.3290    4.9772    2.0651 C   0  0  0  0  0  0  0  0  0  0  0  0
    1.5448    5.5005    1.6047 C   0  0  0  0  0  0  0  0  0  0  0  0
    2.2059    4.4652    0.9295 C   0  0  0  0  0  0  0  0  0  0  0  0
    1.4520    3.3226    0.9789 N   0  0  0  0  0  0  0  0  0  0  0  0
    1.7945    2.2097    0.1251 C   0  0  0  0  0  0  0  0  0  0  0  0
    2.9167    1.3579    0.7197 C   0  0  0  0  0  0  0  0  0  0  0  0
    0.2966    3.6039    1.6822 C   0  0  0  0  0  0  0  0  0  0  0  0
   -0.8436    2.8272    2.0079 C   0  0  0  0  0  0  0  0  0  0  0  0
   -1.1333    1.4819    1.8582 N   0  0  0  0  0  0  0  0  0  0  0  0
   -2.4559    1.3074    2.1759 C   0  0  0  0  0  0  0  0  0  0  0  0
   -3.3557    0.2404    2.1967 C   0  0  0  0  0  0  0  0  0  0  0  0
   -3.3489   -1.5780    1.7858 Se  0  0  0  0  0  2  0  0  0  0  0  0
   -0.2715    0.3232    1.9400 C   0  0  0  0  0  0  0  0  0  0  0  0
   -0.1478   -0.1692    3.3814 C   0  0  0  0  0  0  0  0  0  0  0  0
    3.3921    4.8889    0.3269 C   0  0  0  0  0  0  0  0  0  0  0  0
    3.6190    6.2635    0.5599 C   0  0  0  0  0  0  0  0  0  0  0  0
    2.3767    7.0123    1.5408 S   0  0  0  0  0  0  0  0  0  0  0  0
    4.7494    6.8129   -0.0297 C   0  0  0  0  0  0  0  0  0  0  0  0
    5.4987    5.9162   -0.7740 C   0  0  0  0  0  0  0  0  0  0  0  0
    4.7433    4.1626   -0.7239 Se  0  0  0  0  0  2  0  0  0  0  0  0
    6.6807    6.0560   -1.5193 C   0  0  0  0  0  0  0  0  0  0  0  0
    7.3881    7.1634   -1.9107 C   0  0  0  0  0  0  0  0  0  0  0  0
    7.0008    8.5853   -1.8022 C   0  0  0  0  0  0  0  0  0  0  0  0
    6.0945    9.0858   -1.1701 O   0  0  0  0  0  0  0  0  0  0  0  0
    7.9552    9.3190   -2.6646 C   0  0  0  0  0  0  0  0  0  0  0  0
    7.9658   10.6648   -2.9655 C   0  0  0  0  0  0  0  0  0  0  0  0
    8.9596   11.1223   -3.8232 C   0  0  0  0  0  0  0  0  0  0  0  0
    9.0174   12.7926   -4.2403 Cl  0  0  0  0  0  0  0  0  0  0  0  0
    9.9072   10.2543   -4.3546 C   0  0  0  0  0  0  0  0  0  0  0  0
    9.8909    8.9039   -4.0411 C   0  0  0  0  0  0  0  0  0  0  0  0
    8.9060    8.4275   -3.1878 C   0  0  0  0  0  0  0  0  0  0  0  0
    8.6185    7.0897   -2.6804 C   0  0  0  0  0  0  0  0  0  0  0  0
    9.4210    5.9909   -2.8511 C   0  0  0  0  0  0  0  0  0  0  0  0
    9.2083    4.7180   -2.2803 C   0  0  0  0  0  0  0  0  0  0  0  0
    9.1180    3.6608   -1.8393 N   0  0  0  0  0  0  0  0  0  0  0  0
   10.6160    5.9969   -3.6010 C   0  0  0  0  0  0  0  0  0  0  0  0
   11.5931    5.9305   -4.2000 N   0  0  0  0  0  0  0  0  0  0  0  0
   -7.1074   -2.3529    2.4662 H   0  0  0  0  0  0  0  0  0  0  0  0
   -3.0928   -6.4679   -0.0596 H   0  0  0  0  0  0  0  0  0  0  0  0
   -7.9641   -7.5699    0.7867 H   0  0  0  0  0  0  0  0  0  0  0  0
   -6.6028   -9.7747   -1.4577 H   0  0  0  0  0  0  0  0  0  0  0  0
   -6.8120  -11.3542    0.4551 H   0  0  0  0  0  0  0  0  0  0  0  0
   -5.8433  -10.1233    2.5482 H   0  0  0  0  0  0  0  0  0  0  0  0
   -3.2837   -9.5843    2.0857 H   0  0  0  0  0  0  0  0  0  0  0  0
   -2.6750  -10.4840   -0.2938 H   0  0  0  0  0  0  0  0  0  0  0  0
   -4.3829  -12.4038    0.3447 H   0  0  0  0  0  0  0  0  0  0  0  0
   -4.8029  -11.8052   -1.2795 H   0  0  0  0  0  0  0  0  0  0  0  0
   -4.1155   -9.2508   -1.9081 H   0  0  0  0  0  0  0  0  0  0  0  0
   -6.6354   -0.0939    2.9023 H   0  0  0  0  0  0  0  0  0  0  0  0
    2.1447    2.6248   -0.8295 H   0  0  0  0  0  0  0  0  0  0  0  0
    0.8967    1.6269   -0.0838 H   0  0  0  0  0  0  0  0  0  0  0  0
    2.7059    1.0759    1.7490 H   0  0  0  0  0  0  0  0  0  0  0  0
    3.8513    1.9179    0.7155 H   0  0  0  0  0  0  0  0  0  0  0  0
    3.0546    0.4588    0.1259 H   0  0  0  0  0  0  0  0  0  0  0  0
    0.7159    0.5554    1.5631 H   0  0  0  0  0  0  0  0  0  0  0  0
   -0.7180   -0.4656    1.3201 H   0  0  0  0  0  0  0  0  0  0  0  0
    0.5330   -1.0148    3.4206 H   0  0  0  0  0  0  0  0  0  0  0  0
    0.2366    0.6234    4.0206 H   0  0  0  0  0  0  0  0  0  0  0  0
   -1.1143   -0.4887    3.7654 H   0  0  0  0  0  0  0  0  0  0  0  0
    5.0232    7.8489    0.0623 H   0  0  0  0  0  0  0  0  0  0  0  0
    7.0719    5.1070   -1.8738 H   0  0  0  0  0  0  0  0  0  0  0  0
    7.2250   11.3286   -2.5488 H   0  0  0  0  0  0  0  0  0  0  0  0
   10.6629   10.6398   -5.0209 H   0  0  0  0  0  0  0  0  0  0  0  0
   10.6333    8.2507   -4.4693 H   0  0  0  0  0  0  0  0  0  0  0  0
  1  2  2  0  0  0  0
  2  3  1  0  0  0  0
  3  4  2  0  0  0  0
  3  5  1  0  0  0  0
  5  6  2  0  0  0  0
  6  7  1  0  0  0  0
  7  8  2  0  0  0  0
  8  9  1  0  0  0  0
  9 10  2  0  0  0  0
 10 11  1  0  0  0  0
 11 12  2  0  0  0  0
 12 13  1  0  0  0  0
 13 14  3  0  0  0  0
 12 15  1  0  0  0  0
 15 16  3  0  0  0  0
  8 17  1  0  0  0  0
 17 18  1  0  0  0  0
 18 19  1  0  0  0  0
 19 20  2  0  0  0  0
 20 21  1  0  0  0  0
 21 22  1  0  0  0  0
 21 23  1  0  0  0  0
  1 24  1  0  0  0  0
 24 25  2  0  0  0  0
 25 26  1  0  0  0  0
 26 27  1  0  0  0  0
 27 28  1  0  0  0  0
 28 29  1  0  0  0  0
 29 30  1  0  0  0  0
 30 31  1  0  0  0  0
 31 32  2  0  0  0  0
 32 33  1  0  0  0  0
 33 34  1  0  0  0  0
 31 35  1  0  0  0  0
 35 36  1  0  0  0  0
 36 37  2  0  0  0  0
 37 38  1  0  0  0  0
 38 39  1  0  0  0  0
 39 40  1  0  0  0  0
 38 41  1  0  0  0  0
 41 42  1  0  0  0  0
 42 43  1  0  0  0  0
 43 44  1  0  0  0  0
 44 45  1  0  0  0  0
 45 46  1  0  0  0  0
 43 47  1  0  0  0  0
 47 48  1  0  0  0  0
 37 49  1  0  0  0  0
 49 50  2  0  0  0  0
 50 51  1  0  0  0  0
 50 52  1  0  0  0  0
 52 53  2  0  0  0  0
 53 54  1  0  0  0  0
 53 55  1  0  0  0  0
 55 56  2  0  0  0  0
 56 57  1  0  0  0  0
 57 58  2  0  0  0  0
 57 59  1  0  0  0  0
 59 60  2  0  0  0  0
 60 61  1  0  0  0  0
 61 62  1  0  0  0  0
 61 63  2  0  0  0  0
 63 64  1  0  0  0  0
 64 65  2  0  0  0  0
 65 66  1  0  0  0  0
 66 67  2  0  0  0  0
 67 68  1  0  0  0  0
 68 69  3  0  0  0  0
 67 70  1  0  0  0  0
 70 71  3  0  0  0  0
 11  2  1  0  0  0  0
 23 17  1  0  0  0  0
 46 24  1  0  0  0  0
 54 49  1  0  0  0  0
 66 56  1  0  0  0  0
 10  5  1  0  0  0  0
 22 18  1  0  0  0  0
 45 26  2  0  0  0  0
 65 59  1  0  0  0  0
 23  7  1  0  0  0  0
 44 28  2  0  0  0  0
 42 29  2  0  0  0  0
 34 30  2  0  0  0  0
 41 35  2  0  0  0  0
 51 36  1  0  0  0  0
  1 72  1  0  0  0  0
  6 73  1  0  0  0  0
  9 74  1  0  0  0  0
 17 75  1  0  0  0  0
 18 76  1  0  0  0  0
 19 77  1  0  0  0  0
 20 78  1  0  0  0  0
 21 79  1  0  0  0  0
 22 80  1  0  0  0  0
 22 81  1  0  0  0  0
 23 82  1  0  0  0  0
 25 83  1  0  0  0  0
 39 84  1  0  0  0  0
 39 85  1  0  0  0  0
 40 86  1  0  0  0  0
 40 87  1  0  0  0  0
 40 88  1  0  0  0  0
 47 89  1  0  0  0  0
 47 90  1  0  0  0  0
 48 91  1  0  0  0  0
 48 92  1  0  0  0  0
 48 93  1  0  0  0  0
 52 94  1  0  0  0  0
 55 95  1  0  0  0  0
 60 96  1  0  0  0  0
 63 97  1  0  0  0  0
 64 98  1  0  0  0  0
M  END
