102

C          0.70880        0.78570       -4.91180
C          0.80530        2.14980       -5.02400
C          0.76600        3.13830       -3.92420
O          0.93180        2.96900       -2.73280
C          0.40430        4.42120       -4.55970
C          0.12540        5.61720       -3.90450
C         -0.21230        6.64890       -4.74650
C         -0.26530        6.50350       -6.13900
C          0.00550        5.32680       -6.79740
C          0.34660        4.26320       -5.95740
C          0.66220        2.87240       -6.27070
C          0.86540        2.35520       -7.52600
C          1.25940        1.02610       -7.78170
N          1.59630       -0.03850       -8.05420
C          0.75310        3.09620       -8.71900
N          0.67400        3.64400       -9.72530
C         -0.67190        7.94090       -6.35140
C          0.41220        8.93590       -6.83400
C          1.73670        8.39270       -6.35820
C          1.78110        8.53020       -5.03980
C          0.48630        9.16760       -4.60010
C          0.20040       10.06600       -5.81370
C         -0.61750        8.10020       -4.79920
C          0.87670       -0.00700       -3.76250
C          1.56600        0.29190       -2.57120
C          1.34430       -0.78180       -1.72960
C          0.54700       -1.72350       -2.41280
N          0.29510       -1.26670       -3.65620
C         -0.43830       -1.98480       -4.67130
C          0.49680       -2.63730       -5.68860
C          0.25960       -2.75590       -1.49990
C         -0.45200       -3.96870       -1.62610
C         -0.60360       -4.81750       -0.47770
N         -1.26620       -5.92940       -0.75130
S         -1.67210       -5.91900       -2.31610
N         -1.02180       -4.48370       -2.70690
C         -0.13980       -4.35850        0.77450
C         -0.36680       -4.83560        2.07430
S         -1.17890       -6.13880        2.87300
C         -0.84470       -5.37430        4.41390
C         -1.21450       -5.71310        5.72470
C         -2.10980       -6.87930        5.98620
C         -3.48790       -6.42640        6.47140
C         -0.76600       -4.75910        6.63170
S          0.10160       -3.44120        5.82110
C         -0.12290       -4.18220        4.28700
C          0.15770       -3.88030        2.95160
N          0.73910       -2.86230        2.24840
C          0.55950       -3.12320        0.90170
C          0.86520       -2.37530       -0.26280
N          1.56850       -1.19250       -0.43800
C          2.72830       -0.69030        0.26820
C          3.75570       -1.78970        0.52470
C          1.09520       -1.63590        2.92420
C          0.11650       -0.50910        2.60490
C         -0.90100       -4.53940        8.02400
C         -1.17240       -5.37260        9.06740
C         -1.23390       -6.77470        8.99650
N         -1.23640       -7.92240        8.96420
C         -1.33030       -4.82500       10.43780
O         -1.47810       -5.49510       11.42950
O         -1.30420       -3.48210       10.45420
C         -1.44690       -2.86870       11.73530
C         -1.36390       -1.36500       11.55230
H          0.39390        0.25510       -5.80080
H          0.17600        5.68470       -2.82890
H         -0.05340        5.22440       -7.86840
H         -1.62800        8.09770       -6.84690
H          0.35030        9.19400       -7.88770
H          2.45810        7.92570       -7.00280
H          2.54710        8.20110       -4.36230
H          0.48990        9.63640       -3.61940
H         -0.80930       10.47470       -5.82210
H          0.92440       10.87220       -5.92100
H         -1.54030        8.35520       -4.28130
H          2.12940        1.18150       -2.38900
H         -1.13460       -1.30460       -5.16980
H         -1.00800       -2.76500       -4.16000
H          1.07990       -1.89950       -6.23490
H         -0.08910       -3.20890       -6.40250
H          1.17870       -3.31480       -5.18090
H         -1.66970       -7.54820        6.72490
H         -2.22160       -7.43070        5.05010
H         -4.12610       -7.29270        6.61980
H         -3.95330       -5.77110        5.73770
H         -3.41160       -5.89260        7.41510
H          3.16810        0.06880       -0.38240
H          2.44160       -0.18780        1.19380
H          4.61890       -1.37730        1.04050
H          4.08750       -2.21600       -0.41940
H          3.33730       -2.59150        1.12860
H          1.05940       -1.85040        3.99530
H          2.12190       -1.35680        2.68750
H          0.41200        0.39570        3.12890
H         -0.88420       -0.78530        2.92920
H          0.08420       -0.30300        1.53820
H         -0.73100       -3.50660        8.30970
H         -0.65320       -3.23740       12.39480
H         -2.40970       -3.16760       12.16470
H         -2.15300       -1.02400       10.88710
H         -0.40390       -1.09110       11.12250
H         -1.47450       -0.87470       12.51490
