
  xtb     02022208413D
 energy: -189.185330985681 gnorm: 0.000333004229 xtb: 6.4.1 (unknown)
107121  0     0  0            999 V2000
   -4.3078   -0.9437    4.9034 C   0  0  0  0  0  0  0  0  0  0  0  0
   -5.1527   -1.4687    3.9750 C   0  0  0  0  0  0  0  0  0  0  0  0
   -6.6246   -1.3456    4.1442 C   0  0  0  0  0  0  0  0  0  0  0  0
   -7.2142   -1.0363    5.1555 O   0  0  0  0  0  0  0  0  0  0  0  0
   -7.1920   -1.6161    2.8077 C   0  0  0  0  0  0  0  0  0  0  0  0
   -8.5243   -1.5045    2.4160 C   0  0  0  0  0  0  0  0  0  0  0  0
   -8.7468   -1.8026    1.0928 C   0  0  0  0  0  0  0  0  0  0  0  0
   -7.7197   -2.1709    0.2129 C   0  0  0  0  0  0  0  0  0  0  0  0
   -6.4022   -2.2916    0.5847 C   0  0  0  0  0  0  0  0  0  0  0  0
   -6.1586   -2.0080    1.9300 C   0  0  0  0  0  0  0  0  0  0  0  0
   -4.9136   -2.0828    2.6877 C   0  0  0  0  0  0  0  0  0  0  0  0
   -3.8253   -2.8491    2.3583 C   0  0  0  0  0  0  0  0  0  0  0  0
   -2.7905   -3.1368    3.2728 C   0  0  0  0  0  0  0  0  0  0  0  0
   -1.9613   -3.4308    4.0104 N   0  0  0  0  0  0  0  0  0  0  0  0
   -3.6591   -3.5001    1.1215 C   0  0  0  0  0  0  0  0  0  0  0  0
   -3.4588   -4.0290    0.1219 N   0  0  0  0  0  0  0  0  0  0  0  0
   -8.6632   -2.3194   -0.9538 C   0  0  0  0  0  0  0  0  0  0  0  0
   -9.0570   -3.7556   -1.3783 C   0  0  0  0  0  0  0  0  0  0  0  0
   -8.9231   -4.6168   -0.1468 C   0  0  0  0  0  0  0  0  0  0  0  0
   -9.8954   -4.2796    0.6899 C   0  0  0  0  0  0  0  0  0  0  0  0
  -10.7041   -3.1844    0.0394 C   0  0  0  0  0  0  0  0  0  0  0  0
  -10.5849   -3.5999   -1.4356 C   0  0  0  0  0  0  0  0  0  0  0  0
   -9.8091   -1.9200    0.0285 C   0  0  0  0  0  0  0  0  0  0  0  0
   -2.9539   -0.5677    4.7479 C   0  0  0  0  0  0  0  0  0  0  0  0
   -2.0304   -0.3390    5.7588 C   0  0  0  0  0  0  0  0  0  0  0  0
   -2.2919   -0.5110    7.2188 C   0  0  0  0  0  0  0  0  0  0  0  0
   -2.7337    0.8155    7.8426 C   0  0  0  0  0  0  0  0  0  0  0  0
   -0.8008    0.0835    5.2422 C   0  0  0  0  0  0  0  0  0  0  0  0
   -0.7740    0.2045    3.8472 C   0  0  0  0  0  0  0  0  0  0  0  0
   -2.2917   -0.2141    3.1502 S   0  0  0  0  0  0  0  0  0  0  0  0
    0.4809    0.6029    3.3848 C   0  0  0  0  0  0  0  0  0  0  0  0
    1.3924    0.7958    4.4297 C   0  0  0  0  0  0  0  0  0  0  0  0
    0.7270    0.4829    5.9948 S   0  0  0  0  0  0  0  0  0  0  0  0
    2.6033    1.2001    3.8453 C   0  0  0  0  0  0  0  0  0  0  0  0
    3.8246    1.6325    4.4097 C   0  0  0  0  0  0  0  0  0  0  0  0
    4.1460    1.7502    5.6881 N   0  0  0  0  0  0  0  0  0  0  0  0
    5.6420    2.3603    5.7882 S   0  0  0  0  0  0  0  0  0  0  0  0
    5.9399    2.4949    4.2032 N   0  0  0  0  0  0  0  0  0  0  0  0
    4.8797    2.0662    3.5376 C   0  0  0  0  0  0  0  0  0  0  0  0
    4.7174    1.9209    2.1408 C   0  0  0  0  0  0  0  0  0  0  0  0
    5.6238    2.0564    1.0812 C   0  0  0  0  0  0  0  0  0  0  0  0
    7.2668    2.5338    0.8193 S   0  0  0  0  0  0  0  0  0  0  0  0
    7.0969    2.0810   -0.8650 C   0  0  0  0  0  0  0  0  0  0  0  0
    7.9620    2.0910   -1.9419 C   0  0  0  0  0  0  0  0  0  0  0  0
    7.3717    1.6149   -3.1150 C   0  0  0  0  0  0  0  0  0  0  0  0
    5.6955    1.1503   -2.8542 S   0  0  0  0  0  0  0  0  0  0  0  0
    5.8154    1.5931   -1.1919 C   0  0  0  0  0  0  0  0  0  0  0  0
    4.9776    1.5938   -0.0742 C   0  0  0  0  0  0  0  0  0  0  0  0
    3.6997    1.2064    0.2318 N   0  0  0  0  0  0  0  0  0  0  0  0
    2.9427    0.3999   -0.7009 C   0  0  0  0  0  0  0  0  0  0  0  0
    2.3425    1.2331   -1.8339 C   0  0  0  0  0  0  0  0  0  0  0  0
    3.5071    1.4155    1.5815 C   0  0  0  0  0  0  0  0  0  0  0  0
    2.3995    1.1908    2.4362 C   0  0  0  0  0  0  0  0  0  0  0  0
    1.0820    0.8512    2.1780 N   0  0  0  0  0  0  0  0  0  0  0  0
    0.2476    1.2356    1.0601 C   0  0  0  0  0  0  0  0  0  0  0  0
   -0.4551    2.5660    1.3321 C   0  0  0  0  0  0  0  0  0  0  0  0
    8.0772    1.5303   -4.3235 C   0  0  0  0  0  0  0  0  0  0  0  0
    7.6688    1.1056   -5.5625 C   0  0  0  0  0  0  0  0  0  0  0  0
    6.3189    0.6437   -5.9082 C   0  0  0  0  0  0  0  0  0  0  0  0
    5.3545    0.5470   -5.1664 O   0  0  0  0  0  0  0  0  0  0  0  0
    6.3504    0.3212   -7.3412 C   0  0  0  0  0  0  0  0  0  0  0  0
    5.3355   -0.1495   -8.1524 C   0  0  0  0  0  0  0  0  0  0  0  0
    5.6179   -0.3817   -9.4881 C   0  0  0  0  0  0  0  0  0  0  0  0
    6.8893   -0.1485  -10.0105 C   0  0  0  0  0  0  0  0  0  0  0  0
    7.1535   -0.3976  -11.4614 C   0  0  0  0  0  0  0  0  0  0  0  0
    7.9063    0.3268   -9.1840 C   0  0  0  0  0  0  0  0  0  0  0  0
    7.6397    0.5624   -7.8461 C   0  0  0  0  0  0  0  0  0  0  0  0
    8.4886    1.0492   -6.7576 C   0  0  0  0  0  0  0  0  0  0  0  0
    9.8145    1.3759   -6.8775 C   0  0  0  0  0  0  0  0  0  0  0  0
   10.6492    1.8420   -5.8404 C   0  0  0  0  0  0  0  0  0  0  0  0
   11.3984    2.2256   -5.0582 N   0  0  0  0  0  0  0  0  0  0  0  0
   10.5467    1.2868   -8.0802 C   0  0  0  0  0  0  0  0  0  0  0  0
   11.2033    1.2389   -9.0210 N   0  0  0  0  0  0  0  0  0  0  0  0
   -4.7636   -0.6993    5.8575 H   0  0  0  0  0  0  0  0  0  0  0  0
   -9.2871   -1.2111    3.1201 H   0  0  0  0  0  0  0  0  0  0  0  0
   -5.6157   -2.5704   -0.0978 H   0  0  0  0  0  0  0  0  0  0  0  0
   -8.4740   -1.6703   -1.8066 H   0  0  0  0  0  0  0  0  0  0  0  0
   -8.5553   -4.1157   -2.2725 H   0  0  0  0  0  0  0  0  0  0  0  0
   -8.1254   -5.3194    0.0081 H   0  0  0  0  0  0  0  0  0  0  0  0
  -10.0728   -4.6448    1.6845 H   0  0  0  0  0  0  0  0  0  0  0  0
  -11.7036   -3.0258    0.4357 H   0  0  0  0  0  0  0  0  0  0  0  0
  -11.0957   -4.5370   -1.6516 H   0  0  0  0  0  0  0  0  0  0  0  0
  -10.9171   -2.8307   -2.1316 H   0  0  0  0  0  0  0  0  0  0  0  0
  -10.3738   -1.0146   -0.1862 H   0  0  0  0  0  0  0  0  0  0  0  0
   -3.0559   -1.2717    7.3782 H   0  0  0  0  0  0  0  0  0  0  0  0
   -1.3692   -0.8431    7.6983 H   0  0  0  0  0  0  0  0  0  0  0  0
   -2.9079    0.6857    8.9072 H   0  0  0  0  0  0  0  0  0  0  0  0
   -3.6529    1.1699    7.3813 H   0  0  0  0  0  0  0  0  0  0  0  0
   -1.9642    1.5716    7.7066 H   0  0  0  0  0  0  0  0  0  0  0  0
    8.9842    2.4216   -1.9039 H   0  0  0  0  0  0  0  0  0  0  0  0
    3.6301   -0.3319   -1.1393 H   0  0  0  0  0  0  0  0  0  0  0  0
    2.1813   -0.1539   -0.1501 H   0  0  0  0  0  0  0  0  0  0  0  0
    1.8260    2.1137   -1.4571 H   0  0  0  0  0  0  0  0  0  0  0  0
    1.6415    0.6276   -2.4013 H   0  0  0  0  0  0  0  0  0  0  0  0
    3.1254    1.5674   -2.5086 H   0  0  0  0  0  0  0  0  0  0  0  0
   -0.4955    0.4466    0.9084 H   0  0  0  0  0  0  0  0  0  0  0  0
    0.8492    1.3373    0.1657 H   0  0  0  0  0  0  0  0  0  0  0  0
   -1.1073    2.4922    2.1982 H   0  0  0  0  0  0  0  0  0  0  0  0
    0.2786    3.3486    1.5148 H   0  0  0  0  0  0  0  0  0  0  0  0
   -1.0564    2.8435    0.4708 H   0  0  0  0  0  0  0  0  0  0  0  0
    9.1048    1.8606   -4.2332 H   0  0  0  0  0  0  0  0  0  0  0  0
    4.3535   -0.3286   -7.7424 H   0  0  0  0  0  0  0  0  0  0  0  0
    4.8423   -0.7511  -10.1431 H   0  0  0  0  0  0  0  0  0  0  0  0
    6.6421    0.3516  -12.0660 H   0  0  0  0  0  0  0  0  0  0  0  0
    6.7759   -1.3747  -11.7571 H   0  0  0  0  0  0  0  0  0  0  0  0
    8.2166   -0.3476  -11.6797 H   0  0  0  0  0  0  0  0  0  0  0  0
    8.8848    0.5032   -9.6004 H   0  0  0  0  0  0  0  0  0  0  0  0
  1  2  2  0  0  0  0
  2  3  1  0  0  0  0
  3  4  2  0  0  0  0
  3  5  1  0  0  0  0
  5  6  2  0  0  0  0
  6  7  1  0  0  0  0
  7  8  2  0  0  0  0
  8  9  1  0  0  0  0
  9 10  2  0  0  0  0
 10 11  1  0  0  0  0
 11 12  2  0  0  0  0
 12 13  1  0  0  0  0
 13 14  3  0  0  0  0
 12 15  1  0  0  0  0
 15 16  3  0  0  0  0
  8 17  1  0  0  0  0
 17 18  1  0  0  0  0
 18 19  1  0  0  0  0
 19 20  2  0  0  0  0
 20 21  1  0  0  0  0
 21 22  1  0  0  0  0
 21 23  1  0  0  0  0
  1 24  1  0  0  0  0
 24 25  2  0  0  0  0
 25 26  1  0  0  0  0
 26 27  1  0  0  0  0
 25 28  1  0  0  0  0
 28 29  2  0  0  0  0
 29 30  1  0  0  0  0
 29 31  1  0  0  0  0
 31 32  2  0  0  0  0
 32 33  1  0  0  0  0
 32 34  1  0  0  0  0
 34 35  1  0  0  0  0
 35 36  2  0  0  0  0
 36 37  1  0  0  0  0
 37 38  1  0  0  0  0
 38 39  2  0  0  0  0
 39 40  1  0  0  0  0
 40 41  1  0  0  0  0
 41 42  1  0  0  0  0
 42 43  1  0  0  0  0
 43 44  1  0  0  0  0
 44 45  2  0  0  0  0
 45 46  1  0  0  0  0
 46 47  1  0  0  0  0
 47 48  1  0  0  0  0
 48 49  1  0  0  0  0
 49 50  1  0  0  0  0
 50 51  1  0  0  0  0
 49 52  1  0  0  0  0
 52 53  1  0  0  0  0
 53 54  1  0  0  0  0
 54 55  1  0  0  0  0
 55 56  1  0  0  0  0
 45 57  1  0  0  0  0
 57 58  2  0  0  0  0
 58 59  1  0  0  0  0
 59 60  2  0  0  0  0
 59 61  1  0  0  0  0
 61 62  2  0  0  0  0
 62 63  1  0  0  0  0
 63 64  2  0  0  0  0
 64 65  1  0  0  0  0
 64 66  1  0  0  0  0
 66 67  2  0  0  0  0
 67 68  1  0  0  0  0
 68 69  2  0  0  0  0
 69 70  1  0  0  0  0
 70 71  3  0  0  0  0
 69 72  1  0  0  0  0
 72 73  3  0  0  0  0
 11  2  1  0  0  0  0
 23 17  1  0  0  0  0
 30 24  1  0  0  0  0
 54 31  1  0  0  0  0
 68 58  1  0  0  0  0
 10  5  1  0  0  0  0
 22 18  1  0  0  0  0
 33 28  1  0  0  0  0
 53 34  2  0  0  0  0
 67 61  1  0  0  0  0
 23  7  1  0  0  0  0
 39 35  1  0  0  0  0
 52 40  2  0  0  0  0
 48 41  2  0  0  0  0
 47 43  2  0  0  0  0
  1 74  1  0  0  0  0
  6 75  1  0  0  0  0
  9 76  1  0  0  0  0
 17 77  1  0  0  0  0
 18 78  1  0  0  0  0
 19 79  1  0  0  0  0
 20 80  1  0  0  0  0
 21 81  1  0  0  0  0
 22 82  1  0  0  0  0
 22 83  1  0  0  0  0
 23 84  1  0  0  0  0
 26 85  1  0  0  0  0
 26 86  1  0  0  0  0
 27 87  1  0  0  0  0
 27 88  1  0  0  0  0
 27 89  1  0  0  0  0
 44 90  1  0  0  0  0
 50 91  1  0  0  0  0
 50 92  1  0  0  0  0
 51 93  1  0  0  0  0
 51 94  1  0  0  0  0
 51 95  1  0  0  0  0
 55 96  1  0  0  0  0
 55 97  1  0  0  0  0
 56 98  1  0  0  0  0
 56 99  1  0  0  0  0
 56100  1  0  0  0  0
 57101  1  0  0  0  0
 62102  1  0  0  0  0
 63103  1  0  0  0  0
 65104  1  0  0  0  0
 65105  1  0  0  0  0
 65106  1  0  0  0  0
 66107  1  0  0  0  0
M  END
