
  xtb     02022207013D
 energy: -229.755870005745 gnorm: 0.000593082134 xtb: 6.4.1 (unknown)
130146  0     0  0            999 V2000
    3.0258   -5.1491    1.5877 C   0  0  0  0  0  0  0  0  0  0  0  0
    4.3318   -4.7545    1.4618 C   0  0  0  0  0  0  0  0  0  0  0  0
    4.8001   -3.3840    1.2379 C   0  0  0  0  0  0  0  0  0  0  0  0
    4.1218   -2.3715    1.1671 O   0  0  0  0  0  0  0  0  0  0  0  0
    6.2644   -3.4599    1.1186 C   0  0  0  0  0  0  0  0  0  0  0  0
    7.1406   -2.4078    0.8636 C   0  0  0  0  0  0  0  0  0  0  0  0
    8.4592   -2.7854    0.7835 C   0  0  0  0  0  0  0  0  0  0  0  0
    8.8757   -4.1133    0.9462 C   0  0  0  0  0  0  0  0  0  0  0  0
    8.0211   -5.1606    1.1978 C   0  0  0  0  0  0  0  0  0  0  0  0
    6.6738   -4.7992    1.2835 C   0  0  0  0  0  0  0  0  0  0  0  0
    5.4890   -5.6267    1.5083 C   0  0  0  0  0  0  0  0  0  0  0  0
    5.4934   -6.9836    1.7072 C   0  0  0  0  0  0  0  0  0  0  0  0
    4.3576   -7.8040    1.8764 C   0  0  0  0  0  0  0  0  0  0  0  0
    3.4994   -8.5573    2.0070 N   0  0  0  0  0  0  0  0  0  0  0  0
    6.6592   -7.7758    1.7701 C   0  0  0  0  0  0  0  0  0  0  0  0
    7.5610   -8.4832    1.8413 N   0  0  0  0  0  0  0  0  0  0  0  0
   10.3286   -3.7667    0.7402 C   0  0  0  0  0  0  0  0  0  0  0  0
   11.2370   -3.6891    1.9920 C   0  0  0  0  0  0  0  0  0  0  0  0
   10.3392   -3.3399    3.1529 C   0  0  0  0  0  0  0  0  0  0  0  0
    9.9463   -2.0827    2.9973 C   0  0  0  0  0  0  0  0  0  0  0  0
   10.5709   -1.5590    1.7277 C   0  0  0  0  0  0  0  0  0  0  0  0
   11.9028   -2.3259    1.7448 C   0  0  0  0  0  0  0  0  0  0  0  0
    9.8647   -2.2872    0.5574 C   0  0  0  0  0  0  0  0  0  0  0  0
    1.8387   -4.4117    1.4828 C   0  0  0  0  0  0  0  0  0  0  0  0
    0.5821   -5.0375    1.5415 C   0  0  0  0  0  0  0  0  0  0  0  0
    0.4073   -6.4619    1.8634 C   0  0  0  0  0  0  0  0  0  0  0  0
    0.6739   -6.8806    3.1640 C   0  0  0  0  0  0  0  0  0  0  0  0
    0.5189   -8.2053    3.5213 C   0  0  0  0  0  0  0  0  0  0  0  0
    0.1008   -9.1242    2.5750 C   0  0  0  0  0  0  0  0  0  0  0  0
   -0.1556   -8.7122    1.2807 C   0  0  0  0  0  0  0  0  0  0  0  0
   -0.0102   -7.3845    0.9026 C   0  0  0  0  0  0  0  0  0  0  0  0
   -0.2055   -6.9855   -0.5325 C   0  0  0  0  0  0  0  0  0  0  0  0
    1.1388   -6.9589   -1.2638 C   0  0  0  0  0  0  0  0  0  0  0  0
   -0.4500   -4.1360    1.3063 C   0  0  0  0  0  0  0  0  0  0  0  0
   -2.1931   -4.3111    1.2224 S   0  0  0  0  0  0  0  0  0  0  0  0
   -2.3167   -2.6147    0.8988 C   0  0  0  0  0  0  0  0  0  0  0  0
   -3.3059   -1.6451    0.6667 C   0  0  0  0  0  0  0  0  0  0  0  0
   -4.7195   -1.6775    0.6982 C   0  0  0  0  0  0  0  0  0  0  0  0
   -5.4550   -0.4494    0.5444 C   0  0  0  0  0  0  0  0  0  0  0  0
   -6.7605   -0.6259    0.6697 N   0  0  0  0  0  0  0  0  0  0  0  0
   -7.0456   -2.1949    0.9451 S   0  0  0  0  0  0  0  0  0  0  0  0
   -5.5134   -2.7125    0.9206 N   0  0  0  0  0  0  0  0  0  0  0  0
   -4.7564    0.7388    0.2280 C   0  0  0  0  0  0  0  0  0  0  0  0
   -5.1750    2.0371   -0.1070 C   0  0  0  0  0  0  0  0  0  0  0  0
   -6.6367    2.9466   -0.2470 S   0  0  0  0  0  0  0  0  0  0  0  0
   -5.7065    4.3275   -0.7823 C   0  0  0  0  0  0  0  0  0  0  0  0
   -6.0537    5.6137   -1.2027 C   0  0  0  0  0  0  0  0  0  0  0  0
   -7.4096    6.1478   -1.3747 C   0  0  0  0  0  0  0  0  0  0  0  0
   -8.2824    6.3595   -0.3057 C   0  0  0  0  0  0  0  0  0  0  0  0
   -7.8945    6.0755    1.1193 C   0  0  0  0  0  0  0  0  0  0  0  0
   -8.7722    4.9894    1.7422 C   0  0  0  0  0  0  0  0  0  0  0  0
   -9.5365    6.8943   -0.5771 C   0  0  0  0  0  0  0  0  0  0  0  0
   -9.9288    7.1987   -1.8666 C   0  0  0  0  0  0  0  0  0  0  0  0
   -9.0573    6.9854   -2.9221 C   0  0  0  0  0  0  0  0  0  0  0  0
   -7.8001    6.4737   -2.6741 C   0  0  0  0  0  0  0  0  0  0  0  0
   -4.9311    6.3463   -1.5973 C   0  0  0  0  0  0  0  0  0  0  0  0
   -3.4361    5.4366   -1.3874 S   0  0  0  0  0  0  0  0  0  0  0  0
   -4.3275    4.0664   -0.8436 C   0  0  0  0  0  0  0  0  0  0  0  0
   -4.0272    2.7600   -0.4671 C   0  0  0  0  0  0  0  0  0  0  0  0
   -2.9123    1.9633   -0.3676 N   0  0  0  0  0  0  0  0  0  0  0  0
   -3.3423    0.7316    0.0916 C   0  0  0  0  0  0  0  0  0  0  0  0
   -2.6162   -0.4188    0.4607 C   0  0  0  0  0  0  0  0  0  0  0  0
   -1.2600   -0.6184    0.6243 N   0  0  0  0  0  0  0  0  0  0  0  0
   -1.0785   -1.9558    0.8727 C   0  0  0  0  0  0  0  0  0  0  0  0
   -0.0042   -2.8197    1.0990 C   0  0  0  0  0  0  0  0  0  0  0  0
    1.7145   -2.6851    1.1643 S   0  0  0  0  0  0  0  0  0  0  0  0
   -0.2941    0.3504    1.1051 C   0  0  0  0  0  0  0  0  0  0  0  0
   -0.0758    0.2101    2.6112 C   0  0  0  0  0  0  0  0  0  0  0  0
   -1.7731    2.2092   -1.2334 C   0  0  0  0  0  0  0  0  0  0  0  0
   -2.1811    2.2055   -2.7066 C   0  0  0  0  0  0  0  0  0  0  0  0
   -4.9455    7.6948   -1.9903 C   0  0  0  0  0  0  0  0  0  0  0  0
   -3.9508    8.4284   -2.5766 C   0  0  0  0  0  0  0  0  0  0  0  0
   -3.9412    9.9042   -2.4396 C   0  0  0  0  0  0  0  0  0  0  0  0
   -4.8464   10.6045   -2.0499 O   0  0  0  0  0  0  0  0  0  0  0  0
   -2.5695   10.3123   -2.8259 C   0  0  0  0  0  0  0  0  0  0  0  0
   -1.9609   11.5570   -2.7720 C   0  0  0  0  0  0  0  0  0  0  0  0
   -2.8182   12.9404   -2.2375 Cl  0  0  0  0  0  0  0  0  0  0  0  0
   -0.6275   11.6726   -3.1598 C   0  0  0  0  0  0  0  0  0  0  0  0
    0.0588   10.5493   -3.5893 C   0  0  0  0  0  0  0  0  0  0  0  0
    1.8783   10.7318   -4.0874 Br  0  0  0  0  0  0  0  0  0  0  0  0
   -0.5319    9.2919   -3.6657 C   0  0  0  0  0  0  0  0  0  0  0  0
   -1.8544    9.1865   -3.2798 C   0  0  0  0  0  0  0  0  0  0  0  0
   -2.7552    8.0326   -3.2731 C   0  0  0  0  0  0  0  0  0  0  0  0
   -2.6000    6.9008   -4.0343 C   0  0  0  0  0  0  0  0  0  0  0  0
   -1.4244    6.5687   -4.7329 C   0  0  0  0  0  0  0  0  0  0  0  0
   -0.4785    6.2345   -5.2912 N   0  0  0  0  0  0  0  0  0  0  0  0
   -3.6524    5.9896   -4.2589 C   0  0  0  0  0  0  0  0  0  0  0  0
   -4.5077    5.2633   -4.5028 N   0  0  0  0  0  0  0  0  0  0  0  0
    2.8466   -6.2029    1.7655 H   0  0  0  0  0  0  0  0  0  0  0  0
    6.7755   -1.4001    0.7398 H   0  0  0  0  0  0  0  0  0  0  0  0
    8.3597   -6.1762    1.3144 H   0  0  0  0  0  0  0  0  0  0  0  0
   10.8202   -4.2548   -0.0990 H   0  0  0  0  0  0  0  0  0  0  0  0
   11.8883   -4.5478    2.1305 H   0  0  0  0  0  0  0  0  0  0  0  0
   10.0452   -4.0393    3.9135 H   0  0  0  0  0  0  0  0  0  0  0  0
    9.2582   -1.5214    3.6021 H   0  0  0  0  0  0  0  0  0  0  0  0
   10.6169   -0.4780    1.6250 H   0  0  0  0  0  0  0  0  0  0  0  0
   12.4461   -2.2731    0.8023 H   0  0  0  0  0  0  0  0  0  0  0  0
   12.5540   -2.0207    2.5624 H   0  0  0  0  0  0  0  0  0  0  0  0
   10.0521   -1.8095   -0.4024 H   0  0  0  0  0  0  0  0  0  0  0  0
    1.0001   -6.1529    3.8941 H   0  0  0  0  0  0  0  0  0  0  0  0
    0.7306   -8.5188    4.5320 H   0  0  0  0  0  0  0  0  0  0  0  0
   -0.0157  -10.1631    2.8433 H   0  0  0  0  0  0  0  0  0  0  0  0
   -0.4691   -9.4346    0.5408 H   0  0  0  0  0  0  0  0  0  0  0  0
   -0.8642   -7.7056   -1.0210 H   0  0  0  0  0  0  0  0  0  0  0  0
   -0.6725   -6.0020   -0.5994 H   0  0  0  0  0  0  0  0  0  0  0  0
    1.7924   -6.1998   -0.8389 H   0  0  0  0  0  0  0  0  0  0  0  0
    1.6347   -7.9229   -1.1745 H   0  0  0  0  0  0  0  0  0  0  0  0
    0.9928   -6.7371   -2.3184 H   0  0  0  0  0  0  0  0  0  0  0  0
   -8.0018    6.9950    1.7018 H   0  0  0  0  0  0  0  0  0  0  0  0
   -6.8481    5.7713    1.1710 H   0  0  0  0  0  0  0  0  0  0  0  0
   -8.4380    4.7732    2.7541 H   0  0  0  0  0  0  0  0  0  0  0  0
   -9.8105    5.3075    1.7840 H   0  0  0  0  0  0  0  0  0  0  0  0
   -8.7190    4.0747    1.1572 H   0  0  0  0  0  0  0  0  0  0  0  0
  -10.2115    7.0865    0.2439 H   0  0  0  0  0  0  0  0  0  0  0  0
  -10.9099    7.6112   -2.0483 H   0  0  0  0  0  0  0  0  0  0  0  0
   -9.3521    7.2251   -3.9322 H   0  0  0  0  0  0  0  0  0  0  0  0
   -7.1092    6.2996   -3.4864 H   0  0  0  0  0  0  0  0  0  0  0  0
    0.6524    0.1930    0.5789 H   0  0  0  0  0  0  0  0  0  0  0  0
   -0.6656    1.3536    0.9053 H   0  0  0  0  0  0  0  0  0  0  0  0
    0.3596   -0.7546    2.8540 H   0  0  0  0  0  0  0  0  0  0  0  0
    0.6025    0.9874    2.9512 H   0  0  0  0  0  0  0  0  0  0  0  0
   -1.0211    0.3131    3.1401 H   0  0  0  0  0  0  0  0  0  0  0  0
   -1.3393    3.1788   -0.9686 H   0  0  0  0  0  0  0  0  0  0  0  0
   -1.0338    1.4254   -1.0830 H   0  0  0  0  0  0  0  0  0  0  0  0
   -1.3026    2.3688   -3.3245 H   0  0  0  0  0  0  0  0  0  0  0  0
   -2.9014    2.9892   -2.9245 H   0  0  0  0  0  0  0  0  0  0  0  0
   -2.6218    1.2469   -2.9719 H   0  0  0  0  0  0  0  0  0  0  0  0
   -5.8337    8.2531   -1.7094 H   0  0  0  0  0  0  0  0  0  0  0  0
   -0.1378   12.6324   -3.1210 H   0  0  0  0  0  0  0  0  0  0  0  0
    0.0367    8.4409   -4.0042 H   0  0  0  0  0  0  0  0  0  0  0  0
  1  2  2  0  0  0  0
  2  3  1  0  0  0  0
  3  4  2  0  0  0  0
  3  5  1  0  0  0  0
  5  6  2  0  0  0  0
  6  7  1  0  0  0  0
  7  8  2  0  0  0  0
  8  9  1  0  0  0  0
  9 10  2  0  0  0  0
 10 11  1  0  0  0  0
 11 12  2  0  0  0  0
 12 13  1  0  0  0  0
 13 14  3  0  0  0  0
 12 15  1  0  0  0  0
 15 16  3  0  0  0  0
  8 17  1  0  0  0  0
 17 18  1  0  0  0  0
 18 19  1  0  0  0  0
 19 20  2  0  0  0  0
 20 21  1  0  0  0  0
 21 22  1  0  0  0  0
 21 23  1  0  0  0  0
  1 24  1  0  0  0  0
 24 25  2  0  0  0  0
 25 26  1  0  0  0  0
 26 27  2  0  0  0  0
 27 28  1  0  0  0  0
 28 29  2  0  0  0  0
 29 30  1  0  0  0  0
 30 31  2  0  0  0  0
 31 32  1  0  0  0  0
 32 33  1  0  0  0  0
 25 34  1  0  0  0  0
 34 35  1  0  0  0  0
 35 36  1  0  0  0  0
 36 37  1  0  0  0  0
 37 38  1  0  0  0  0
 38 39  1  0  0  0  0
 39 40  2  0  0  0  0
 40 41  1  0  0  0  0
 41 42  1  0  0  0  0
 39 43  1  0  0  0  0
 43 44  1  0  0  0  0
 44 45  1  0  0  0  0
 45 46  1  0  0  0  0
 46 47  1  0  0  0  0
 47 48  1  0  0  0  0
 48 49  2  0  0  0  0
 49 50  1  0  0  0  0
 50 51  1  0  0  0  0
 49 52  1  0  0  0  0
 52 53  2  0  0  0  0
 53 54  1  0  0  0  0
 54 55  2  0  0  0  0
 47 56  2  0  0  0  0
 56 57  1  0  0  0  0
 57 58  1  0  0  0  0
 58 59  1  0  0  0  0
 59 60  1  0  0  0  0
 60 61  1  0  0  0  0
 61 62  1  0  0  0  0
 62 63  1  0  0  0  0
 63 64  1  0  0  0  0
 64 65  1  0  0  0  0
 65 66  1  0  0  0  0
 63 67  1  0  0  0  0
 67 68  1  0  0  0  0
 60 69  1  0  0  0  0
 69 70  1  0  0  0  0
 56 71  1  0  0  0  0
 71 72  2  0  0  0  0
 72 73  1  0  0  0  0
 73 74  2  0  0  0  0
 73 75  1  0  0  0  0
 75 76  2  0  0  0  0
 76 77  1  0  0  0  0
 76 78  1  0  0  0  0
 78 79  2  0  0  0  0
 79 80  1  0  0  0  0
 79 81  1  0  0  0  0
 81 82  2  0  0  0  0
 82 83  1  0  0  0  0
 83 84  2  0  0  0  0
 84 85  1  0  0  0  0
 85 86  3  0  0  0  0
 84 87  1  0  0  0  0
 87 88  3  0  0  0  0
 11  2  1  0  0  0  0
 23 17  1  0  0  0  0
 66 24  1  0  0  0  0
 83 72  1  0  0  0  0
 10  5  1  0  0  0  0
 22 18  1  0  0  0  0
 31 26  1  0  0  0  0
 65 34  2  0  0  0  0
 82 75  1  0  0  0  0
 23  7  1  0  0  0  0
 64 36  2  0  0  0  0
 62 37  2  0  0  0  0
 42 38  2  0  0  0  0
 61 43  2  0  0  0  0
 59 44  2  0  0  0  0
 58 46  2  0  0  0  0
 55 48  1  0  0  0  0
  1 89  1  0  0  0  0
  6 90  1  0  0  0  0
  9 91  1  0  0  0  0
 17 92  1  0  0  0  0
 18 93  1  0  0  0  0
 19 94  1  0  0  0  0
 20 95  1  0  0  0  0
 21 96  1  0  0  0  0
 22 97  1  0  0  0  0
 22 98  1  0  0  0  0
 23 99  1  0  0  0  0
 27100  1  0  0  0  0
 28101  1  0  0  0  0
 29102  1  0  0  0  0
 30103  1  0  0  0  0
 32104  1  0  0  0  0
 32105  1  0  0  0  0
 33106  1  0  0  0  0
 33107  1  0  0  0  0
 33108  1  0  0  0  0
 50109  1  0  0  0  0
 50110  1  0  0  0  0
 51111  1  0  0  0  0
 51112  1  0  0  0  0
 51113  1  0  0  0  0
 52114  1  0  0  0  0
 53115  1  0  0  0  0
 54116  1  0  0  0  0
 55117  1  0  0  0  0
 67118  1  0  0  0  0
 67119  1  0  0  0  0
 68120  1  0  0  0  0
 68121  1  0  0  0  0
 68122  1  0  0  0  0
 69123  1  0  0  0  0
 69124  1  0  0  0  0
 70125  1  0  0  0  0
 70126  1  0  0  0  0
 70127  1  0  0  0  0
 71128  1  0  0  0  0
 78129  1  0  0  0  0
 81130  1  0  0  0  0
M  END
