113

C          7.24440        1.59160       -0.65230
C          7.57760        0.63870       -1.58240
C          6.64410       -0.17000       -2.36960
O          5.42430       -0.12210       -2.35790
C          7.46640       -1.06600       -3.19880
C          7.01210       -2.02220       -4.10450
C          8.01670       -2.72000       -4.73070
C          9.37370       -2.48110       -4.47690
C          9.83480       -1.53640       -3.59080
C          8.82890       -0.81610       -2.93960
C          8.92660        0.25080       -1.94370
C         10.09930        0.77410       -1.45930
C         11.38650        0.34950       -1.84970
N         12.46630        0.05960       -2.11220
C         10.21270        1.80890       -0.50830
N         10.39660        2.64520        0.25880
C          9.82490       -3.54940       -5.44120
C         10.29510       -4.88200       -4.82040
C         10.21040       -5.86410       -5.96640
C          8.92580       -6.09000       -6.21010
C          8.12050       -5.26500       -5.23220
C          9.05780       -5.30590       -4.01840
C          8.31170       -3.81500       -5.72570
C          5.99680        2.03210       -0.19740
C          5.84660        3.00530        0.80400
C          6.95470        3.68650        1.53890
C          7.43480        2.83030        2.71300
C          4.50950        3.23720        1.09910
Se         3.65110        4.39000        2.34120
C          2.08100        3.66610        1.65540
C          0.69850        3.80210        1.82190
C         -0.03060        4.69970        2.63020
C         -1.45730        4.70420        2.53690
N         -2.01720        5.62190        3.30870
S         -0.83750        6.41500        4.09080
N          0.42800        5.61300        3.47100
C         -2.08360        3.73370        1.72720
C         -3.44070        3.42410        1.59010
Se        -5.08480        4.03720        2.19150
C         -5.80800        2.54010        1.27420
C         -7.10060        2.00890        1.15380
C         -8.34680        2.65720        1.65470
C         -8.33850        4.17740        1.54280
C         -7.09610        0.83090        0.40820
S         -5.49010        0.43340       -0.19750
C         -4.81480        1.78530        0.62760
C         -3.51430        2.27440        0.79600
N         -2.25280        1.88400        0.42920
C         -1.34830        2.77630        0.97120
C          0.06880        2.88760        0.92920
N          1.06100        2.23760        0.21350
C          2.27340        2.71040        0.65100
C          3.61570        2.46910        0.33350
S          4.44120        1.43560       -0.77240
C          1.01020        1.63310       -1.10080
C          0.91550        2.70470       -2.18550
C         -2.04850        0.58930       -0.17710
C         -2.29580        0.61620       -1.68520
C         -8.13740       -0.02140       -0.00590
C         -9.27540       -0.34860        0.68470
C         -9.42460       -0.26630        2.15240
O         -8.64480        0.20310        2.95620
C        -10.67090       -0.99830        2.46180
C        -11.24270       -1.23300        3.69640
C        -12.42030       -1.96860        3.77580
C        -13.09750       -2.25620        5.07550
C        -12.96590       -2.44350        2.58160
F        -14.10240       -3.16240        2.64980
C        -12.41070       -2.22630        1.33100
C        -11.23960       -1.48770        1.27420
C        -10.40530       -1.07800        0.14910
C        -10.69130       -1.27180       -1.17740
C         -9.91820       -0.76760       -2.24400
N         -9.35000       -0.36630       -3.15790
C        -11.82000       -1.97500       -1.64620
N        -12.71620       -2.54260       -2.08460
H          8.07270        2.08880       -0.16680
H          5.95650       -2.17030       -4.27070
H         10.88290       -1.36440       -3.41300
H         10.45880       -3.21410       -6.25980
H         11.24190       -4.82780       -4.29040
H         11.06420       -6.23780       -6.50040
H          8.49210       -6.69010       -6.98840
H          7.08640       -5.56130       -5.07760
H          9.15710       -6.30980       -3.60890
H          8.78530       -4.61400       -3.22340
H          7.93560       -3.65520       -6.73450
H          6.56720        4.63450        1.92580
H          7.79510        3.90450        0.87850
H          8.22230        3.34990        3.25120
H          7.82790        1.87960        2.36090
H          6.61120        2.63540        3.39710
H         -9.19570        2.25220        1.09760
H         -8.48350        2.36650        2.70160
H         -9.33190        4.56340        1.75740
H         -7.64510        4.62280        2.25670
H         -8.05490        4.48920        0.53970
H          0.17790        0.94430       -1.18530
H          1.93480        1.06450       -1.22710
H          1.77860        3.36450       -2.14040
H          0.88990        2.23640       -3.16540
H          0.01640        3.30450       -2.05500
H         -2.76260       -0.10370        0.28090
H         -1.04790        0.23500        0.07510
H         -2.04550       -0.34850       -2.11770
H         -3.34510        0.81720       -1.88420
H         -1.70610        1.38760       -2.17310
H         -7.97080       -0.51010       -0.95970
H        -10.77430       -0.84410        4.58770
H        -12.53230       -1.84340        5.90580
H        -14.10020       -1.82960        5.07890
H        -13.20370       -3.33160        5.21390
H        -12.89310       -2.63580        0.45900
