136

C         -2.45920        2.22760       -6.76010
C         -1.64770        1.59820       -7.67320
C         -0.28320        1.12600       -7.43330
O          0.38030        1.24960       -6.41530
C          0.15130        0.45720       -8.66940
C          1.36820       -0.18180       -8.89150
C          1.47730       -0.75730      -10.13430
C          0.45260       -0.69520      -11.08740
C         -0.74880       -0.05780      -10.88320
C         -0.88400        0.53010       -9.62280
C         -2.00750        1.26200       -9.03540
C         -3.17800        1.56210       -9.68560
C         -3.46040        1.20850      -11.02190
N         -3.76560        0.96230      -12.10140
C         -4.27700        2.26880       -9.15500
N         -5.22470        2.83250       -8.82980
C          1.22950       -1.50910      -12.09180
C          0.83700       -2.99710      -12.26810
C          0.22600       -3.43830      -10.96130
C          1.19680       -3.49620      -10.05950
C          2.48190       -3.09460      -10.74040
C          2.22470       -3.64770      -12.15110
C          2.37200       -1.57680      -11.02980
C         -2.24950        2.50970       -5.40600
C         -3.23810        3.10010       -4.59160
C         -4.48330        3.66370       -5.10070
C         -4.48390        4.53230       -6.19170
C         -5.67180        5.02390       -6.69100
C         -6.88740        4.66530       -6.12110
C         -8.17760        5.11380       -6.73790
C         -8.62130        4.09170       -7.78780
C         -6.88080        3.82920       -5.01070
C         -5.69720        3.33890       -4.49820
C         -2.88300        3.05750       -3.24530
S         -3.70620        3.54880       -1.77600
C         -2.36050        2.96080       -0.85930
C         -2.00780        2.72540        0.47760
C         -2.74880        2.82190        1.67830
C         -2.22750        2.21090        2.87100
N         -3.07020        2.29080        3.88790
S         -4.39840        3.07520        3.39620
N         -3.95370        3.33640        1.86160
C         -0.92720        1.65720        2.84750
C         -0.14750        1.02140        3.82850
S         -0.30130        0.42600        5.44570
C          1.33620       -0.18210        5.35510
C          2.13190       -0.91220        6.24810
C          1.73930       -1.28150        7.60400
C          0.48440       -1.83340        7.84630
C          0.15860       -2.29020        9.10910
C          1.06100       -2.19480       10.15980
C          0.74070       -2.76170       11.51190
C          1.27710       -4.19030       11.62950
C          2.29490       -1.59720        9.92270
C          2.63280       -1.14500        8.66450
C          3.37890       -1.20120        5.69410
S          3.58310       -0.47950        4.09930
C          1.96580        0.11200        4.13740
C          1.11060        0.78390        3.26170
N          1.13890        1.23410        1.96610
C         -0.12050        1.73060        1.67890
C         -0.71560        2.12560        0.45680
N         -0.32120        1.96640       -0.85400
C         -1.31860        2.45930       -1.65150
C         -1.61660        2.49640       -3.01610
S         -0.84440        1.99870       -4.47530
C          0.72040        1.13520       -1.41650
C          1.78470        1.95580       -2.14460
C          2.39970        1.62860        1.37330
C          3.08560        2.71340        2.20350
C          4.45480       -1.95670        6.20990
C          4.34800       -3.03480        7.04600
C          3.12050       -3.84530        7.21900
O          2.07340       -3.72030        6.61490
C          3.47950       -4.91490        8.16480
C          4.83080       -4.81660        8.48800
C          5.41320       -5.73320        9.37440
C          4.62800       -6.71610        9.91900
C          3.25430       -6.83550        9.61500
C          2.45040       -7.84300       10.18610
C          1.12270       -7.93720        9.87150
C          0.53580       -7.02850        8.97570
C          1.28180       -6.03570        8.40330
C          2.65410       -5.91740        8.70600
C          5.40930       -3.66710        7.79540
C          6.70340       -3.22690        7.91420
C          7.21690       -2.06130        7.30930
N          7.70100       -1.11750        6.86790
C          7.70350       -3.87160        8.67030
N          8.56960       -4.34430        9.25800
H         -3.44120        2.52280       -7.10970
H          2.12870       -0.20690       -8.12670
H         -1.52450       -0.02180      -11.62930
H          1.44260       -1.02130      -13.04080
H          0.25830       -3.20790      -13.16340
H         -0.82590       -3.60220      -10.81720
H          1.11800       -3.71800       -9.01120
H          3.40180       -3.39460      -10.24490
H          2.93610       -3.28960      -12.89400
H          2.18320       -4.73560      -12.17570
H          3.33200       -1.13220      -11.28470
H         -3.54540        4.83550       -6.63380
H         -5.65730        5.68660       -7.54320
H         -8.04360        6.08610       -7.21570
H         -8.94970        5.20950       -5.97160
H         -8.81870        3.13070       -7.31840
H         -7.83760        3.95170       -8.52800
H         -9.52620        4.42740       -8.28890
H         -7.81660        3.55110       -4.54750
H         -5.70840        2.67370       -3.64760
H         -0.21510       -1.94310        7.03260
H         -0.81030       -2.73740        9.27900
H          1.19380       -2.14280       12.28910
H         -0.33980       -2.76950       11.66620
H          2.35370       -4.20750       11.47120
H          0.81520       -4.83130       10.88220
H          1.06510       -4.59670       12.61560
H          2.99890       -1.48840       10.73570
H          3.59290       -0.67700        8.49800
H          1.15000        0.52230       -0.62380
H          0.25080        0.46190       -2.14220
H          2.61540        1.31300       -2.42100
H          1.37020        2.38450       -3.05240
H          2.15940        2.76990       -1.52760
H          2.21770        2.02140        0.37890
H          3.04580        0.74730        1.30870
H          3.33590        2.34870        3.19570
H          4.00300        3.02150        1.70980
H          2.43400        3.57910        2.30380
H          5.43810       -1.65570        5.86770
H          6.45920       -5.67370        9.62610
H          5.06360       -7.42910       10.60400
H          2.90300       -8.53980       10.87660
H          0.51420       -8.71330       10.31180
H         -0.51500       -7.12030        8.74320
H          0.84420       -5.32940        7.71580
