107

C         -0.77670        2.74320       -5.09740
C         -1.44540        1.68260       -5.64640
C         -1.45940        0.31290       -5.08060
O         -1.14040       -0.04600       -3.96350
C         -1.87780       -0.56470       -6.19020
C         -1.97490       -1.95400       -6.16120
C         -2.40490       -2.51030       -7.34170
C         -2.71640       -1.74290       -8.47210
C         -2.62480       -0.37180       -8.51530
C         -2.18690        0.21320       -7.32450
C         -1.97430        1.61780       -6.99150
C         -2.30810        2.69860       -7.76550
C         -2.21380        4.03640       -7.32700
N         -2.20070        5.14170       -7.01620
C         -2.83780        2.61420       -9.06840
N         -3.26360        2.60500      -10.13490
C         -3.07210       -2.95530       -9.29550
C         -2.04090       -3.44620      -10.34130
C         -0.68610       -3.00310       -9.84760
C         -0.38830       -3.72800       -8.77760
C         -1.53620       -4.67490       -8.52850
C         -1.98840       -4.93780       -9.97380
C         -2.72360       -3.81030       -8.03660
C         -0.31490        2.80720       -3.76520
S          1.25940        3.56420       -3.48660
C          1.19770        3.04970       -1.85670
C          1.98390        3.10010       -0.69950
C          3.16520        3.81940       -0.41610
C          3.63810        3.85610        0.93660
N          4.70140        4.63130        1.08100
S          5.07910        5.25600       -0.36380
N          3.89830        4.56400       -1.22840
C          2.99360        3.05510        1.90490
C          3.30580        2.82160        3.25270
S          4.42190        3.36760        4.45350
C          3.71990        2.23470        5.58550
C          3.99760        1.94150        6.92490
C          5.08220        2.61040        7.70290
C          6.42700        1.92650        7.44200
C          3.14540        0.96330        7.41780
S          2.02170        0.38120        6.18680
C          2.67800        1.47870        5.03290
C          2.43440        1.82550        3.70270
N          1.57170        1.45350        2.70130
C          1.88490        2.22000        1.58260
C          1.28480        2.36410        0.30110
N          0.07280        1.97150       -0.22540
C          0.00670        2.38070       -1.53630
C         -0.89910        2.29410       -2.61010
C         -2.37020        2.02930       -2.52150
C         -3.06700        3.23440       -1.87840
C         -0.99650        1.22640        0.38850
C         -0.96900       -0.23920       -0.05030
C          1.04300        0.10590        2.78120
C          2.06790       -0.90900        2.27720
C          3.18590        0.36480        8.69770
C          2.21310       -0.33720        9.33960
C          2.57770       -1.29810       10.42070
O          3.64620       -1.39290       10.97990
C          1.37200       -2.12040       10.59960
C          0.35400       -1.62100        9.79390
S         -1.13910       -2.47200        9.94170
C         -0.39870       -3.54290       11.09130
C         -0.85870       -4.64690       11.83170
C          0.12700       -5.14470       12.62550
S          1.63000       -4.29670       12.50310
C          0.94210       -3.22470       11.34530
C          0.78480       -0.44360        9.09330
C         -0.05060        0.49900        8.54470
C          0.36790        1.79100        8.17350
N          0.66630        2.87000        7.91810
C         -1.43120        0.26380        8.40320
N         -2.55300        0.07130        8.25280
H         -0.46920        3.55490       -5.74630
H         -1.72900       -2.50840       -5.26890
H         -2.86200        0.20770       -9.39200
H         -4.09300       -2.99270       -9.67020
H         -2.28440       -3.19140      -11.36910
H         -0.12680       -2.19400      -10.27940
H          0.46990       -3.64490       -8.13650
H         -1.31900       -5.53950       -7.90670
H         -1.24870       -5.48840      -10.55300
H         -2.95460       -5.43590      -10.04230
H         -3.51610       -4.40910       -7.59160
H          4.85220        2.58830        8.76790
H          5.14320        3.65300        7.38470
H          6.39320        0.88350        7.74910
H          6.67340        1.96870        6.38380
H          7.21270        2.42730        8.00110
H         -2.57560        1.11910       -1.96010
H         -2.78050        1.89880       -3.52060
H         -2.64340        3.47770       -0.90620
H         -4.12730        3.02770       -1.75440
H         -2.95890        4.10760       -2.51770
H         -0.93180        1.34600        1.47080
H         -1.94220        1.67400        0.07720
H         -1.08530       -0.30480       -1.12980
H         -1.77840       -0.78790        0.42470
H         -0.02420       -0.71250        0.20410
H          0.11920        0.00110        2.22530
H          0.82330       -0.08170        3.83580
H          1.66180       -1.91390        2.35340
H          2.32240       -0.70890        1.23800
H          2.97860       -0.85660        2.86930
H          4.14600        0.38550        9.20350
H         -1.85540       -5.04310       11.77810
H          0.06290       -5.98030       13.29410
