145

C          1.98260        3.21900       -5.44900
C          3.05160        3.79940       -4.83230
C          3.60200        5.08020       -5.34380
O          3.36630        5.59660       -6.41430
C          4.43770        5.61050       -4.24650
C          5.07650        6.84700       -4.19020
C          5.76720        7.06880       -3.02270
C          5.80880        6.13870       -1.97530
C          5.19010        4.91200       -2.01800
C          4.49810        4.66160       -3.20430
C          3.78260        3.46270       -3.63250
C          4.02090        2.19340       -3.16860
C          4.82270        1.89370       -2.05170
N          5.44380        1.58790       -1.13490
C          3.56150        1.03740       -3.83350
N          3.25180        0.07830       -4.38410
C          6.67620        7.02430       -1.11640
C          8.18040        6.67160       -1.01300
C          8.53390        5.93410       -2.28080
C          8.50370        6.80770       -3.27840
C          8.12930        8.15130       -2.70310
C          8.79210        8.04770       -1.32020
C          6.63990        8.05570       -2.28790
C          1.06860        2.28500       -4.92020
C          0.23130        1.43170       -5.63750
C          0.12120        1.38470       -7.09530
C         -0.16520        2.52720       -7.83820
C         -0.28610        2.45140       -9.21160
C         -0.12460        1.24240       -9.87780
C         -0.19800        1.17650      -11.37520
C          1.18910        1.39610      -11.98340
C          0.15160        0.10400       -9.13020
C          0.26630        0.16770       -7.75590
C         -0.46400        0.56350       -4.78460
S         -1.57810       -0.75330       -5.07530
C         -1.68880       -1.01330       -3.36810
C         -2.30150       -1.89330       -2.45760
C         -3.26620       -2.92010       -2.58340
C         -3.77040       -3.56980       -1.39730
N         -4.71350       -4.45580       -1.67350
S         -4.94500       -4.48410       -3.27530
N         -3.85250       -3.36210       -3.68400
C         -3.19210       -3.26910       -0.14230
C         -3.33370       -3.81050        1.15330
S         -4.27900       -4.98430        2.01590
C         -3.36740       -4.63800        3.46850
C         -3.39480       -5.14260        4.79550
C         -4.30100       -6.21390        5.22010
C         -5.65520       -6.14660        4.90760
C         -6.51080       -7.16170        5.28830
C         -6.04020       -8.27180        5.97860
C         -6.97950       -9.35160        6.43120
C         -7.50570       -9.04640        7.83550
C         -4.68490       -8.34190        6.27590
C         -3.82270       -7.33000        5.90110
C         -2.46310       -4.52330        5.59030
S         -1.52930       -3.32340        4.71930
C         -2.39460       -3.66620        3.27040
C         -2.36580       -3.19930        1.95290
N         -1.63190       -2.29760        1.22690
C         -2.15220       -2.30920       -0.05460
C         -1.82840       -1.51630       -1.17340
N         -1.02390       -0.40200       -1.27940
C         -0.92110       -0.11130       -2.61580
C         -0.22610        0.78850       -3.42310
S          0.89300        2.07280       -3.17750
C         -0.80980        0.61550       -0.26990
C         -1.68570        1.84170       -0.52010
C         -0.25100       -2.04920        1.59250
C          0.56180       -3.34320        1.59680
C         -2.28690       -4.67220        7.07380
C         -2.64960       -3.39330        7.76980
C         -1.75920       -2.40690        7.89800
C         -0.44200       -2.52670        7.30910
C          0.16390       -1.46250        6.68940
C          1.42620       -1.63760        5.96840
O          2.25060       -2.49080        6.22640
N          1.62450       -0.78480        4.88640
C          2.81690       -1.00880        4.07530
C          3.93050       -0.04230        4.45380
C          0.76740        0.22040        4.54610
S          0.90620        1.00980        3.09960
N         -0.19500        0.57150        5.44410
C         -0.49450       -0.15440        6.59640
O         -1.27490        0.29950        7.40510
C         -1.03040        1.73720        5.17890
C         -2.25430        1.35520        4.35590
C          0.14780       -3.90230        7.26850
C         -0.86000       -5.02770        7.52050
H          1.78210        3.57300       -6.45410
H          5.01530        7.54120       -5.01370
H          5.22050        4.20250       -1.20700
H          6.25260        7.32510       -0.16010
H          8.46870        6.19070       -0.08210
H          8.70580        4.87480       -2.32860
H          8.64640        6.62400       -4.32720
H          8.37320        9.01870       -3.31120
H          9.87940        8.02250       -1.37500
H          8.47640        8.82730       -0.62800
H          6.20050        9.03270       -2.09480
H         -0.32380        3.47050       -7.33580
H         -0.51390        3.34450       -9.77570
H         -0.57670        0.20050      -11.68520
H         -0.88000        1.94330      -11.74800
H          1.14050        1.34920      -13.06870
H          1.57920        2.36930      -11.69420
H          1.88070        0.63340      -11.63260
H          0.27510       -0.84520       -9.63130
H          0.49120       -0.72180       -7.18730
H         -6.03590       -5.29050        4.37080
H         -7.56040       -7.09430        5.04070
H         -6.46120      -10.31250        6.44260
H         -7.82080       -9.42470        5.73960
H         -8.18650       -9.82770        8.16480
H         -8.03660       -8.09700        7.84240
H         -6.68190       -8.98260        8.54320
H         -4.29800       -9.20510        6.79890
H         -2.76620       -7.41790        6.11060
H         -1.06840        0.20820        0.70520
H          0.24490        0.90820       -0.27070
H         -1.53510        2.55450        0.28550
H         -1.42970        2.32390       -1.45910
H         -2.73540        1.55640       -0.54660
H          0.19980       -1.36150        0.88130
H         -0.23980       -1.59690        2.58880
H          0.18850       -4.03790        2.34450
H          0.50940       -3.82000        0.62040
H          1.60140       -3.12000        1.81990
H         -2.97040       -5.46370        7.39600
H         -3.65860       -3.28420        8.13710
H         -2.02720       -1.47140        8.35990
H          3.13140       -2.03720        4.25910
H          2.54550       -0.88410        3.02550
H          3.61880        0.98520        4.28050
H          4.80610       -0.24450        3.84420
H          4.19530       -0.16300        5.50160
H         -0.42900        2.47860        4.65090
H         -1.33670        2.13150        6.14910
H         -2.83820        0.60140        4.87930
H         -1.95350        0.96230        3.38730
H         -2.87500        2.23230        4.19830
H          0.65560       -4.05240        6.31380
H          0.93930       -3.94350        8.02150
H         -0.52190       -5.92960        7.00860
H         -0.90770       -5.24650        8.58930
