
  xtb     02022223483D
 energy: -193.076645199271 gnorm: 0.000337546058 xtb: 6.4.1 (unknown)
107120  0     0  0            999 V2000
   -2.5720   -2.1696    4.1625 C   0  0  0  0  0  0  0  0  0  0  0  0
   -3.6642   -2.9969    4.1685 C   0  0  0  0  0  0  0  0  0  0  0  0
   -4.6005   -3.2372    3.0605 C   0  0  0  0  0  0  0  0  0  0  0  0
   -4.7116   -2.6045    2.0277 O   0  0  0  0  0  0  0  0  0  0  0  0
   -5.3863   -4.4251    3.4399 C   0  0  0  0  0  0  0  0  0  0  0  0
   -6.3227   -5.0935    2.6545 C   0  0  0  0  0  0  0  0  0  0  0  0
   -6.8643   -6.2040    3.2561 C   0  0  0  0  0  0  0  0  0  0  0  0
   -6.5027   -6.6188    4.5449 C   0  0  0  0  0  0  0  0  0  0  0  0
   -5.5844   -5.9652    5.3319 C   0  0  0  0  0  0  0  0  0  0  0  0
   -5.0202   -4.8316    4.7384 C   0  0  0  0  0  0  0  0  0  0  0  0
   -4.0022   -3.9123    5.2422 C   0  0  0  0  0  0  0  0  0  0  0  0
   -3.5038   -3.9050    6.5205 C   0  0  0  0  0  0  0  0  0  0  0  0
   -3.8929   -4.8057    7.5337 C   0  0  0  0  0  0  0  0  0  0  0  0
   -4.1589   -5.5015    8.4076 N   0  0  0  0  0  0  0  0  0  0  0  0
   -2.5635   -2.9850    7.0276 C   0  0  0  0  0  0  0  0  0  0  0  0
   -1.8083   -2.2716    7.5199 N   0  0  0  0  0  0  0  0  0  0  0  0
   -7.4244   -7.8124    4.5061 C   0  0  0  0  0  0  0  0  0  0  0  0
   -8.7486   -7.6907    5.2891 C   0  0  0  0  0  0  0  0  0  0  0  0
   -9.6227   -8.7680    4.6885 C   0  0  0  0  0  0  0  0  0  0  0  0
   -9.9655   -8.3757    3.4681 C   0  0  0  0  0  0  0  0  0  0  0  0
   -9.3290   -7.0265    3.2232 C   0  0  0  0  0  0  0  0  0  0  0  0
   -9.3782   -6.4494    4.6438 C   0  0  0  0  0  0  0  0  0  0  0  0
   -7.8278   -7.3495    3.0693 C   0  0  0  0  0  0  0  0  0  0  0  0
   -2.0801   -1.2940    3.1803 C   0  0  0  0  0  0  0  0  0  0  0  0
   -2.9522   -0.8980    1.6990 S   0  0  0  0  0  0  0  0  0  0  0  0
   -1.6565    0.1097    1.2360 C   0  0  0  0  0  0  0  0  0  0  0  0
   -1.3285    0.9659    0.1783 C   0  0  0  0  0  0  0  0  0  0  0  0
   -2.1250    1.4450   -0.8838 C   0  0  0  0  0  0  0  0  0  0  0  0
   -1.5887    2.4622   -1.7366 C   0  0  0  0  0  0  0  0  0  0  0  0
   -2.4597    2.8784   -2.6429 N   0  0  0  0  0  0  0  0  0  0  0  0
   -3.8370    2.0509   -2.4414 S   0  0  0  0  0  0  0  0  0  0  0  0
   -3.3750    1.1364   -1.1907 N   0  0  0  0  0  0  0  0  0  0  0  0
   -0.2387    2.8409   -1.5712 C   0  0  0  0  0  0  0  0  0  0  0  0
    0.5663    3.6665   -2.3662 C   0  0  0  0  0  0  0  0  0  0  0  0
    0.4453    4.6221   -3.8002 S   0  0  0  0  0  0  0  0  0  0  0  0
    2.1800    4.8501   -3.7637 C   0  0  0  0  0  0  0  0  0  0  0  0
    3.0718    5.4446   -4.6585 C   0  0  0  0  0  0  0  0  0  0  0  0
    2.6406    6.1596   -5.8955 C   0  0  0  0  0  0  0  0  0  0  0  0
    2.3835    7.6383   -5.5921 C   0  0  0  0  0  0  0  0  0  0  0  0
    4.3922    5.2571   -4.2593 C   0  0  0  0  0  0  0  0  0  0  0  0
    4.5023    4.4222   -2.7076 S   0  0  0  0  0  0  0  0  0  0  0  0
    2.7910    4.2362   -2.6599 C   0  0  0  0  0  0  0  0  0  0  0  0
    1.8666    3.5675   -1.8594 C   0  0  0  0  0  0  0  0  0  0  0  0
    1.8919    2.7499   -0.7586 N   0  0  0  0  0  0  0  0  0  0  0  0
    0.5974    2.2810   -0.5573 C   0  0  0  0  0  0  0  0  0  0  0  0
   -0.0034    1.4304    0.4124 C   0  0  0  0  0  0  0  0  0  0  0  0
    0.4198    0.9190    1.6262 N   0  0  0  0  0  0  0  0  0  0  0  0
   -0.5797    0.1168    2.1414 C   0  0  0  0  0  0  0  0  0  0  0  0
   -0.8297   -0.6503    3.2850 C   0  0  0  0  0  0  0  0  0  0  0  0
    0.0137   -0.7330    4.5222 C   0  0  0  0  0  0  0  0  0  0  0  0
   -0.4684    0.2760    5.5700 C   0  0  0  0  0  0  0  0  0  0  0  0
    1.6137    1.2500    2.3623 C   0  0  0  0  0  0  0  0  0  0  0  0
    2.6759    0.1516    2.2573 C   0  0  0  0  0  0  0  0  0  0  0  0
    3.1780    2.1615   -0.4405 C   0  0  0  0  0  0  0  0  0  0  0  0
    3.4806    0.9786   -1.3587 C   0  0  0  0  0  0  0  0  0  0  0  0
    5.5545    5.6737   -4.9362 C   0  0  0  0  0  0  0  0  0  0  0  0
    6.8270    5.1916   -4.8034 C   0  0  0  0  0  0  0  0  0  0  0  0
    7.9815    6.0221   -5.2193 C   0  0  0  0  0  0  0  0  0  0  0  0
    7.9538    7.0403   -5.8715 O   0  0  0  0  0  0  0  0  0  0  0  0
    9.1651    5.3644   -4.6134 C   0  0  0  0  0  0  0  0  0  0  0  0
   10.4790    5.7854   -4.6111 C   0  0  0  0  0  0  0  0  0  0  0  0
   11.4217    5.0041   -3.9522 C   0  0  0  0  0  0  0  0  0  0  0  0
   13.0759    5.4739   -3.9110 Cl  0  0  0  0  0  0  0  0  0  0  0  0
   11.0167    3.8269   -3.3191 C   0  0  0  0  0  0  0  0  0  0  0  0
   11.9285    3.0868   -2.6762 F   0  0  0  0  0  0  0  0  0  0  0  0
    9.7012    3.3899   -3.3271 C   0  0  0  0  0  0  0  0  0  0  0  0
    8.7653    4.1720   -3.9831 C   0  0  0  0  0  0  0  0  0  0  0  0
    7.3369    3.9737   -4.2162 C   0  0  0  0  0  0  0  0  0  0  0  0
    6.6906    2.7649   -4.1501 C   0  0  0  0  0  0  0  0  0  0  0  0
    5.4187    2.5297   -4.7130 C   0  0  0  0  0  0  0  0  0  0  0  0
    4.4119    2.2744   -5.2029 N   0  0  0  0  0  0  0  0  0  0  0  0
    7.2364    1.6047   -3.5692 C   0  0  0  0  0  0  0  0  0  0  0  0
    7.6027    0.6414   -3.0626 N   0  0  0  0  0  0  0  0  0  0  0  0
   -1.9502   -2.2310    5.0450 H   0  0  0  0  0  0  0  0  0  0  0  0
   -6.5641   -4.7439    1.6630 H   0  0  0  0  0  0  0  0  0  0  0  0
   -5.3083   -6.3049    6.3160 H   0  0  0  0  0  0  0  0  0  0  0  0
   -6.9469   -8.7832    4.6259 H   0  0  0  0  0  0  0  0  0  0  0  0
   -8.6399   -7.6938    6.3701 H   0  0  0  0  0  0  0  0  0  0  0  0
   -9.8477   -9.6987    5.1754 H   0  0  0  0  0  0  0  0  0  0  0  0
  -10.5339   -8.9134    2.7320 H   0  0  0  0  0  0  0  0  0  0  0  0
   -9.7502   -6.4249    2.4223 H   0  0  0  0  0  0  0  0  0  0  0  0
   -8.7962   -5.5387    4.7730 H   0  0  0  0  0  0  0  0  0  0  0  0
  -10.3984   -6.2812    4.9846 H   0  0  0  0  0  0  0  0  0  0  0  0
   -7.6187   -8.0117    2.2311 H   0  0  0  0  0  0  0  0  0  0  0  0
    1.7179    5.7014   -6.2564 H   0  0  0  0  0  0  0  0  0  0  0  0
    3.3996    6.0652   -6.6719 H   0  0  0  0  0  0  0  0  0  0  0  0
    3.2892    8.1196   -5.2299 H   0  0  0  0  0  0  0  0  0  0  0  0
    1.6105    7.7398   -4.8341 H   0  0  0  0  0  0  0  0  0  0  0  0
    2.0552    8.1498   -6.4927 H   0  0  0  0  0  0  0  0  0  0  0  0
    1.0568   -0.5323    4.2910 H   0  0  0  0  0  0  0  0  0  0  0  0
   -0.0277   -1.7355    4.9497 H   0  0  0  0  0  0  0  0  0  0  0  0
    0.1666    0.2278    6.4503 H   0  0  0  0  0  0  0  0  0  0  0  0
   -0.4430    1.2889    5.1720 H   0  0  0  0  0  0  0  0  0  0  0  0
   -1.4873    0.0543    5.8749 H   0  0  0  0  0  0  0  0  0  0  0  0
    1.9849    2.2113    2.0021 H   0  0  0  0  0  0  0  0  0  0  0  0
    1.3364    1.3919    3.4106 H   0  0  0  0  0  0  0  0  0  0  0  0
    3.5966    0.4741    2.7373 H   0  0  0  0  0  0  0  0  0  0  0  0
    2.3344   -0.7580    2.7440 H   0  0  0  0  0  0  0  0  0  0  0  0
    2.8845   -0.1016    1.2218 H   0  0  0  0  0  0  0  0  0  0  0  0
    3.2313    1.8569    0.5968 H   0  0  0  0  0  0  0  0  0  0  0  0
    3.9252    2.9452   -0.5951 H   0  0  0  0  0  0  0  0  0  0  0  0
    2.7309    0.1988   -1.2389 H   0  0  0  0  0  0  0  0  0  0  0  0
    4.4592    0.5680   -1.1251 H   0  0  0  0  0  0  0  0  0  0  0  0
    3.4808    1.2929   -2.4002 H   0  0  0  0  0  0  0  0  0  0  0  0
    5.4514    6.5276   -5.5977 H   0  0  0  0  0  0  0  0  0  0  0  0
   10.7658    6.6970   -5.1106 H   0  0  0  0  0  0  0  0  0  0  0  0
    9.4485    2.4720   -2.8212 H   0  0  0  0  0  0  0  0  0  0  0  0
  1  2  2  0  0  0  0
  2  3  1  0  0  0  0
  3  4  2  0  0  0  0
  3  5  1  0  0  0  0
  5  6  2  0  0  0  0
  6  7  1  0  0  0  0
  7  8  2  0  0  0  0
  8  9  1  0  0  0  0
  9 10  2  0  0  0  0
 10 11  1  0  0  0  0
 11 12  2  0  0  0  0
 12 13  1  0  0  0  0
 13 14  3  0  0  0  0
 12 15  1  0  0  0  0
 15 16  3  0  0  0  0
  8 17  1  0  0  0  0
 17 18  1  0  0  0  0
 18 19  1  0  0  0  0
 19 20  2  0  0  0  0
 20 21  1  0  0  0  0
 21 22  1  0  0  0  0
 21 23  1  0  0  0  0
  1 24  1  0  0  0  0
 24 25  1  0  0  0  0
 25 26  1  0  0  0  0
 26 27  1  0  0  0  0
 27 28  1  0  0  0  0
 28 29  1  0  0  0  0
 29 30  2  0  0  0  0
 30 31  1  0  0  0  0
 31 32  1  0  0  0  0
 29 33  1  0  0  0  0
 33 34  1  0  0  0  0
 34 35  1  0  0  0  0
 35 36  1  0  0  0  0
 36 37  1  0  0  0  0
 37 38  1  0  0  0  0
 38 39  1  0  0  0  0
 37 40  2  0  0  0  0
 40 41  1  0  0  0  0
 41 42  1  0  0  0  0
 42 43  1  0  0  0  0
 43 44  1  0  0  0  0
 44 45  1  0  0  0  0
 45 46  1  0  0  0  0
 46 47  1  0  0  0  0
 47 48  1  0  0  0  0
 48 49  1  0  0  0  0
 49 50  1  0  0  0  0
 50 51  1  0  0  0  0
 47 52  1  0  0  0  0
 52 53  1  0  0  0  0
 44 54  1  0  0  0  0
 54 55  1  0  0  0  0
 40 56  1  0  0  0  0
 56 57  2  0  0  0  0
 57 58  1  0  0  0  0
 58 59  2  0  0  0  0
 58 60  1  0  0  0  0
 60 61  2  0  0  0  0
 61 62  1  0  0  0  0
 62 63  1  0  0  0  0
 62 64  2  0  0  0  0
 64 65  1  0  0  0  0
 64 66  1  0  0  0  0
 66 67  2  0  0  0  0
 67 68  1  0  0  0  0
 68 69  2  0  0  0  0
 69 70  1  0  0  0  0
 70 71  3  0  0  0  0
 69 72  1  0  0  0  0
 72 73  3  0  0  0  0
 11  2  1  0  0  0  0
 23 17  1  0  0  0  0
 49 24  2  0  0  0  0
 68 57  1  0  0  0  0
 10  5  1  0  0  0  0
 22 18  1  0  0  0  0
 48 26  2  0  0  0  0
 67 60  1  0  0  0  0
 23  7  1  0  0  0  0
 46 27  2  0  0  0  0
 32 28  2  0  0  0  0
 45 33  2  0  0  0  0
 43 34  2  0  0  0  0
 42 36  2  0  0  0  0
  1 74  1  0  0  0  0
  6 75  1  0  0  0  0
  9 76  1  0  0  0  0
 17 77  1  0  0  0  0
 18 78  1  0  0  0  0
 19 79  1  0  0  0  0
 20 80  1  0  0  0  0
 21 81  1  0  0  0  0
 22 82  1  0  0  0  0
 22 83  1  0  0  0  0
 23 84  1  0  0  0  0
 38 85  1  0  0  0  0
 38 86  1  0  0  0  0
 39 87  1  0  0  0  0
 39 88  1  0  0  0  0
 39 89  1  0  0  0  0
 50 90  1  0  0  0  0
 50 91  1  0  0  0  0
 51 92  1  0  0  0  0
 51 93  1  0  0  0  0
 51 94  1  0  0  0  0
 52 95  1  0  0  0  0
 52 96  1  0  0  0  0
 53 97  1  0  0  0  0
 53 98  1  0  0  0  0
 53 99  1  0  0  0  0
 54100  1  0  0  0  0
 54101  1  0  0  0  0
 55102  1  0  0  0  0
 55103  1  0  0  0  0
 55104  1  0  0  0  0
 56105  1  0  0  0  0
 61106  1  0  0  0  0
 66107  1  0  0  0  0
M  END
