108

C         -3.96100       -3.87890        2.06470
C         -5.07120       -4.16610        1.32300
C         -5.83330       -5.40770        1.60120
O         -5.69830       -6.14000        2.55840
C         -6.74490       -5.57860        0.45270
C         -7.59660       -6.65140        0.20190
C         -8.31510       -6.53630       -0.96420
C         -8.19630       -5.43570       -1.82290
C         -7.36560       -4.36660       -1.58510
C         -6.62850       -4.46300       -0.40260
C         -5.69320       -3.51210        0.19780
C         -5.62880       -2.17430       -0.10630
C         -4.94740       -1.21940        0.67340
N         -4.46140       -0.38150        1.29070
C         -6.30160       -1.56800       -1.18430
N         -6.79140       -1.01560       -2.06460
C         -9.20080       -5.98930       -2.80230
C         -8.66510       -6.62740       -4.10760
C         -7.27350       -7.12290       -3.80250
C         -7.38380       -8.16450       -2.98900
C         -8.85240       -8.39300       -2.73010
C         -9.43700       -7.95630       -4.08290
C         -9.33320       -7.21600       -1.84560
C         -2.89450       -3.01190        1.75590
C         -2.47130       -2.56250        0.48990
C         -1.33800       -1.80060        0.71530
C         -1.10410       -1.77680        2.10780
N         -2.02270       -2.54400        2.72530
C         -2.19970       -2.64470        4.15270
C         -3.37490       -1.79220        4.62430
C         -0.02810       -0.89860        2.33620
C          0.53290       -0.34740        3.50980
C          1.48130        0.72980        3.40000
N          1.85200        1.19980        4.57990
S          1.09240        0.36220        5.73490
N          0.25290       -0.63900        4.77220
C          1.93900        1.11130        2.11970
C          2.89370        2.04530        1.68420
S          3.89170        3.29940        2.32850
C          4.51090        3.62180        0.72190
C          5.45090        4.53490        0.22000
C          6.06370        5.64080        1.01060
C          5.06830        6.34140        1.93180
C          5.63470        4.35560       -1.14800
S          4.57330        3.11230       -1.81540
C          3.95660        2.77160       -0.24630
C          3.03010        1.88160        0.30010
N          2.18270        0.89770       -0.14350
C          1.47790        0.44000        0.95400
C          0.38810       -0.45200        1.05020
N         -0.42040       -1.00420        0.06840
C         -0.75540       -0.43000       -1.22000
C         -0.64330       -1.44970       -2.35050
C          2.48710        0.15150       -1.34550
C          3.86340       -0.50690       -1.25420
C          6.43860        5.03960       -2.08530
C          7.67380        5.58890       -1.89020
C          8.60520        5.26450       -0.77830
O          8.43270        4.48280        0.13290
C          9.83820        6.00140       -1.09380
C          9.68080        6.66090       -2.30590
S         11.07340        7.55260       -2.80420
C         11.89850        7.03850       -1.36590
C         13.18100        7.27710       -0.83910
C         13.34680        6.63570        0.34850
S         11.96490        5.73000        0.86230
C         11.11160        6.21030       -0.55370
C          8.37200        6.43520       -2.84840
C          7.90330        6.97370       -4.02170
C          8.73190        7.78360       -4.82520
N          9.40030        8.44030       -5.48810
C          6.60740        6.80530       -4.54270
N          5.56420        6.71580       -5.01540
H         -3.86820       -4.46440        2.97430
H         -7.66210       -7.47980        0.88980
H         -7.27970       -3.52650       -2.25470
H        -10.08470       -5.37770       -2.97200
H         -8.77000       -6.00340       -4.99120
H         -6.37730       -6.64450       -4.15230
H         -6.59820       -8.72990       -2.52260
H         -9.12690       -9.37750       -2.36030
H        -10.51860       -7.82930       -4.06730
H         -9.15650       -8.62190       -4.89800
H        -10.30480       -7.40700       -1.39400
H         -2.93220       -2.82110       -0.44260
H         -2.35470       -3.69250        4.42800
H         -1.27760       -2.28380        4.61510
H         -4.30640       -2.13620        4.18060
H         -3.45840       -1.84600        5.70580
H         -3.22030       -0.75610        4.33460
H          6.88950        5.23040        1.60010
H          6.49110        6.37020        0.31880
H          4.19460        6.66840        1.37190
H          5.53920        7.21460        2.37640
H          4.74230        5.68630        2.73420
H         -0.12060        0.43710       -1.40380
H         -1.79290       -0.07630       -1.16910
H         -0.89770       -0.97560       -3.29430
H          0.36120       -1.85980       -2.42780
H         -1.32900       -2.27470       -2.18150
H          1.74010       -0.62690       -1.46940
H          2.45650        0.83330       -2.20130
H          3.91150       -1.15780       -0.38350
H          4.04140       -1.10190       -2.14570
H          4.65020        0.23800       -1.17620
H          6.02110        5.09000       -3.08480
H         13.92950        7.88500       -1.31180
H         14.21860        6.63810        0.97240
