107

C         -2.57200       -2.16960        4.16250
C         -3.66420       -2.99690        4.16850
C         -4.60050       -3.23720        3.06050
O         -4.71160       -2.60450        2.02770
C         -5.38630       -4.42510        3.43990
C         -6.32270       -5.09350        2.65450
C         -6.86430       -6.20400        3.25610
C         -6.50270       -6.61880        4.54490
C         -5.58440       -5.96520        5.33190
C         -5.02020       -4.83160        4.73840
C         -4.00220       -3.91230        5.24220
C         -3.50380       -3.90500        6.52050
C         -3.89290       -4.80570        7.53370
N         -4.15890       -5.50150        8.40760
C         -2.56350       -2.98500        7.02760
N         -1.80830       -2.27160        7.51990
C         -7.42440       -7.81240        4.50610
C         -8.74860       -7.69070        5.28910
C         -9.62270       -8.76800        4.68850
C         -9.96550       -8.37570        3.46810
C         -9.32900       -7.02650        3.22320
C         -9.37820       -6.44940        4.64380
C         -7.82780       -7.34950        3.06930
C         -2.08010       -1.29400        3.18030
S         -2.95220       -0.89800        1.69900
C         -1.65650        0.10970        1.23600
C         -1.32850        0.96590        0.17830
C         -2.12500        1.44500       -0.88380
C         -1.58870        2.46220       -1.73660
N         -2.45970        2.87840       -2.64290
S         -3.83700        2.05090       -2.44140
N         -3.37500        1.13640       -1.19070
C         -0.23870        2.84090       -1.57120
C          0.56630        3.66650       -2.36620
S          0.44530        4.62210       -3.80020
C          2.18000        4.85010       -3.76370
C          3.07180        5.44460       -4.65850
C          2.64060        6.15960       -5.89550
C          2.38350        7.63830       -5.59210
C          4.39220        5.25710       -4.25930
S          4.50230        4.42220       -2.70760
C          2.79100        4.23620       -2.65990
C          1.86660        3.56750       -1.85940
N          1.89190        2.74990       -0.75860
C          0.59740        2.28100       -0.55730
C         -0.00340        1.43040        0.41240
N          0.41980        0.91900        1.62620
C         -0.57970        0.11680        2.14140
C         -0.82970       -0.65030        3.28500
C          0.01370       -0.73300        4.52220
C         -0.46840        0.27600        5.57000
C          1.61370        1.25000        2.36230
C          2.67590        0.15160        2.25730
C          3.17800        2.16150       -0.44050
C          3.48060        0.97860       -1.35870
C          5.55450        5.67370       -4.93620
C          6.82700        5.19160       -4.80340
C          7.98150        6.02210       -5.21930
O          7.95380        7.04030       -5.87150
C          9.16510        5.36440       -4.61340
C         10.47900        5.78540       -4.61110
C         11.42170        5.00410       -3.95220
Cl        13.07590        5.47390       -3.91100
C         11.01670        3.82690       -3.31910
F         11.92850        3.08680       -2.67620
C          9.70120        3.38990       -3.32710
C          8.76530        4.17200       -3.98310
C          7.33690        3.97370       -4.21620
C          6.69060        2.76490       -4.15010
C          5.41870        2.52970       -4.71300
N          4.41190        2.27440       -5.20290
C          7.23640        1.60470       -3.56920
N          7.60270        0.64140       -3.06260
H         -1.95020       -2.23100        5.04500
H         -6.56410       -4.74390        1.66300
H         -5.30830       -6.30490        6.31600
H         -6.94690       -8.78320        4.62590
H         -8.63990       -7.69380        6.37010
H         -9.84770       -9.69870        5.17540
H        -10.53390       -8.91340        2.73200
H         -9.75020       -6.42490        2.42230
H         -8.79620       -5.53870        4.77300
H        -10.39840       -6.28120        4.98460
H         -7.61870       -8.01170        2.23110
H          1.71790        5.70140       -6.25640
H          3.39960        6.06520       -6.67190
H          3.28920        8.11960       -5.22990
H          1.61050        7.73980       -4.83410
H          2.05520        8.14980       -6.49270
H          1.05680       -0.53230        4.29100
H         -0.02770       -1.73550        4.94970
H          0.16660        0.22780        6.45030
H         -0.44300        1.28890        5.17200
H         -1.48730        0.05430        5.87490
H          1.98490        2.21130        2.00210
H          1.33640        1.39190        3.41060
H          3.59660        0.47410        2.73730
H          2.33440       -0.75800        2.74400
H          2.88450       -0.10160        1.22180
H          3.23130        1.85690        0.59680
H          3.92520        2.94520       -0.59510
H          2.73090        0.19880       -1.23890
H          4.45920        0.56800       -1.12510
H          3.48080        1.29290       -2.40020
H          5.45140        6.52760       -5.59770
H         10.76580        6.69700       -5.11060
H          9.44850        2.47200       -2.82120
