110

C          4.51210        1.68700        4.65340
C          3.78590        2.55990        5.42480
C          2.45700        3.09250        5.11580
O          1.78190        2.87790        4.12150
C          2.08240        3.95810        6.24590
C          0.89730        4.67340        6.39710
C          0.82390        5.39270        7.56570
C          1.85790        5.40480        8.51080
C          3.03480        4.70780        8.37030
C          3.12750        3.96300        7.19160
C          4.20520        3.10420        6.70080
C          5.39060        2.87350        7.35320
C          5.73650        3.42680        8.60380
N          6.09060        3.83230        9.61830
C          6.44490        2.05960        6.89050
N          7.35090        1.41960        6.58850
C          1.10680        6.32550        9.43920
C          0.43900        5.70010       10.68870
C          0.14760        4.26050       10.34450
C         -0.83240        4.24820        9.45080
C         -1.22100        5.67960        9.17410
C         -0.96990        6.30030       10.55760
C         -0.04620        6.31130        8.38660
C          4.21310        1.07560        3.43120
C          5.07820        0.16900        2.79710
C          6.39350       -0.30330        3.32500
C          6.19780       -1.45960        4.30830
C          4.53700       -0.31640        1.61390
Se         5.17950       -1.55280        0.32310
C          3.56480       -1.21950       -0.53720
C          2.89770       -1.60060       -1.70650
C          3.33550       -2.40940       -2.77670
C          2.49050       -2.55040       -3.92180
N          3.03880       -3.28840       -4.87360
S          4.50200       -3.76890       -4.36370
N          4.48590       -3.04970       -2.91030
C          1.20330       -1.97400       -3.88600
C          0.13830       -2.10040       -4.78370
Se        -0.22910       -2.91520       -6.41040
C         -2.00410       -2.31030       -6.13190
C         -3.20820       -2.51910       -6.81780
C         -3.31060       -3.19930       -8.14560
C         -2.32930       -2.63060       -9.16900
C         -4.28160       -1.93620       -6.15070
S         -3.77060       -1.06840       -4.70940
C         -2.14440       -1.58310       -4.93980
C         -0.96320       -1.46680       -4.19750
N         -0.60350       -0.94430       -2.98290
C          0.73240       -1.22350       -2.77100
C          1.63940       -0.93400       -1.71530
N          1.56960       -0.13500       -0.58590
C          2.73350       -0.30570        0.12200
C          3.26700        0.20450        1.31190
S          2.72820        1.31810        2.51320
C          0.80940        1.07690       -0.36590
C          1.33540        2.21080       -1.24370
C         -1.62450       -0.50670       -2.05910
C         -2.08690        0.92110       -2.34600
C         -5.66100       -1.90340       -6.44670
C         -6.44300       -2.82340       -7.08340
C         -7.76420       -2.40210       -7.62170
O         -8.31710       -1.34610       -7.41960
C         -8.20870       -3.52470       -8.47490
C         -9.31530       -3.63170       -9.30160
Cl       -10.44790       -2.34970       -9.43130
C         -9.49630       -4.80490      -10.03260
C         -8.58050       -5.83680       -9.93240
C         -7.46990       -5.74700       -9.10070
C         -7.29040       -4.58800       -8.36730
C         -6.25650       -4.21760       -7.39870
C         -5.43780       -5.10310       -6.74340
C         -4.65270       -4.76500       -5.62370
N         -4.03130       -4.55840       -4.68050
C         -5.35700       -6.47720       -7.04510
N         -5.23140       -7.59800       -7.25980
H          5.47870        1.40170        5.04480
H          0.12840        4.63770        5.64100
H          3.81940        4.73250        9.10760
H          1.58640        7.27750        9.65780
H          0.97300        5.87220       11.61930
H          0.70540        3.42780       10.73130
H         -1.25700        3.40290        8.94150
H         -2.19940        5.83360        8.72640
H         -1.65770        5.93010       11.31640
H         -0.97880        7.38950       10.55290
H         -0.32050        7.25470        7.91820
H          6.98930       -0.65510        2.47650
H          6.93940        0.50410        3.81500
H          5.59900       -1.14370        5.15940
H          5.69410       -2.28960        3.81680
H          7.16190       -1.80100        4.67390
H         -3.11130       -4.26850       -8.01340
H         -4.32490       -3.08850       -8.53260
H         -1.29770       -2.81970       -8.87400
H         -2.47060       -1.55730       -9.27330
H         -2.49760       -3.09870      -10.13560
H         -0.24740        0.91800       -0.55110
H          0.92990        1.34200        0.68700
H          2.38040        2.40860       -1.01640
H          1.25690        1.94920       -2.29750
H          0.76460        3.11660       -1.05950
H         -1.25230       -0.62610       -1.04070
H         -2.48040       -1.18090       -2.17300
H         -2.58090        0.96280       -3.31300
H         -1.25220        1.61640       -2.36250
H         -2.79650        1.23750       -1.58670
H         -6.18530       -1.00060       -6.14380
H        -10.35610       -4.89690      -10.67680
H         -8.73230       -6.73440      -10.51200
H         -6.76890       -6.56340       -9.04460
