
  xtb     02022211563D
 energy: -197.682231643844 gnorm: 0.000912215402 xtb: 6.4.1 (unknown)
110125  0     0  0            999 V2000
   -5.5366    4.1290   -1.4414 C   0  0  0  0  0  0  0  0  0  0  0  0
   -4.9147    4.8591   -2.4232 C   0  0  0  0  0  0  0  0  0  0  0  0
   -3.5304    4.7035   -2.8758 C   0  0  0  0  0  0  0  0  0  0  0  0
   -2.7131    3.8790   -2.4983 O   0  0  0  0  0  0  0  0  0  0  0  0
   -3.3045    5.7482   -3.8885 C   0  0  0  0  0  0  0  0  0  0  0  0
   -2.1250    6.0026   -4.5836 C   0  0  0  0  0  0  0  0  0  0  0  0
   -2.2095    7.0564   -5.4615 C   0  0  0  0  0  0  0  0  0  0  0  0
   -3.3803    7.8072   -5.6299 C   0  0  0  0  0  0  0  0  0  0  0  0
   -4.5509    7.5659   -4.9505 C   0  0  0  0  0  0  0  0  0  0  0  0
   -4.4896    6.4924   -4.0581 C   0  0  0  0  0  0  0  0  0  0  0  0
   -5.5164    5.9432   -3.1731 C   0  0  0  0  0  0  0  0  0  0  0  0
   -6.8141    6.3839   -3.0991 C   0  0  0  0  0  0  0  0  0  0  0  0
   -7.8186    5.8604   -2.2595 C   0  0  0  0  0  0  0  0  0  0  0  0
   -8.6960    5.4932   -1.6136 N   0  0  0  0  0  0  0  0  0  0  0  0
   -7.3470    7.4370   -3.8715 C   0  0  0  0  0  0  0  0  0  0  0  0
   -7.8560    8.2783   -4.4648 N   0  0  0  0  0  0  0  0  0  0  0  0
   -2.7506    8.7066   -6.6637 C   0  0  0  0  0  0  0  0  0  0  0  0
   -3.1118    8.4613   -8.1493 C   0  0  0  0  0  0  0  0  0  0  0  0
   -3.4860    7.0044   -8.2638 C   0  0  0  0  0  0  0  0  0  0  0  0
   -2.3802    6.2891   -8.1075 C   0  0  0  0  0  0  0  0  0  0  0  0
   -1.2380    7.2494   -7.8848 C   0  0  0  0  0  0  0  0  0  0  0  0
   -1.7007    8.4272   -8.7574 C   0  0  0  0  0  0  0  0  0  0  0  0
   -1.4472    7.8668   -6.4798 C   0  0  0  0  0  0  0  0  0  0  0  0
   -5.0686    3.0832   -0.6389 C   0  0  0  0  0  0  0  0  0  0  0  0
   -5.8467    2.4822    0.3635 C   0  0  0  0  0  0  0  0  0  0  0  0
   -7.2362    2.8749    0.7470 C   0  0  0  0  0  0  0  0  0  0  0  0
   -7.2189    4.0605    1.7145 C   0  0  0  0  0  0  0  0  0  0  0  0
   -5.1459    1.4869    1.0314 C   0  0  0  0  0  0  0  0  0  0  0  0
   -5.6123    0.3498    2.4787 Se  0  0  0  0  0  2  0  0  0  0  0  0
   -3.8893   -0.3179    2.2721 C   0  0  0  0  0  0  0  0  0  0  0  0
   -3.0502   -1.2567    2.8784 C   0  0  0  0  0  0  0  0  0  0  0  0
   -3.2593   -2.0400    4.0334 C   0  0  0  0  0  0  0  0  0  0  0  0
   -2.1771   -2.8307    4.5294 C   0  0  0  0  0  0  0  0  0  0  0  0
   -2.4827   -3.4722    5.6457 N   0  0  0  0  0  0  0  0  0  0  0  0
   -4.0146   -3.1086    6.0369 S   0  0  0  0  0  0  0  0  0  0  0  0
   -4.3394   -2.1180    4.7938 N   0  0  0  0  0  0  0  0  0  0  0  0
   -0.9802   -2.8821    3.7839 C   0  0  0  0  0  0  0  0  0  0  0  0
    0.1661   -3.6555    3.9868 C   0  0  0  0  0  0  0  0  0  0  0  0
    0.8316   -4.8606    5.2366 Se  0  0  0  0  0  2  0  0  0  0  0  0
    2.3190   -4.9739    4.0622 C   0  0  0  0  0  0  0  0  0  0  0  0
    3.5014   -5.7005    4.1183 C   0  0  0  0  0  0  0  0  0  0  0  0
    3.8071   -6.6457    5.2341 C   0  0  0  0  0  0  0  0  0  0  0  0
    3.4058   -8.0744    4.8610 C   0  0  0  0  0  0  0  0  0  0  0  0
    4.3047   -5.4731    2.9902 C   0  0  0  0  0  0  0  0  0  0  0  0
    3.5589   -4.3339    1.8721 S   0  0  0  0  0  0  0  0  0  0  0  0
    2.1964   -4.1689    2.9164 C   0  0  0  0  0  0  0  0  0  0  0  0
    1.0048   -3.4327    2.8869 C   0  0  0  0  0  0  0  0  0  0  0  0
    0.4244   -2.5265    2.0382 N   0  0  0  0  0  0  0  0  0  0  0  0
   -0.7981   -2.1580    2.5705 C   0  0  0  0  0  0  0  0  0  0  0  0
   -1.8140   -1.2457    2.1702 C   0  0  0  0  0  0  0  0  0  0  0  0
   -1.9046   -0.2860    1.1778 N   0  0  0  0  0  0  0  0  0  0  0  0
   -3.1513    0.2797    1.2419 C   0  0  0  0  0  0  0  0  0  0  0  0
   -3.8386    1.2891    0.5543 C   0  0  0  0  0  0  0  0  0  0  0  0
   -3.4609    2.3679   -0.7385 S   0  0  0  0  0  0  0  0  0  0  0  0
   -0.8572    0.3646    0.4226 C   0  0  0  0  0  0  0  0  0  0  0  0
    0.1569    1.0377    1.3444 C   0  0  0  0  0  0  0  0  0  0  0  0
    0.9312   -2.3733    0.6925 C   0  0  0  0  0  0  0  0  0  0  0  0
   -0.0058   -3.0098   -0.3308 C   0  0  0  0  0  0  0  0  0  0  0  0
    5.5516   -6.0793    2.8013 C   0  0  0  0  0  0  0  0  0  0  0  0
    6.4414   -6.0033    1.7611 C   0  0  0  0  0  0  0  0  0  0  0  0
    6.2762   -5.2458    0.5091 C   0  0  0  0  0  0  0  0  0  0  0  0
    5.3441   -4.5310    0.1861 O   0  0  0  0  0  0  0  0  0  0  0  0
    7.4813   -5.5305   -0.2791 C   0  0  0  0  0  0  0  0  0  0  0  0
    8.3087   -6.3740    0.4508 C   0  0  0  0  0  0  0  0  0  0  0  0
    9.7753   -6.7874   -0.3599 S   0  0  0  0  0  0  0  0  0  0  0  0
    9.2836   -5.8185   -1.7140 C   0  0  0  0  0  0  0  0  0  0  0  0
    9.8653   -5.5155   -2.9591 C   0  0  0  0  0  0  0  0  0  0  0  0
    9.0622   -4.6931   -3.6849 C   0  0  0  0  0  0  0  0  0  0  0  0
    7.5872   -4.2622   -2.8882 S   0  0  0  0  0  0  0  0  0  0  0  0
    8.0364   -5.2092   -1.5227 C   0  0  0  0  0  0  0  0  0  0  0  0
    7.7192   -6.6975    1.7207 C   0  0  0  0  0  0  0  0  0  0  0  0
    8.3037   -7.5047    2.6674 C   0  0  0  0  0  0  0  0  0  0  0  0
    7.7553   -7.8452    3.9166 C   0  0  0  0  0  0  0  0  0  0  0  0
    7.3642   -8.1548    4.9522 N   0  0  0  0  0  0  0  0  0  0  0  0
    9.5698   -8.0812    2.4385 C   0  0  0  0  0  0  0  0  0  0  0  0
   10.6005   -8.5544    2.2619 N   0  0  0  0  0  0  0  0  0  0  0  0
   -6.5600    4.4033   -1.2255 H   0  0  0  0  0  0  0  0  0  0  0  0
   -1.2434    5.4033   -4.4174 H   0  0  0  0  0  0  0  0  0  0  0  0
   -5.4405    8.1564   -5.0911 H   0  0  0  0  0  0  0  0  0  0  0  0
   -2.7139    9.7653   -6.4146 H   0  0  0  0  0  0  0  0  0  0  0  0
   -3.8201    9.1729   -8.5649 H   0  0  0  0  0  0  0  0  0  0  0  0
   -4.4940    6.6532   -8.3852 H   0  0  0  0  0  0  0  0  0  0  0  0
   -2.2795    5.2200   -8.0720 H   0  0  0  0  0  0  0  0  0  0  0  0
   -0.2397    6.8574   -8.0615 H   0  0  0  0  0  0  0  0  0  0  0  0
   -1.1332    9.3414   -8.5887 H   0  0  0  0  0  0  0  0  0  0  0  0
   -1.7055    8.1879   -9.8198 H   0  0  0  0  0  0  0  0  0  0  0  0
   -0.5583    8.3782   -6.1152 H   0  0  0  0  0  0  0  0  0  0  0  0
   -7.7021    2.0177    1.2438 H   0  0  0  0  0  0  0  0  0  0  0  0
   -7.8338    3.1279   -0.1299 H   0  0  0  0  0  0  0  0  0  0  0  0
   -6.7572    4.9292    1.2509 H   0  0  0  0  0  0  0  0  0  0  0  0
   -6.6580    3.8051    2.6115 H   0  0  0  0  0  0  0  0  0  0  0  0
   -8.2345    4.3206    1.9984 H   0  0  0  0  0  0  0  0  0  0  0  0
    3.2296   -6.3305    6.1090 H   0  0  0  0  0  0  0  0  0  0  0  0
    4.8658   -6.6205    5.4961 H   0  0  0  0  0  0  0  0  0  0  0  0
    3.6141   -8.7455    5.6896 H   0  0  0  0  0  0  0  0  0  0  0  0
    3.9632   -8.4162    3.9919 H   0  0  0  0  0  0  0  0  0  0  0  0
    2.3427   -8.1186    4.6326 H   0  0  0  0  0  0  0  0  0  0  0  0
   -1.3398    1.1252   -0.1948 H   0  0  0  0  0  0  0  0  0  0  0  0
   -0.3785   -0.3417   -0.2557 H   0  0  0  0  0  0  0  0  0  0  0  0
   -0.3346    1.8054    1.9375 H   0  0  0  0  0  0  0  0  0  0  0  0
    0.9386    1.5066    0.7533 H   0  0  0  0  0  0  0  0  0  0  0  0
    0.6109    0.3216    2.0259 H   0  0  0  0  0  0  0  0  0  0  0  0
    1.1166   -1.3224    0.4701 H   0  0  0  0  0  0  0  0  0  0  0  0
    1.8967   -2.8828    0.6592 H   0  0  0  0  0  0  0  0  0  0  0  0
    0.3931   -2.8715   -1.3319 H   0  0  0  0  0  0  0  0  0  0  0  0
   -0.0940   -4.0766   -0.1390 H   0  0  0  0  0  0  0  0  0  0  0  0
   -1.0011   -2.5734   -0.2836 H   0  0  0  0  0  0  0  0  0  0  0  0
    5.8468   -6.7167    3.6243 H   0  0  0  0  0  0  0  0  0  0  0  0
   10.8171   -5.8851   -3.2918 H   0  0  0  0  0  0  0  0  0  0  0  0
    9.2478   -4.3017   -4.6655 H   0  0  0  0  0  0  0  0  0  0  0  0
  1  2  2  0  0  0  0
  2  3  1  0  0  0  0
  3  4  2  0  0  0  0
  3  5  1  0  0  0  0
  5  6  2  0  0  0  0
  6  7  1  0  0  0  0
  7  8  2  0  0  0  0
  8  9  1  0  0  0  0
  9 10  2  0  0  0  0
 10 11  1  0  0  0  0
 11 12  2  0  0  0  0
 12 13  1  0  0  0  0
 13 14  3  0  0  0  0
 12 15  1  0  0  0  0
 15 16  3  0  0  0  0
  8 17  1  0  0  0  0
 17 18  1  0  0  0  0
 18 19  1  0  0  0  0
 19 20  2  0  0  0  0
 20 21  1  0  0  0  0
 21 22  1  0  0  0  0
 21 23  1  0  0  0  0
  1 24  1  0  0  0  0
 24 25  2  0  0  0  0
 25 26  1  0  0  0  0
 26 27  1  0  0  0  0
 25 28  1  0  0  0  0
 28 29  1  0  0  0  0
 29 30  1  0  0  0  0
 30 31  1  0  0  0  0
 31 32  1  0  0  0  0
 32 33  1  0  0  0  0
 33 34  2  0  0  0  0
 34 35  1  0  0  0  0
 35 36  1  0  0  0  0
 33 37  1  0  0  0  0
 37 38  1  0  0  0  0
 38 39  1  0  0  0  0
 39 40  1  0  0  0  0
 40 41  1  0  0  0  0
 41 42  1  0  0  0  0
 42 43  1  0  0  0  0
 41 44  2  0  0  0  0
 44 45  1  0  0  0  0
 45 46  1  0  0  0  0
 46 47  1  0  0  0  0
 47 48  1  0  0  0  0
 48 49  1  0  0  0  0
 49 50  1  0  0  0  0
 50 51  1  0  0  0  0
 51 52  1  0  0  0  0
 52 53  1  0  0  0  0
 53 54  1  0  0  0  0
 51 55  1  0  0  0  0
 55 56  1  0  0  0  0
 48 57  1  0  0  0  0
 57 58  1  0  0  0  0
 44 59  1  0  0  0  0
 59 60  2  0  0  0  0
 60 61  1  0  0  0  0
 61 62  2  0  0  0  0
 61 63  1  0  0  0  0
 63 64  2  0  0  0  0
 64 65  1  0  0  0  0
 65 66  1  0  0  0  0
 66 67  1  0  0  0  0
 67 68  2  0  0  0  0
 68 69  1  0  0  0  0
 69 70  1  0  0  0  0
 64 71  1  0  0  0  0
 71 72  2  0  0  0  0
 72 73  1  0  0  0  0
 73 74  3  0  0  0  0
 72 75  1  0  0  0  0
 75 76  3  0  0  0  0
 11  2  1  0  0  0  0
 23 17  1  0  0  0  0
 54 24  1  0  0  0  0
 71 60  1  0  0  0  0
 10  5  1  0  0  0  0
 22 18  1  0  0  0  0
 53 28  2  0  0  0  0
 70 63  1  0  0  0  0
 23  7  1  0  0  0  0
 52 30  2  0  0  0  0
 70 66  2  0  0  0  0
 50 31  2  0  0  0  0
 36 32  2  0  0  0  0
 49 37  2  0  0  0  0
 47 38  2  0  0  0  0
 46 40  2  0  0  0  0
  1 77  1  0  0  0  0
  6 78  1  0  0  0  0
  9 79  1  0  0  0  0
 17 80  1  0  0  0  0
 18 81  1  0  0  0  0
 19 82  1  0  0  0  0
 20 83  1  0  0  0  0
 21 84  1  0  0  0  0
 22 85  1  0  0  0  0
 22 86  1  0  0  0  0
 23 87  1  0  0  0  0
 26 88  1  0  0  0  0
 26 89  1  0  0  0  0
 27 90  1  0  0  0  0
 27 91  1  0  0  0  0
 27 92  1  0  0  0  0
 42 93  1  0  0  0  0
 42 94  1  0  0  0  0
 43 95  1  0  0  0  0
 43 96  1  0  0  0  0
 43 97  1  0  0  0  0
 55 98  1  0  0  0  0
 55 99  1  0  0  0  0
 56100  1  0  0  0  0
 56101  1  0  0  0  0
 56102  1  0  0  0  0
 57103  1  0  0  0  0
 57104  1  0  0  0  0
 58105  1  0  0  0  0
 58106  1  0  0  0  0
 58107  1  0  0  0  0
 59108  1  0  0  0  0
 67109  1  0  0  0  0
 68110  1  0  0  0  0
M  END
