
  xtb     02022209143D
 energy: -200.470087224370 gnorm: 0.000337020938 xtb: 6.4.1 (unknown)
112126  0     0  0            999 V2000
    5.7614   -0.0530   -4.3942 C   0  0  0  0  0  0  0  0  0  0  0  0
    5.8391    0.3756   -5.6852 C   0  0  0  0  0  0  0  0  0  0  0  0
    4.6555    0.5572   -6.5629 C   0  0  0  0  0  0  0  0  0  0  0  0
    3.5116    0.2215   -6.3417 O   0  0  0  0  0  0  0  0  0  0  0  0
    5.1284    1.3696   -7.6981 C   0  0  0  0  0  0  0  0  0  0  0  0
    4.3587    1.8437   -8.7579 C   0  0  0  0  0  0  0  0  0  0  0  0
    5.0581    2.6101   -9.6583 C   0  0  0  0  0  0  0  0  0  0  0  0
    6.4238    2.8913   -9.5147 C   0  0  0  0  0  0  0  0  0  0  0  0
    7.1958    2.4287   -8.4757 C   0  0  0  0  0  0  0  0  0  0  0  0
    6.5032    1.6448   -7.5482 C   0  0  0  0  0  0  0  0  0  0  0  0
    6.9762    1.0013   -6.3273 C   0  0  0  0  0  0  0  0  0  0  0  0
    8.2761    0.9207   -5.9005 C   0  0  0  0  0  0  0  0  0  0  0  0
    8.6891    0.1930   -4.7645 C   0  0  0  0  0  0  0  0  0  0  0  0
    9.0921   -0.3997   -3.8674 N   0  0  0  0  0  0  0  0  0  0  0  0
    9.3710    1.5177   -6.5575 C   0  0  0  0  0  0  0  0  0  0  0  0
   10.3013    1.9847   -7.0422 N   0  0  0  0  0  0  0  0  0  0  0  0
    6.4620    3.7362  -10.7631 C   0  0  0  0  0  0  0  0  0  0  0  0
    6.4749    5.2756  -10.5908 C   0  0  0  0  0  0  0  0  0  0  0  0
    5.8004    5.5665   -9.2732 C   0  0  0  0  0  0  0  0  0  0  0  0
    4.5089    5.2977   -9.4112 C   0  0  0  0  0  0  0  0  0  0  0  0
    4.2868    4.8198  -10.8250 C   0  0  0  0  0  0  0  0  0  0  0  0
    5.3457    5.6550  -11.5623 C   0  0  0  0  0  0  0  0  0  0  0  0
    4.9418    3.4197  -10.9252 C   0  0  0  0  0  0  0  0  0  0  0  0
    4.6755   -0.7754   -3.8326 C   0  0  0  0  0  0  0  0  0  0  0  0
    3.9681   -1.8642   -4.3157 C   0  0  0  0  0  0  0  0  0  0  0  0
    4.2988   -2.6277   -5.5579 C   0  0  0  0  0  0  0  0  0  0  0  0
    3.1047   -2.7642   -6.5014 C   0  0  0  0  0  0  0  0  0  0  0  0
    2.9850   -2.2711   -3.3990 C   0  0  0  0  0  0  0  0  0  0  0  0
    2.9320   -1.5048   -2.2281 C   0  0  0  0  0  0  0  0  0  0  0  0
    4.1612   -0.2984   -2.2151 S   0  0  0  0  0  0  0  0  0  0  0  0
    1.8976   -1.9148   -1.3808 C   0  0  0  0  0  0  0  0  0  0  0  0
    1.1805   -2.9904   -1.9116 C   0  0  0  0  0  0  0  0  0  0  0  0
    1.7740   -3.5332   -3.4410 S   0  0  0  0  0  0  0  0  0  0  0  0
    0.1209   -3.2492   -1.0288 C   0  0  0  0  0  0  0  0  0  0  0  0
   -0.9875   -4.1169   -1.1447 C   0  0  0  0  0  0  0  0  0  0  0  0
   -1.2511   -4.9969   -2.0979 N   0  0  0  0  0  0  0  0  0  0  0  0
   -2.6983   -5.6570   -1.8004 S   0  0  0  0  0  0  0  0  0  0  0  0
   -3.0456   -4.8459   -0.4433 N   0  0  0  0  0  0  0  0  0  0  0  0
   -2.0383   -4.0311   -0.1725 C   0  0  0  0  0  0  0  0  0  0  0  0
   -1.8705   -3.1753    0.9384 C   0  0  0  0  0  0  0  0  0  0  0  0
   -2.6659   -2.9718    2.0747 C   0  0  0  0  0  0  0  0  0  0  0  0
   -4.1997   -3.4681    2.7002 S   0  0  0  0  0  0  0  0  0  0  0  0
   -3.8855   -2.5292    4.1417 C   0  0  0  0  0  0  0  0  0  0  0  0
   -4.6332   -2.2852    5.2867 C   0  0  0  0  0  0  0  0  0  0  0  0
   -3.9796   -1.4493    6.1752 C   0  0  0  0  0  0  0  0  0  0  0  0
   -2.3850   -0.9824    5.5670 S   0  0  0  0  0  0  0  0  0  0  0  0
   -2.6355   -1.8806    4.1214 C   0  0  0  0  0  0  0  0  0  0  0  0
   -1.9487   -2.1254    2.9298 C   0  0  0  0  0  0  0  0  0  0  0  0
   -0.7526   -1.7850    2.3530 N   0  0  0  0  0  0  0  0  0  0  0  0
    0.3048   -1.2289    3.1677 C   0  0  0  0  0  0  0  0  0  0  0  0
    0.1296    0.2701    3.4058 C   0  0  0  0  0  0  0  0  0  0  0  0
   -0.6928   -2.3916    1.1124 C   0  0  0  0  0  0  0  0  0  0  0  0
    0.2509   -2.3332    0.0538 C   0  0  0  0  0  0  0  0  0  0  0  0
    1.3535   -1.5253   -0.1840 N   0  0  0  0  0  0  0  0  0  0  0  0
    1.6212   -0.1801    0.2776 C   0  0  0  0  0  0  0  0  0  0  0  0
    0.6013    0.8038   -0.2919 C   0  0  0  0  0  0  0  0  0  0  0  0
   -4.3272   -0.9071    7.4280 C   0  0  0  0  0  0  0  0  0  0  0  0
   -5.5009   -0.9228    8.1286 C   0  0  0  0  0  0  0  0  0  0  0  0
   -6.8207   -1.4615    7.7184 C   0  0  0  0  0  0  0  0  0  0  0  0
   -7.0956   -2.1594    6.7623 O   0  0  0  0  0  0  0  0  0  0  0  0
   -7.7747   -0.9670    8.7219 C   0  0  0  0  0  0  0  0  0  0  0  0
   -9.1490   -1.1361    8.7494 C   0  0  0  0  0  0  0  0  0  0  0  0
   -9.8714   -0.5653    9.7862 C   0  0  0  0  0  0  0  0  0  0  0  0
  -11.2105   -0.6448    9.9380 O   0  0  0  0  0  0  0  0  0  0  0  0
  -11.9550   -1.3553    8.9758 C   0  0  0  0  0  0  0  0  0  0  0  0
   -9.1926    0.1774   10.7954 C   0  0  0  0  0  0  0  0  0  0  0  0
   -9.9916    0.6954   11.7510 O   0  0  0  0  0  0  0  0  0  0  0  0
   -9.4091    1.4517   12.7890 C   0  0  0  0  0  0  0  0  0  0  0  0
   -7.8140    0.3302   10.7549 C   0  0  0  0  0  0  0  0  0  0  0  0
   -7.0981   -0.2467    9.7126 C   0  0  0  0  0  0  0  0  0  0  0  0
   -5.6750   -0.2557    9.4115 C   0  0  0  0  0  0  0  0  0  0  0  0
   -4.6912    0.2365   10.2324 C   0  0  0  0  0  0  0  0  0  0  0  0
   -4.9468    0.8623   11.4697 C   0  0  0  0  0  0  0  0  0  0  0  0
   -5.0916    1.3848   12.4825 N   0  0  0  0  0  0  0  0  0  0  0  0
   -3.3012    0.1696   10.0041 C   0  0  0  0  0  0  0  0  0  0  0  0
   -2.1558    0.1497    9.9120 N   0  0  0  0  0  0  0  0  0  0  0  0
    6.5445    0.2297   -3.6995 H   0  0  0  0  0  0  0  0  0  0  0  0
    3.3085    1.6073   -8.8291 H   0  0  0  0  0  0  0  0  0  0  0  0
    8.2435    2.6579   -8.3730 H   0  0  0  0  0  0  0  0  0  0  0  0
    7.1397    3.4011  -11.5457 H   0  0  0  0  0  0  0  0  0  0  0  0
    7.4458    5.7385  -10.7453 H   0  0  0  0  0  0  0  0  0  0  0  0
    6.3245    5.8741   -8.3873 H   0  0  0  0  0  0  0  0  0  0  0  0
    3.7384    5.3353   -8.6634 H   0  0  0  0  0  0  0  0  0  0  0  0
    3.2654    4.8680  -11.1931 H   0  0  0  0  0  0  0  0  0  0  0  0
    5.5237    5.3252  -12.5849 H   0  0  0  0  0  0  0  0  0  0  0  0
    5.1226    6.7207  -11.5528 H   0  0  0  0  0  0  0  0  0  0  0  0
    4.6261    2.8759  -11.8134 H   0  0  0  0  0  0  0  0  0  0  0  0
    5.1271   -2.1420   -6.0751 H   0  0  0  0  0  0  0  0  0  0  0  0
    4.6280   -3.6272   -5.2545 H   0  0  0  0  0  0  0  0  0  0  0  0
    2.3082   -3.3368   -6.0342 H   0  0  0  0  0  0  0  0  0  0  0  0
    2.7229   -1.7811   -6.7608 H   0  0  0  0  0  0  0  0  0  0  0  0
    3.4124   -3.2749   -7.4105 H   0  0  0  0  0  0  0  0  0  0  0  0
   -5.6136   -2.6808    5.4767 H   0  0  0  0  0  0  0  0  0  0  0  0
    1.2639   -1.4656    2.7049 H   0  0  0  0  0  0  0  0  0  0  0  0
    0.2767   -1.7388    4.1375 H   0  0  0  0  0  0  0  0  0  0  0  0
   -0.7507    0.4489    4.0169 H   0  0  0  0  0  0  0  0  0  0  0  0
    0.9949    0.6608    3.9343 H   0  0  0  0  0  0  0  0  0  0  0  0
    0.0085    0.8129    2.4728 H   0  0  0  0  0  0  0  0  0  0  0  0
    2.6215    0.0798   -0.0781 H   0  0  0  0  0  0  0  0  0  0  0  0
    1.6323   -0.1308    1.3617 H   0  0  0  0  0  0  0  0  0  0  0  0
    0.8251    1.8107    0.0499 H   0  0  0  0  0  0  0  0  0  0  0  0
   -0.4057    0.5371    0.0231 H   0  0  0  0  0  0  0  0  0  0  0  0
    0.6343    0.7922   -1.3789 H   0  0  0  0  0  0  0  0  0  0  0  0
   -3.5150   -0.3487    7.8794 H   0  0  0  0  0  0  0  0  0  0  0  0
   -9.6206   -1.7048    7.9646 H   0  0  0  0  0  0  0  0  0  0  0  0
  -12.9923   -1.2827    9.2975 H   0  0  0  0  0  0  0  0  0  0  0  0
  -11.8511   -0.9115    7.9810 H   0  0  0  0  0  0  0  0  0  0  0  0
  -11.6592   -2.4081    8.9376 H   0  0  0  0  0  0  0  0  0  0  0  0
   -8.9058    2.3431   12.4027 H   0  0  0  0  0  0  0  0  0  0  0  0
  -10.2371    1.7524   13.4282 H   0  0  0  0  0  0  0  0  0  0  0  0
   -8.6976    0.8578   13.3701 H   0  0  0  0  0  0  0  0  0  0  0  0
   -7.3105    0.8952   11.5191 H   0  0  0  0  0  0  0  0  0  0  0  0
  1  2  2  0  0  0  0
  2  3  1  0  0  0  0
  3  4  2  0  0  0  0
  3  5  1  0  0  0  0
  5  6  2  0  0  0  0
  6  7  1  0  0  0  0
  7  8  2  0  0  0  0
  8  9  1  0  0  0  0
  9 10  2  0  0  0  0
 10 11  1  0  0  0  0
 11 12  2  0  0  0  0
 12 13  1  0  0  0  0
 13 14  3  0  0  0  0
 12 15  1  0  0  0  0
 15 16  3  0  0  0  0
  8 17  1  0  0  0  0
 17 18  1  0  0  0  0
 18 19  1  0  0  0  0
 19 20  2  0  0  0  0
 20 21  1  0  0  0  0
 21 22  1  0  0  0  0
 21 23  1  0  0  0  0
  1 24  1  0  0  0  0
 24 25  2  0  0  0  0
 25 26  1  0  0  0  0
 26 27  1  0  0  0  0
 25 28  1  0  0  0  0
 28 29  2  0  0  0  0
 29 30  1  0  0  0  0
 29 31  1  0  0  0  0
 31 32  2  0  0  0  0
 32 33  1  0  0  0  0
 32 34  1  0  0  0  0
 34 35  1  0  0  0  0
 35 36  2  0  0  0  0
 36 37  1  0  0  0  0
 37 38  1  0  0  0  0
 38 39  2  0  0  0  0
 39 40  1  0  0  0  0
 40 41  1  0  0  0  0
 41 42  1  0  0  0  0
 42 43  1  0  0  0  0
 43 44  1  0  0  0  0
 44 45  2  0  0  0  0
 45 46  1  0  0  0  0
 46 47  1  0  0  0  0
 47 48  1  0  0  0  0
 48 49  1  0  0  0  0
 49 50  1  0  0  0  0
 50 51  1  0  0  0  0
 49 52  1  0  0  0  0
 52 53  1  0  0  0  0
 53 54  1  0  0  0  0
 54 55  1  0  0  0  0
 55 56  1  0  0  0  0
 45 57  1  0  0  0  0
 57 58  2  0  0  0  0
 58 59  1  0  0  0  0
 59 60  2  0  0  0  0
 59 61  1  0  0  0  0
 61 62  2  0  0  0  0
 62 63  1  0  0  0  0
 63 64  1  0  0  0  0
 64 65  1  0  0  0  0
 63 66  2  0  0  0  0
 66 67  1  0  0  0  0
 67 68  1  0  0  0  0
 66 69  1  0  0  0  0
 69 70  2  0  0  0  0
 70 71  1  0  0  0  0
 71 72  2  0  0  0  0
 72 73  1  0  0  0  0
 73 74  3  0  0  0  0
 72 75  1  0  0  0  0
 75 76  3  0  0  0  0
 11  2  1  0  0  0  0
 23 17  1  0  0  0  0
 30 24  1  0  0  0  0
 54 31  1  0  0  0  0
 71 58  1  0  0  0  0
 10  5  1  0  0  0  0
 22 18  1  0  0  0  0
 33 28  1  0  0  0  0
 53 34  2  0  0  0  0
 70 61  1  0  0  0  0
 23  7  1  0  0  0  0
 39 35  1  0  0  0  0
 52 40  2  0  0  0  0
 48 41  2  0  0  0  0
 47 43  2  0  0  0  0
  1 77  1  0  0  0  0
  6 78  1  0  0  0  0
  9 79  1  0  0  0  0
 17 80  1  0  0  0  0
 18 81  1  0  0  0  0
 19 82  1  0  0  0  0
 20 83  1  0  0  0  0
 21 84  1  0  0  0  0
 22 85  1  0  0  0  0
 22 86  1  0  0  0  0
 23 87  1  0  0  0  0
 26 88  1  0  0  0  0
 26 89  1  0  0  0  0
 27 90  1  0  0  0  0
 27 91  1  0  0  0  0
 27 92  1  0  0  0  0
 44 93  1  0  0  0  0
 50 94  1  0  0  0  0
 50 95  1  0  0  0  0
 51 96  1  0  0  0  0
 51 97  1  0  0  0  0
 51 98  1  0  0  0  0
 55 99  1  0  0  0  0
 55100  1  0  0  0  0
 56101  1  0  0  0  0
 56102  1  0  0  0  0
 56103  1  0  0  0  0
 57104  1  0  0  0  0
 62105  1  0  0  0  0
 65106  1  0  0  0  0
 65107  1  0  0  0  0
 65108  1  0  0  0  0
 68109  1  0  0  0  0
 68110  1  0  0  0  0
 68111  1  0  0  0  0
 69112  1  0  0  0  0
M  END
