99

C          2.14560       -1.34650       -5.06470
C          1.84890       -0.41760       -6.01670
C          0.65040        0.45720       -5.96950
O         -0.35860        0.30750       -5.31410
C          0.99320        1.62610       -6.80230
C          0.23430        2.78410       -6.95960
C          0.82900        3.73910       -7.74840
C          2.08560        3.55830       -8.34300
C          2.84050        2.41770       -8.20550
C          2.25580        1.43550       -7.40010
C          2.76910        0.13360       -6.99100
C          3.87700       -0.50360       -7.48270
C          4.74290        0.03940       -8.45320
N          5.48340        0.43540       -9.23610
C          4.25270       -1.81050       -7.10530
N          4.58960       -2.87840       -6.85200
C          2.08010        4.93500       -8.95970
C          2.94430        6.00370       -8.25680
C          2.38150        7.31350       -8.75990
C          1.19120        7.48340       -8.19870
C          0.92940        6.29120       -7.30710
C          2.35980        5.99430       -6.83830
C          0.67840        5.13500       -8.29910
C          1.21740       -1.86160       -4.12410
C         -0.09200       -2.27950       -4.28410
C         -0.76890       -2.48770       -5.59700
C         -1.16970       -3.95010       -5.79210
C         -0.67130       -2.60140       -3.04610
C          0.17240       -2.41260       -1.94380
S          1.75330       -1.94260       -2.44580
C         -0.49750       -2.61700       -0.73270
C         -1.82600       -3.01020       -0.93190
S         -2.28290       -3.10500       -2.59520
C         -2.39150       -3.21060        0.33660
C         -3.63560       -3.74730        0.73660
N         -4.63140       -4.17620       -0.02230
S         -5.78760       -4.77720        0.93820
N         -5.06470       -4.50880        2.36150
C         -3.89180       -3.93910        2.13630
C         -2.95680       -3.44720        3.07540
C         -3.03680       -3.29040        4.46680
S         -4.11590       -3.66010        5.77030
C         -3.06730       -2.76770        6.85340
C         -3.13580       -2.45040        8.19960
C         -2.07480       -1.65080        8.61790
S         -0.96200       -1.30330        7.30270
C         -1.93320       -2.22860        6.21900
C         -1.91710       -2.54760        4.85820
N         -1.11940       -2.28900        3.77430
C         -0.18440       -1.18680        3.84720
C         -0.80990        0.09430        3.30050
C         -1.73870       -2.83370        2.66310
C         -1.39390       -2.85620        1.28750
N         -0.23270       -2.53220        0.60970
C          1.13220       -2.53850        1.08870
C          1.80340       -1.17070        0.97860
C         -1.94560       -1.17870        9.93550
C         -1.01280       -0.34700       10.48270
S         -1.09130        0.12340       12.17330
C          0.31930        1.15570       12.00990
S          0.95690        2.04530       13.22000
N          0.78560        1.10880       10.73510
C          1.95780        1.85280       10.31650
C          3.23930        1.10130       10.65310
C          0.11590        0.29470        9.84160
O          0.46360        0.17810        8.67810
H          3.18050       -1.63700       -4.92060
H         -0.72760        2.88480       -6.48200
H          3.80840        2.29070       -8.66180
H          2.15610        4.97170      -10.04450
H          4.01660        5.86050       -8.35830
H          2.86710        7.93400       -9.48990
H          0.48360        8.27400       -8.36620
H          0.16600        6.40950       -6.54280
H          2.46890        5.04420       -6.31840
H          2.76480        6.79480       -6.22130
H         -0.18220        5.30510       -8.94300
H         -0.10180       -2.18320       -6.40400
H         -1.65690       -1.85250       -5.63250
H         -1.87510       -4.26620       -5.02830
H         -1.63730       -4.07540       -6.76520
H         -0.29270       -4.59230       -5.74530
H         -3.92150       -2.76580        8.86140
H          0.73700       -1.41910        3.32040
H          0.06070       -1.05270        4.90350
H         -1.08790       -0.02670        2.25530
H         -1.70470        0.34390        3.86600
H         -0.10620        0.91750        3.38820
H          1.69560       -3.25090        0.47450
H          1.13710       -2.91590        2.11230
H          2.78660       -1.20980        1.43960
H          1.92800       -0.89900       -0.06560
H          1.21650       -0.39510        1.46080
H         -2.72220       -1.52530       10.60790
H          1.86760        1.98940        9.23620
H          1.93990        2.82140       10.82140
H          4.09630        1.67590       10.31460
H          3.24900        0.13230       10.15950
H          3.31960        0.95540       11.72760
