139

C         -4.02670        4.06240        4.98330
C         -5.20880        4.72750        4.84680
C         -5.86250        5.00930        3.54420
O         -5.46810        4.69570        2.44100
C         -7.00670        5.88470        3.85350
C         -7.93560        6.39320        2.94840
C         -8.89830        7.18850        3.52140
C         -8.92970        7.46800        4.89470
C         -8.01640        6.97880        5.79750
C         -7.03080        6.16130        5.23590
C         -5.92060        5.46020        5.87410
C         -5.64950        5.43650        7.21810
C         -4.62240        4.67980        7.81980
N         -3.82190        4.07800        8.38230
C         -6.37080        6.15560        8.19330
N         -6.90710        6.71900        9.03800
C        -10.15570        8.33670        4.77090
C         -9.95930        9.87240        4.80970
C         -8.56020       10.13960        4.31260
C         -8.53400        9.87340        3.01360
C         -9.91520        9.42070        2.60860
C        -10.76930       10.26860        3.56480
C        -10.12320        8.02270        3.24190
C         -3.45150        3.16770        4.04560
C         -4.02780        2.18000        3.26000
C         -5.46660        1.77390        3.26720
C         -6.09910        1.83640        1.87740
C         -3.04700        1.45700        2.56340
S         -3.14630        0.11410        1.44650
C         -1.42560        0.12330        1.31760
C         -0.41250       -0.55880        0.63160
C         -0.54140       -1.58450       -0.33530
N         -1.72110       -2.13280       -0.61710
C         -1.78370       -3.04070       -1.57820
C         -3.05620       -3.71650       -1.69340
S         -3.21140       -5.36440       -2.22670
C         -4.91610       -5.36700       -1.93230
C         -5.76560       -6.54890       -2.24590
C         -5.85110       -6.78430       -3.75520
C         -5.29860       -4.14970       -1.44590
C         -4.26240       -3.21350       -1.28700
F         -6.57680       -3.86940       -1.13330
C         -0.63070       -3.32570       -2.37100
C         -0.65120       -4.05290       -3.61580
C         -1.62570       -4.14880       -4.57200
C         -1.18230       -4.88170       -5.68550
F         -1.97390       -5.11380       -6.74980
C          0.10380       -5.33730       -5.61280
C          0.84210       -6.16130       -6.61030
C          1.21830       -7.52810       -6.03770
S          0.81480       -4.83650       -4.11950
N          0.55970       -2.87750       -2.00500
C          0.63520       -2.04510       -0.97020
C          1.87690       -1.55940       -0.49500
C          3.16680       -1.95250       -0.87230
S          3.92560       -3.06070       -1.95470
C          5.48510       -2.55700       -1.33740
C          6.79170       -2.95520       -1.64140
C          7.08490       -4.10630       -2.54850
C          6.59490       -3.86430       -3.97620
C          7.71780       -2.27370       -0.85450
S          6.93990       -1.17810        0.29380
C          5.38810       -1.58220       -0.33030
C          4.06100       -1.23040       -0.07620
N          3.36920       -0.40450        0.76930
C          4.10810        0.37290        1.73560
C          4.68630        1.64350        1.11280
C          2.01890       -0.56760        0.52270
C          0.83050        0.00480        1.04960
N          0.55310        1.03430        1.93110
C         -0.80330        1.09840        2.10020
C         -1.73080        1.86660        2.81300
S         -1.69000        3.15560        3.95480
C          1.38380        2.01660        2.58620
C          1.64430        1.65180        4.04800
C          9.11500       -2.40660       -0.73310
C         10.01070       -2.65120       -1.74230
C          9.76780       -2.31320       -3.16040
O          8.76510       -1.84650       -3.65490
C         11.07160       -2.50920       -3.83620
C         11.37900       -2.32360       -5.16920
C         12.68630       -2.55570       -5.56580
F         13.02720       -2.39580       -6.85060
C         13.65090       -2.95330       -4.63970
F         14.90680       -3.16320       -5.05040
C         13.34340       -3.13410       -3.29940
C         12.03630       -2.90970       -2.89680
C         11.39950       -3.01510       -1.58480
C         11.99760       -3.46380       -0.43530
C         11.32860       -3.64790        0.79300
N         10.84300       -3.84160        1.81540
C         13.35710       -3.82550       -0.34080
N         14.45630       -4.12690       -0.20550
H         -3.43150        4.23710        5.87220
H         -7.87400        6.15370        1.89830
H         -8.05210        7.20610        6.84980
H        -11.02620        8.01580        5.33960
H        -10.23030       10.33780        5.75340
H         -7.74460       10.43090        4.94830
H         -7.69210        9.89760        2.34670
H        -10.14710        9.47530        1.54820
H        -11.81190        9.95650        3.60810
H        -10.71290       11.33400        3.34720
H        -10.97210        7.49420        2.81230
H         -5.51510        0.74200        3.63090
H         -6.02630        2.40390        3.95940
H         -6.02240        2.84380        1.47890
H         -5.59850        1.15190        1.19800
H         -7.14850        1.55970        1.93960
H         -6.76400       -6.37340       -1.83970
H         -5.34800       -7.43760       -1.76600
H         -6.28750       -5.91970       -4.24990
H         -4.85890       -6.95530       -4.16710
H         -6.47040       -7.65250       -3.96400
H         -4.39240       -2.21910       -0.90410
H         -2.60070       -3.70310       -4.50810
H          0.20800       -6.28700       -7.49040
H          1.75180       -5.63690       -6.91420
H          1.85500       -7.40640       -5.16460
H          0.32560       -8.07420       -5.74260
H          1.75240       -8.11210       -6.78260
H          6.56780       -4.98220       -2.14300
H          8.15490       -4.31500       -2.55130
H          6.85330       -4.71590       -4.60030
H          7.06330       -2.97350       -4.38400
H          5.51630       -3.73410       -3.99360
H          4.93680       -0.25190        2.08580
H          3.47780        0.59180        2.59250
H          5.17530        2.24050        1.87730
H          3.91160        2.24200        0.63750
H          5.42190        1.38510        0.35560
H          0.84240        2.96810        2.55600
H          2.30710        2.14710        2.02830
H          0.71690        1.69500        4.61290
H          2.34540        2.35640        4.48620
H          2.04730        0.64530        4.14180
H          9.50580       -2.24690        0.26560
H         10.63220       -2.01220       -5.88200
H         14.12480       -3.43480       -2.62090
