110

C         -5.23700       -3.24430        1.04620
C         -5.38320       -4.16620        2.03660
C         -4.24700       -4.90990        2.63770
O         -3.11060       -4.98690        2.22390
C         -4.75140       -5.41470        3.92820
C         -4.01600       -6.08690        4.90280
C         -4.73370       -6.39300        6.03370
C         -6.08430       -6.05180        6.19090
C         -6.82160       -5.38690        5.24040
C         -6.10990       -5.06810        4.07940
C         -6.54100       -4.34680        2.88800
C         -7.82170       -3.97480        2.57440
C         -8.18150       -3.36340        1.35470
N         -8.53680       -2.88590        0.37280
C         -8.94110       -4.19430        3.40230
N         -9.88680       -4.34270        4.03620
C         -6.15670       -6.64930        7.57390
C         -6.84580       -8.02440        7.69960
C         -6.34890       -8.55650        9.02450
C         -5.07090       -8.88070        8.87560
C         -4.68210       -8.57310        7.44750
C         -6.00840       -8.88040        6.74050
C         -4.65170       -7.03090        7.39790
C         -4.12360       -3.15090        0.16660
C         -3.48220       -4.12090       -0.58380
C         -3.91680       -5.54610       -0.70330
C         -2.79370       -6.52950       -0.37710
C         -2.44570       -3.55970       -1.34870
C         -2.28000       -2.18020       -1.17710
S         -3.47340       -1.53800       -0.11300
C         -1.19530       -1.68710       -1.90990
C         -0.55820       -2.69390       -2.64430
S         -1.28750       -4.25050       -2.46290
C          0.57170       -2.11440       -3.24030
C          1.65440       -2.68890       -3.94400
N          1.80170       -3.93990       -4.34980
S          3.27290       -4.09780       -5.00630
N          3.78120       -2.57580       -4.79590
C          2.81550       -1.88670       -4.20950
C          2.79450       -0.51590       -3.86740
C          3.75070        0.50120       -4.00480
S          5.39520        0.69830       -4.51010
C          5.28560        2.40000       -4.10250
C          6.18780        3.44480       -4.12510
C          5.64480        4.63960       -3.64340
S          3.95820        4.44670       -3.17570
C          4.01790        2.78170       -3.61750
C          3.15110        1.68950       -3.56790
N          1.86030        1.44760       -3.16800
C          0.90060        2.53070       -3.22360
C          0.79420        3.10220       -4.63750
C          1.63470        0.08990       -3.30180
C          0.57020       -0.73940       -2.87020
N         -0.51720       -0.50630       -2.04970
C         -0.79370        0.59540       -1.15480
C         -2.05350        1.36100       -1.56020
C          6.40850        5.80880       -3.53600
C          6.08440        7.03930       -3.01990
C          4.78970        7.40600       -2.43820
O          3.77800        6.72410       -2.38900
C          4.94400        8.77100       -1.91450
C          4.03440        9.54140       -1.25050
C          4.41280       10.83190       -0.81650
C          3.52130       11.67150       -0.12090
C          3.91240       12.91560        0.29500
C          5.21160       13.37370        0.03240
C          6.10150       12.58250       -0.64240
C          5.73220       11.29630       -1.08450
C          6.65070       10.47520       -1.78000
C          6.26420        9.22800       -2.19140
C          6.98000        8.17370       -2.90550
C          8.26300        8.27520       -3.38130
C          8.96180        7.27950       -4.09380
N          9.59920        6.52740       -4.68430
C          9.07240        9.42020       -3.23040
N          9.78580       10.31580       -3.14260
H         -5.97570       -2.45560        0.95200
H         -2.97430       -6.32080        4.74760
H         -7.85460       -5.11360        5.37890
H         -6.43010       -5.96180        8.37210
H         -7.92170       -8.00960        7.54990
H         -6.94310       -8.58880        9.91880
H         -4.38410       -9.23760        9.62060
H         -3.78700       -9.05890        7.06850
H         -6.26960       -9.93570        6.79650
H         -6.04570       -8.55060        5.70390
H         -3.92140       -6.59770        8.07890
H         -4.24530       -5.70960       -1.73490
H         -4.76820       -5.72320       -0.04500
H         -1.97700       -6.43050       -1.08700
H         -2.41380       -6.33950        0.62240
H         -3.17240       -7.54750       -0.42360
H          7.20690        3.36890       -4.45880
H         -0.07550        2.16290       -2.92990
H          1.22430        3.31520       -2.53270
H          1.73500        3.54380       -4.95250
H          0.52140        2.31880       -5.34190
H          0.02970        3.87380       -4.65820
H         -0.95020        0.17700       -0.15410
H          0.08090        1.24420       -1.10680
H         -2.02310        1.66370       -2.60460
H         -2.16010        2.24670       -0.94050
H         -2.93140        0.73630       -1.42050
H          7.42110        5.68380       -3.90010
H          3.03930        9.17010       -1.05470
H          2.52200       11.31300        0.07880
H          3.22280       13.55260        0.82850
H          5.50470       14.35740        0.36740
H          7.10310       12.93110       -0.84720
H          7.64190       10.85760       -1.96430
