113

C         -6.85750        2.55740        0.04670
C         -7.31480        1.29380       -0.24170
C         -6.49790        0.09760       -0.45430
O         -5.28090        0.00830       -0.41020
C         -7.43440       -1.00210       -0.73830
C         -7.11200       -2.33100       -1.00090
C         -8.20190       -3.13540       -1.23160
C         -9.51650       -2.65240       -1.20140
C         -9.84760       -1.34390       -0.93890
C         -8.75350       -0.50730       -0.70300
C         -8.70670        0.92200       -0.39320
C         -9.80400        1.73850       -0.27100
C        -11.13920        1.31350       -0.43080
N        -12.25070        1.04920       -0.54700
C         -9.78160        3.11510        0.03170
N         -9.85480        4.23690        0.27280
C        -10.10490       -4.00240       -1.52680
C        -10.59270       -4.24910       -2.97580
C         -9.78460       -3.33500       -3.86280
C         -8.54040       -3.79330       -3.89030
C         -8.48470       -5.02560       -3.02160
C         -9.89480       -5.58900       -3.25980
C         -8.63980       -4.54120       -1.55880
C         -5.55950        3.04930        0.21430
C         -5.27550        4.40140        0.49780
C         -6.36920        5.41690        0.64520
C         -5.89780        6.82970        0.95170
C         -3.90680        4.62510        0.61090
Se        -2.82310        6.15750        0.95530
C         -1.39070        4.99110        0.80220
C          0.00530        5.02750        0.84510
C          0.87400        6.13210        0.97040
C          2.28140        5.91200        0.85710
N          2.98180        7.03160        0.94030
S          1.94690        8.26370        1.14750
N          0.56790        7.40860        1.13690
C          2.75050        4.58750        0.72810
C          4.06110        4.10270        0.70700
Se         5.79720        4.76990        0.72600
C          6.30440        2.93940        0.71450
C          7.54270        2.31220        0.71630
C          8.82540        3.07650        0.76280
C          9.32500        3.21710        2.20240
C          7.41780        0.91270        0.72500
S          5.72940        0.40580        0.71710
C          5.21410        2.05170        0.70600
C          3.97480        2.70440        0.69270
N          2.65920        2.32130        0.67280
C          1.87670        3.46230        0.68330
C          0.47430        3.69800        0.63870
N         -0.62980        2.88720        0.44310
C         -1.75440        3.66650        0.53510
C         -3.13500        3.45970        0.42280
S         -4.10270        2.07350        0.09700
C         -0.71100        1.56660       -0.13940
C         -0.12390        1.54490       -1.54870
C          2.30740        0.95160        0.97460
C          1.70270        0.82770        2.37100
C          8.51630        0.04850        0.73710
C          8.58380       -1.32340        0.76770
C          7.44740       -2.24660        0.80730
O          6.25920       -1.96810        0.80380
C          8.02290       -3.60250        0.85060
C          7.36890       -4.81620        0.89830
C          8.12280       -5.98630        0.93090
C          7.46300       -7.32730        0.98840
C          9.51350       -5.89350        0.91550
C         10.17640       -4.67670        0.86710
C          9.42510       -3.51170        0.83310
C          9.80650       -2.10220        0.77580
C         11.09600       -1.63480        0.72920
C         11.48330       -0.28120        0.66170
N         11.88100        0.79610        0.60530
C         12.23700       -2.46380        0.73810
N         13.20740       -3.07790        0.74380
H         -7.62040        3.31370        0.16500
H         -6.08460       -2.66000       -1.01160
H        -10.86540       -0.99250       -0.91670
H        -10.78450       -4.41680       -0.78480
H        -11.67130       -4.20940       -3.10150
H        -10.17550       -2.44450       -4.31920
H         -7.68360       -3.36200       -4.37410
H         -7.64390       -5.69380       -3.18930
H        -10.17030       -6.37830       -2.56160
H        -10.04380       -5.93340       -4.28200
H         -8.36330       -5.30700       -0.83660
H         -6.95670        5.43450       -0.27790
H         -7.04310        5.09020        1.44320
H         -5.26210        7.21260        0.15320
H         -5.34410        6.86290        1.89000
H         -6.76040        7.48490        1.04300
H          9.59460        2.59780        0.15510
H          8.63630        4.07400        0.35320
H          8.58190        3.73000        2.80970
H          9.51900        2.24060        2.64000
H         10.24730        3.79050        2.21840
H         -0.23290        0.83260        0.50890
H         -1.77030        1.30670       -0.18900
H         -0.69020        2.21100       -2.19550
H         -0.17930        0.53940       -1.95660
H          0.91400        1.87080       -1.55170
H          1.64370        0.54870        0.20980
H          3.23230        0.37250        0.93280
H          0.81540        1.44810        2.47610
H          2.42770        1.14370        3.11750
H          1.43510       -0.20690        2.56710
H          9.46490        0.56740        0.72510
H          6.28940       -4.84440        0.90870
H          7.68910       -7.81620        1.93570
H          7.83330       -7.96830        0.19000
H          6.38430       -7.23610        0.89450
H         10.09550       -6.80330        0.94160
H         11.25360       -4.65570        0.85690
