101

C          6.25940        2.35860        1.85310
C          6.82140        1.37500        1.10100
C          8.19090        1.54890        0.54330
O          9.01300        2.36760        0.88580
C          8.29200        0.55870       -0.54740
C          9.33140        0.41490       -1.46480
C          9.13100       -0.58480       -2.38660
C          7.97570       -1.37890       -2.40920
C          6.94440       -1.25350       -1.50950
C          7.13640       -0.25150       -0.55480
C          6.29510        0.13430        0.57370
C          5.38450       -0.68030        1.19930
C          4.97770       -1.93620        0.70820
N          4.59650       -2.95540        0.34180
C          4.83410       -0.38110        2.46330
N          4.39740       -0.18430        3.50710
C          8.44640       -2.17150       -3.60250
C          8.98880       -3.58750       -3.31430
C          9.80050       -3.92100       -4.54510
C         10.89720       -3.17440       -4.51960
C         10.84520       -2.32350       -3.27100
C         10.12190       -3.28970       -2.32390
C          9.73740       -1.29170       -3.57330
C          4.89160        2.60740        2.12010
C          4.42070        3.43970        3.11780
C          3.03430        3.57490        3.15750
S          1.99570        4.46030        4.25160
C          0.61830        3.90300        3.37040
C         -0.78220        4.02110        3.38700
C         -1.67860        4.82260        4.13260
C         -3.07830        4.81450        3.79430
N         -3.77520        5.67220        4.52140
S         -2.77060        6.41800        5.54710
N         -1.40220        5.67950        5.10210
C         -3.55110        3.89380        2.82940
C         -4.83390        3.53890        2.38520
C         -4.68630        2.43100        1.53520
N         -3.35820        2.09970        1.41970
C         -2.97970        0.73810        1.09910
C         -3.54870       -0.25030        2.11600
C         -2.64810        3.00860        2.17600
C         -1.26040        3.19800        2.33280
N         -0.18920        2.65560        1.64690
C          0.94950        3.07610        2.28690
C          2.32710        2.89320        2.15340
Se         3.47590        1.95670        1.02990
C         -0.14050        2.31070        0.24090
C          0.36140        3.48500       -0.59880
C         -5.89380        1.95890        1.02600
C         -6.97130        2.74170        1.50130
S         -6.47810        4.03700        2.57950
C         -8.21770        2.37140        1.04430
C         -8.23040        1.27580        0.16870
Se        -6.46990        0.60720       -0.11850
C         -9.42700        0.81970       -0.38610
C         -9.67240       -0.20430       -1.27870
C         -8.66220       -1.08310       -1.84330
O         -7.45850       -1.08230       -1.61520
C         -9.36780       -1.99880       -2.76000
C         -8.84910       -3.00700       -3.54510
C         -9.73880       -3.72680       -4.33730
C         -9.22140       -4.85330       -5.18960
F         -7.96440       -4.64890       -5.60810
F         -9.21020       -6.02220       -4.51960
F         -9.96320       -5.05790       -6.28740
C        -11.10000       -3.44510       -4.32660
C        -11.61310       -2.42830       -3.53190
C        -10.74090       -1.69660       -2.74220
C        -10.96220       -0.57730       -1.81940
C        -12.18200       -0.01300       -1.55010
C        -12.41460        1.06700       -0.67210
N        -12.69030        1.94030        0.02080
C        -13.39800       -0.44090       -2.12480
N        -14.42030       -0.73750       -2.55420
H          6.95310        3.10350        2.23320
H         10.20150        1.05090       -1.42120
H          6.05390       -1.86000       -1.53840
H          7.80740       -2.13040       -4.48250
H          8.23570       -4.31000       -3.01240
H          9.47800       -4.60290       -5.30990
H         11.67380       -3.10790       -5.25880
H         11.78460       -1.89640       -2.93060
H          9.78970       -2.83470       -1.39260
H         10.71840       -4.17340       -2.10400
H          9.96260       -0.66620       -4.43510
H          5.07880        3.90760        3.82940
H         -1.89520        0.65130        1.10990
H         -3.36220        0.49920        0.09880
H         -4.63650       -0.25590        2.09170
H         -3.19630       -1.25070        1.88210
H         -3.22110        0.01110        3.12000
H         -1.13770        2.04510       -0.10370
H          0.53140        1.45180        0.11980
H          1.38320        3.74770       -0.33340
H          0.33700        3.21600       -1.65100
H         -0.27340        4.35510       -0.44470
H         -9.12560        2.87840        1.32490
H        -10.29120        1.38490       -0.05570
H         -7.79100       -3.21870       -3.54520
H        -11.76630       -4.02120       -4.95040
H        -12.67160       -2.22910       -3.54550
