
  xtb     02112202243D
 energy: -189.414143519715 gnorm: 0.000993356386 xtb: 6.4.1 (unknown)
104118  0     0  0            999 V2000
    6.0977    0.7099   -4.0458 C   0  0  0  0  0  0  0  0  0  0  0  0
    5.4817    1.0572   -5.2235 C   0  0  0  0  0  0  0  0  0  0  0  0
    4.0547    1.3017   -5.3873 C   0  0  0  0  0  0  0  0  0  0  0  0
    3.1815    1.1883   -4.5326 O   0  0  0  0  0  0  0  0  0  0  0  0
    3.8497    1.7202   -6.7789 C   0  0  0  0  0  0  0  0  0  0  0  0
    2.6489    2.0954   -7.3782 C   0  0  0  0  0  0  0  0  0  0  0  0
    2.7726    2.4494   -8.7001 C   0  0  0  0  0  0  0  0  0  0  0  0
    3.9992    2.4284   -9.3769 C   0  0  0  0  0  0  0  0  0  0  0  0
    5.1915    2.0640   -8.7958 C   0  0  0  0  0  0  0  0  0  0  0  0
    5.0908    1.7027   -7.4494 C   0  0  0  0  0  0  0  0  0  0  0  0
    6.1258    1.2807   -6.5042 C   0  0  0  0  0  0  0  0  0  0  0  0
    7.4536    1.1205   -6.8042 C   0  0  0  0  0  0  0  0  0  0  0  0
    8.4594    0.7132   -5.9022 C   0  0  0  0  0  0  0  0  0  0  0  0
    9.3379    0.3834   -5.2395 N   0  0  0  0  0  0  0  0  0  0  0  0
    8.0174    1.3361   -8.0797 C   0  0  0  0  0  0  0  0  0  0  0  0
    8.5464    1.4843   -9.0878 N   0  0  0  0  0  0  0  0  0  0  0  0
    3.3839    2.8970  -10.6718 C   0  0  0  0  0  0  0  0  0  0  0  0
    3.1522    1.8227  -11.7558 C   0  0  0  0  0  0  0  0  0  0  0  0
    2.1331    2.4546  -12.6765 C   0  0  0  0  0  0  0  0  0  0  0  0
    0.9716    2.4809  -12.0355 C   0  0  0  0  0  0  0  0  0  0  0  0
    1.1856    1.8663  -10.6710 C   0  0  0  0  0  0  0  0  0  0  0  0
    2.2548    0.8218  -11.0164 C   0  0  0  0  0  0  0  0  0  0  0  0
    2.0167    2.9248   -9.9157 C   0  0  0  0  0  0  0  0  0  0  0  0
    5.5608    0.4699   -2.7732 C   0  0  0  0  0  0  0  0  0  0  0  0
    6.3916    0.1561   -1.6941 C   0  0  0  0  0  0  0  0  0  0  0  0
    5.7391   -0.0739   -0.4978 C   0  0  0  0  0  0  0  0  0  0  0  0
    6.3688   -0.4578    1.0956 S   0  0  0  0  0  0  0  0  0  0  0  0
    4.7477   -0.4909    1.6952 C   0  0  0  0  0  0  0  0  0  0  0  0
    4.0598   -0.6768    2.9019 C   0  0  0  0  0  0  0  0  0  0  0  0
    4.5310   -0.8385    4.2238 C   0  0  0  0  0  0  0  0  0  0  0  0
    3.5807   -0.8986    5.2957 C   0  0  0  0  0  0  0  0  0  0  0  0
    4.1604   -0.9908    6.4820 N   0  0  0  0  0  0  0  0  0  0  0  0
    5.7652   -1.0054    6.2682 S   0  0  0  0  0  0  0  0  0  0  0  0
    5.7814   -0.8944    4.6540 N   0  0  0  0  0  0  0  0  0  0  0  0
    2.2033   -0.9264    4.9832 C   0  0  0  0  0  0  0  0  0  0  0  0
    1.0841   -1.1615    5.7926 C   0  0  0  0  0  0  0  0  0  0  0  0
   -0.0236   -1.2620    4.9424 C   0  0  0  0  0  0  0  0  0  0  0  0
    0.3688   -1.0681    3.6446 N   0  0  0  0  0  0  0  0  0  0  0  0
   -0.5369   -1.4139    2.5737 C   0  0  0  0  0  0  0  0  0  0  0  0
   -1.5628   -0.3113    2.3112 C   0  0  0  0  0  0  0  0  0  0  0  0
    1.7328   -0.8412    3.6400 C   0  0  0  0  0  0  0  0  0  0  0  0
    2.6669   -0.5796    2.6045 C   0  0  0  0  0  0  0  0  0  0  0  0
    2.5275   -0.2931    1.2577 N   0  0  0  0  0  0  0  0  0  0  0  0
    3.7848   -0.2355    0.7128 C   0  0  0  0  0  0  0  0  0  0  0  0
    4.3330    0.0215   -0.5458 C   0  0  0  0  0  0  0  0  0  0  0  0
    3.7339    0.4849   -2.2507 Se  0  0  0  0  0  2  0  0  0  0  0  0
    1.4612    0.3697    0.5407 C   0  0  0  0  0  0  0  0  0  0  0  0
    1.6047    1.8883    0.6260 C   0  0  0  0  0  0  0  0  0  0  0  0
   -1.1969   -1.5970    5.6266 C   0  0  0  0  0  0  0  0  0  0  0  0
   -0.9564   -1.7281    7.0090 C   0  0  0  0  0  0  0  0  0  0  0  0
    0.7107   -1.4388    7.4560 S   0  0  0  0  0  0  0  0  0  0  0  0
   -2.0522   -2.0791    7.7880 C   0  0  0  0  0  0  0  0  0  0  0  0
   -3.2299   -2.2613    7.0798 C   0  0  0  0  0  0  0  0  0  0  0  0
   -2.9828   -1.9552    5.2212 Se  0  0  0  0  0  2  0  0  0  0  0  0
   -4.4611   -2.6381    7.6444 C   0  0  0  0  0  0  0  0  0  0  0  0
   -5.6366   -2.8459    6.9956 C   0  0  0  0  0  0  0  0  0  0  0  0
   -5.9062   -2.6798    5.2767 S   0  0  0  0  0  0  0  0  0  0  0  0
   -7.5886   -3.1466    5.4616 C   0  0  0  0  0  0  0  0  0  0  0  0
   -8.3961   -3.2376    4.3578 C   0  0  0  0  0  0  0  0  0  0  0  0
   -7.8619   -2.9122    3.0939 C   0  0  0  0  0  0  0  0  0  0  0  0
   -7.4210   -2.6447    2.0690 N   0  0  0  0  0  0  0  0  0  0  0  0
   -9.7325   -3.6697    4.3360 C   0  0  0  0  0  0  0  0  0  0  0  0
  -10.8144   -4.0420    4.2398 N   0  0  0  0  0  0  0  0  0  0  0  0
   -7.8977   -3.3920    6.7588 N   0  0  0  0  0  0  0  0  0  0  0  0
   -9.2375   -3.6546    7.2418 C   0  0  0  0  0  0  0  0  0  0  0  0
  -10.1502   -2.4607    7.0960 C   0  0  0  0  0  0  0  0  0  0  0  0
  -11.5140   -2.6560    6.9237 C   0  0  0  0  0  0  0  0  0  0  0  0
  -12.3643   -1.5726    6.8034 C   0  0  0  0  0  0  0  0  0  0  0  0
  -11.8604   -0.2836    6.8496 C   0  0  0  0  0  0  0  0  0  0  0  0
  -10.5034   -0.0828    7.0279 C   0  0  0  0  0  0  0  0  0  0  0  0
   -9.6521   -1.1665    7.1557 C   0  0  0  0  0  0  0  0  0  0  0  0
   -6.8600   -3.2434    7.6759 C   0  0  0  0  0  0  0  0  0  0  0  0
   -6.9943   -3.4322    8.8639 O   0  0  0  0  0  0  0  0  0  0  0  0
    7.1764    0.6050   -4.0752 H   0  0  0  0  0  0  0  0  0  0  0  0
    1.7273    2.0994   -6.8178 H   0  0  0  0  0  0  0  0  0  0  0  0
    6.1262    2.0640   -9.3306 H   0  0  0  0  0  0  0  0  0  0  0  0
    3.7774    3.8285  -11.0740 H   0  0  0  0  0  0  0  0  0  0  0  0
    4.0578    1.4390  -12.2170 H   0  0  0  0  0  0  0  0  0  0  0  0
    2.3668    2.8544  -13.6456 H   0  0  0  0  0  0  0  0  0  0  0  0
    0.0413    2.9072  -12.3622 H   0  0  0  0  0  0  0  0  0  0  0  0
    0.2994    1.5222  -10.1447 H   0  0  0  0  0  0  0  0  0  0  0  0
    2.7234    0.3621  -10.1481 H   0  0  0  0  0  0  0  0  0  0  0  0
    1.8730    0.0458  -11.6775 H   0  0  0  0  0  0  0  0  0  0  0  0
    1.5000    3.8768   -9.8101 H   0  0  0  0  0  0  0  0  0  0  0  0
    7.4621    0.1037   -1.8015 H   0  0  0  0  0  0  0  0  0  0  0  0
    0.0400   -1.6658    1.6827 H   0  0  0  0  0  0  0  0  0  0  0  0
   -1.0770   -2.3202    2.8809 H   0  0  0  0  0  0  0  0  0  0  0  0
   -2.1471   -0.5519    1.4276 H   0  0  0  0  0  0  0  0  0  0  0  0
   -2.2442   -0.2290    3.1580 H   0  0  0  0  0  0  0  0  0  0  0  0
   -1.0872    0.6569    2.1723 H   0  0  0  0  0  0  0  0  0  0  0  0
    1.5303    0.0544   -0.5086 H   0  0  0  0  0  0  0  0  0  0  0  0
    0.4939    0.0773    0.9288 H   0  0  0  0  0  0  0  0  0  0  0  0
    1.5838    2.2145    1.6641 H   0  0  0  0  0  0  0  0  0  0  0  0
    2.5433    2.2094    0.1787 H   0  0  0  0  0  0  0  0  0  0  0  0
    0.7888    2.3637    0.0890 H   0  0  0  0  0  0  0  0  0  0  0  0
   -1.9998   -2.2096    8.8549 H   0  0  0  0  0  0  0  0  0  0  0  0
   -4.4845   -2.7893    8.7175 H   0  0  0  0  0  0  0  0  0  0  0  0
   -9.1161   -3.9005    8.3046 H   0  0  0  0  0  0  0  0  0  0  0  0
   -9.6566   -4.5225    6.7256 H   0  0  0  0  0  0  0  0  0  0  0  0
  -11.9068   -3.6600    6.8724 H   0  0  0  0  0  0  0  0  0  0  0  0
  -13.4221   -1.7362    6.6651 H   0  0  0  0  0  0  0  0  0  0  0  0
  -12.5234    0.5623    6.7475 H   0  0  0  0  0  0  0  0  0  0  0  0
  -10.1026    0.9191    7.0701 H   0  0  0  0  0  0  0  0  0  0  0  0
   -8.5951   -0.9946    7.3082 H   0  0  0  0  0  0  0  0  0  0  0  0
  1  2  2  0  0  0  0
  2  3  1  0  0  0  0
  3  4  2  0  0  0  0
  3  5  1  0  0  0  0
  5  6  2  0  0  0  0
  6  7  1  0  0  0  0
  7  8  2  0  0  0  0
  8  9  1  0  0  0  0
  9 10  2  0  0  0  0
 10 11  1  0  0  0  0
 11 12  2  0  0  0  0
 12 13  1  0  0  0  0
 13 14  3  0  0  0  0
 12 15  1  0  0  0  0
 15 16  3  0  0  0  0
  8 17  1  0  0  0  0
 17 18  1  0  0  0  0
 18 19  1  0  0  0  0
 19 20  2  0  0  0  0
 20 21  1  0  0  0  0
 21 22  1  0  0  0  0
 21 23  1  0  0  0  0
  1 24  1  0  0  0  0
 24 25  2  0  0  0  0
 25 26  1  0  0  0  0
 26 27  1  0  0  0  0
 27 28  1  0  0  0  0
 28 29  1  0  0  0  0
 29 30  1  0  0  0  0
 30 31  1  0  0  0  0
 31 32  2  0  0  0  0
 32 33  1  0  0  0  0
 33 34  1  0  0  0  0
 31 35  1  0  0  0  0
 35 36  1  0  0  0  0
 36 37  2  0  0  0  0
 37 38  1  0  0  0  0
 38 39  1  0  0  0  0
 39 40  1  0  0  0  0
 38 41  1  0  0  0  0
 41 42  1  0  0  0  0
 42 43  1  0  0  0  0
 43 44  1  0  0  0  0
 44 45  1  0  0  0  0
 45 46  1  0  0  0  0
 43 47  1  0  0  0  0
 47 48  1  0  0  0  0
 37 49  1  0  0  0  0
 49 50  2  0  0  0  0
 50 51  1  0  0  0  0
 50 52  1  0  0  0  0
 52 53  2  0  0  0  0
 53 54  1  0  0  0  0
 53 55  1  0  0  0  0
 55 56  2  0  0  0  0
 56 57  1  0  0  0  0
 57 58  1  0  0  0  0
 58 59  2  0  0  0  0
 59 60  1  0  0  0  0
 60 61  3  0  0  0  0
 59 62  1  0  0  0  0
 62 63  3  0  0  0  0
 58 64  1  0  0  0  0
 64 65  1  0  0  0  0
 65 66  1  0  0  0  0
 66 67  2  0  0  0  0
 67 68  1  0  0  0  0
 68 69  2  0  0  0  0
 69 70  1  0  0  0  0
 70 71  2  0  0  0  0
 64 72  1  0  0  0  0
 72 73  2  0  0  0  0
 11  2  1  0  0  0  0
 23 17  1  0  0  0  0
 46 24  1  0  0  0  0
 54 49  1  0  0  0  0
 72 56  1  0  0  0  0
 10  5  1  0  0  0  0
 22 18  1  0  0  0  0
 45 26  2  0  0  0  0
 71 66  1  0  0  0  0
 23  7  1  0  0  0  0
 44 28  2  0  0  0  0
 42 29  2  0  0  0  0
 34 30  2  0  0  0  0
 41 35  2  0  0  0  0
 51 36  1  0  0  0  0
  1 74  1  0  0  0  0
  6 75  1  0  0  0  0
  9 76  1  0  0  0  0
 17 77  1  0  0  0  0
 18 78  1  0  0  0  0
 19 79  1  0  0  0  0
 20 80  1  0  0  0  0
 21 81  1  0  0  0  0
 22 82  1  0  0  0  0
 22 83  1  0  0  0  0
 23 84  1  0  0  0  0
 25 85  1  0  0  0  0
 39 86  1  0  0  0  0
 39 87  1  0  0  0  0
 40 88  1  0  0  0  0
 40 89  1  0  0  0  0
 40 90  1  0  0  0  0
 47 91  1  0  0  0  0
 47 92  1  0  0  0  0
 48 93  1  0  0  0  0
 48 94  1  0  0  0  0
 48 95  1  0  0  0  0
 52 96  1  0  0  0  0
 55 97  1  0  0  0  0
 65 98  1  0  0  0  0
 65 99  1  0  0  0  0
 67100  1  0  0  0  0
 68101  1  0  0  0  0
 69102  1  0  0  0  0
 70103  1  0  0  0  0
 71104  1  0  0  0  0
M  END
