
  xtb     01262217083D
 energy: -246.193831663575 gnorm: 0.000748573304 xtb: 6.4.1 (unknown)
151167  0     0  0            999 V2000
    2.5253    5.0439   -1.6162 C   0  0  0  0  0  0  0  0  0  0  0  0
    2.3455    6.0837   -2.4877 C   0  0  0  0  0  0  0  0  0  0  0  0
    1.1250    6.4764   -3.2292 C   0  0  0  0  0  0  0  0  0  0  0  0
    0.0115    5.9922   -3.1766 O   0  0  0  0  0  0  0  0  0  0  0  0
    1.5160    7.6108   -4.0844 C   0  0  0  0  0  0  0  0  0  0  0  0
    0.6929    8.2993   -4.9730 C   0  0  0  0  0  0  0  0  0  0  0  0
    1.3244    9.3154   -5.6478 C   0  0  0  0  0  0  0  0  0  0  0  0
    2.6770    9.6253   -5.4506 C   0  0  0  0  0  0  0  0  0  0  0  0
    3.4976    8.9568   -4.5744 C   0  0  0  0  0  0  0  0  0  0  0  0
    2.8745    7.9164   -3.8776 C   0  0  0  0  0  0  0  0  0  0  0  0
    3.4096    6.9992   -2.8746 C   0  0  0  0  0  0  0  0  0  0  0  0
    4.6916    7.0377   -2.3888 C   0  0  0  0  0  0  0  0  0  0  0  0
    5.2477    6.2052   -1.3937 C   0  0  0  0  0  0  0  0  0  0  0  0
    5.7979    5.5937   -0.5909 N   0  0  0  0  0  0  0  0  0  0  0  0
    5.6807    7.9519   -2.8116 C   0  0  0  0  0  0  0  0  0  0  0  0
    6.5455    8.6511   -3.0982 N   0  0  0  0  0  0  0  0  0  0  0  0
    2.6493   10.7468   -6.4583 C   0  0  0  0  0  0  0  0  0  0  0  0
    3.2700   10.4810   -7.8521 C   0  0  0  0  0  0  0  0  0  0  0  0
    3.1691    8.9948   -8.0904 C   0  0  0  0  0  0  0  0  0  0  0  0
    1.8895    8.7006   -8.2774 C   0  0  0  0  0  0  0  0  0  0  0  0
    1.1017    9.9828   -8.1692 C   0  0  0  0  0  0  0  0  0  0  0  0
    2.1221   10.9770   -8.7460 C   0  0  0  0  0  0  0  0  0  0  0  0
    1.1427   10.4013   -6.6784 C   0  0  0  0  0  0  0  0  0  0  0  0
    1.6473    4.0567   -1.1300 C   0  0  0  0  0  0  0  0  0  0  0  0
    0.2937    3.8066   -1.3286 C   0  0  0  0  0  0  0  0  0  0  0  0
   -0.1364    2.6833   -0.6431 C   0  0  0  0  0  0  0  0  0  0  0  0
   -1.4431    1.9565   -0.4484 C   0  0  0  0  0  0  0  0  0  0  0  0
   -2.0475    1.4036   -1.7246 C   0  0  0  0  0  0  0  0  0  0  0  0
   -3.4011    1.0948   -1.7748 C   0  0  0  0  0  0  0  0  0  0  0  0
   -3.9534    0.5487   -2.9174 C   0  0  0  0  0  0  0  0  0  0  0  0
   -3.1715    0.2946   -4.0370 C   0  0  0  0  0  0  0  0  0  0  0  0
   -3.7681   -0.3374   -5.2613 C   0  0  0  0  0  0  0  0  0  0  0  0
   -3.7284   -1.8627   -5.1477 C   0  0  0  0  0  0  0  0  0  0  0  0
   -1.8176    0.5947   -3.9771 C   0  0  0  0  0  0  0  0  0  0  0  0
   -1.2590    1.1391   -2.8352 C   0  0  0  0  0  0  0  0  0  0  0  0
   -2.3917    2.9207    0.2462 C   0  0  0  0  0  0  0  0  0  0  0  0
   -2.6490    2.8556    1.6072 C   0  0  0  0  0  0  0  0  0  0  0  0
   -3.4863    3.7810    2.2050 C   0  0  0  0  0  0  0  0  0  0  0  0
   -4.0772    4.7949    1.4644 C   0  0  0  0  0  0  0  0  0  0  0  0
   -4.9453    5.8244    2.1284 C   0  0  0  0  0  0  0  0  0  0  0  0
   -4.0927    6.9794    2.6581 C   0  0  0  0  0  0  0  0  0  0  0  0
   -3.8049    4.8621    0.1035 C   0  0  0  0  0  0  0  0  0  0  0  0
   -2.9735    3.9392   -0.4997 C   0  0  0  0  0  0  0  0  0  0  0  0
   -1.0024    0.7985    0.4307 C   0  0  0  0  0  0  0  0  0  0  0  0
    0.3713    0.9039    0.7590 C   0  0  0  0  0  0  0  0  0  0  0  0
    0.8699    2.0659    0.0971 C   0  0  0  0  0  0  0  0  0  0  0  0
    2.3716    2.8629   -0.0451 S   0  0  0  0  0  0  0  0  0  0  0  0
    1.0119   -0.0300    1.5698 C   0  0  0  0  0  0  0  0  0  0  0  0
    0.2586   -1.0842    2.0299 C   0  0  0  0  0  0  0  0  0  0  0  0
    0.7028   -2.2415    2.9072 C   0  0  0  0  0  0  0  0  0  0  0  0
    1.9091   -2.9072    2.2741 C   0  0  0  0  0  0  0  0  0  0  0  0
    3.1853   -2.4302    2.5460 C   0  0  0  0  0  0  0  0  0  0  0  0
    4.2896   -2.9978    1.9401 C   0  0  0  0  0  0  0  0  0  0  0  0
    4.1503   -4.0537    1.0485 C   0  0  0  0  0  0  0  0  0  0  0  0
    5.3485   -4.6400    0.3597 C   0  0  0  0  0  0  0  0  0  0  0  0
    5.6384   -3.8857   -0.9396 C   0  0  0  0  0  0  0  0  0  0  0  0
    2.8720   -4.5200    0.7738 C   0  0  0  0  0  0  0  0  0  0  0  0
    1.7629   -3.9530    1.3743 C   0  0  0  0  0  0  0  0  0  0  0  0
    0.9790   -1.8409    4.3481 C   0  0  0  0  0  0  0  0  0  0  0  0
    1.5471   -2.7762    5.2054 C   0  0  0  0  0  0  0  0  0  0  0  0
    1.7676   -2.4662    6.5328 C   0  0  0  0  0  0  0  0  0  0  0  0
    1.4207   -1.2206    7.0420 C   0  0  0  0  0  0  0  0  0  0  0  0
    1.7017   -0.8701    8.4745 C   0  0  0  0  0  0  0  0  0  0  0  0
    3.0929   -0.2474    8.6091 C   0  0  0  0  0  0  0  0  0  0  0  0
    0.8487   -0.2937    6.1822 C   0  0  0  0  0  0  0  0  0  0  0  0
    0.6232   -0.5988    4.8514 C   0  0  0  0  0  0  0  0  0  0  0  0
   -0.5434   -3.0885    2.9165 C   0  0  0  0  0  0  0  0  0  0  0  0
   -1.5681   -2.4430    2.2231 C   0  0  0  0  0  0  0  0  0  0  0  0
   -1.1023   -1.2173    1.6600 C   0  0  0  0  0  0  0  0  0  0  0  0
   -1.7480   -0.2717    0.8655 C   0  0  0  0  0  0  0  0  0  0  0  0
   -3.0247   -3.3294    2.2332 S   0  0  0  0  0  0  0  0  0  0  0  0
   -2.2493   -4.6157    3.1706 C   0  0  0  0  0  0  0  0  0  0  0  0
   -0.9220   -4.3027    3.4567 C   0  0  0  0  0  0  0  0  0  0  0  0
   -3.0565   -5.7206    3.4804 C   0  0  0  0  0  0  0  0  0  0  0  0
   -2.7646   -6.9288    4.0649 C   0  0  0  0  0  0  0  0  0  0  0  0
   -1.4435   -7.4773    4.4371 C   0  0  0  0  0  0  0  0  0  0  0  0
   -0.3625   -6.9245    4.4707 O   0  0  0  0  0  0  0  0  0  0  0  0
   -1.6784   -8.8982    4.7660 C   0  0  0  0  0  0  0  0  0  0  0  0
   -0.7600   -9.8490    5.1043 C   0  0  0  0  0  0  0  0  0  0  0  0
   -1.2002  -11.1666    5.3590 C   0  0  0  0  0  0  0  0  0  0  0  0
   -0.2958  -12.1889    5.7060 C   0  0  0  0  0  0  0  0  0  0  0  0
   -0.7481  -13.4572    5.9390 C   0  0  0  0  0  0  0  0  0  0  0  0
    0.1143  -14.4300    6.2671 F   0  0  0  0  0  0  0  0  0  0  0  0
   -2.1210  -13.7575    5.8367 C   0  0  0  0  0  0  0  0  0  0  0  0
   -2.5356  -15.0106    6.0700 F   0  0  0  0  0  0  0  0  0  0  0  0
   -3.0228  -12.7864    5.5032 C   0  0  0  0  0  0  0  0  0  0  0  0
   -2.5889  -11.4683    5.2562 C   0  0  0  0  0  0  0  0  0  0  0  0
   -3.5158  -10.4580    4.9102 C   0  0  0  0  0  0  0  0  0  0  0  0
   -3.0661   -9.1863    4.6703 C   0  0  0  0  0  0  0  0  0  0  0  0
   -3.7634   -7.9573    4.3001 C   0  0  0  0  0  0  0  0  0  0  0  0
   -5.1273   -7.8176    4.2564 C   0  0  0  0  0  0  0  0  0  0  0  0
   -6.0337   -8.8684    4.5104 C   0  0  0  0  0  0  0  0  0  0  0  0
   -6.8253   -9.6777    4.7022 N   0  0  0  0  0  0  0  0  0  0  0  0
   -5.8356   -6.6251    3.9967 C   0  0  0  0  0  0  0  0  0  0  0  0
   -6.4978   -5.7028    3.8218 N   0  0  0  0  0  0  0  0  0  0  0  0
    3.5284    4.9320   -1.2220 H   0  0  0  0  0  0  0  0  0  0  0  0
   -0.3443    8.0262   -5.0900 H   0  0  0  0  0  0  0  0  0  0  0  0
    4.5347    9.2118   -4.4375 H   0  0  0  0  0  0  0  0  0  0  0  0
    2.8954   11.7356   -6.0765 H   0  0  0  0  0  0  0  0  0  0  0  0
    4.2501   10.9257   -8.0016 H   0  0  0  0  0  0  0  0  0  0  0  0
    4.0060    8.3229   -8.0430 H   0  0  0  0  0  0  0  0  0  0  0  0
    1.4432    7.7334   -8.4170 H   0  0  0  0  0  0  0  0  0  0  0  0
    0.1076    9.9741   -8.6085 H   0  0  0  0  0  0  0  0  0  0  0  0
    2.3140   10.8164   -9.8058 H   0  0  0  0  0  0  0  0  0  0  0  0
    1.8576   12.0195   -8.5738 H   0  0  0  0  0  0  0  0  0  0  0  0
    0.4047   11.1654   -6.4418 H   0  0  0  0  0  0  0  0  0  0  0  0
   -0.3154    4.4280   -1.9579 H   0  0  0  0  0  0  0  0  0  0  0  0
   -4.0297    1.2966   -0.9193 H   0  0  0  0  0  0  0  0  0  0  0  0
   -5.0095    0.3204   -2.9417 H   0  0  0  0  0  0  0  0  0  0  0  0
   -4.8041   -0.0129   -5.3780 H   0  0  0  0  0  0  0  0  0  0  0  0
   -3.2108   -0.0277   -6.1475 H   0  0  0  0  0  0  0  0  0  0  0  0
   -4.2900   -2.1921   -4.2764 H   0  0  0  0  0  0  0  0  0  0  0  0
   -2.7020   -2.2075   -5.0427 H   0  0  0  0  0  0  0  0  0  0  0  0
   -4.1606   -2.3219   -6.0337 H   0  0  0  0  0  0  0  0  0  0  0  0
   -1.1903    0.4033   -4.8361 H   0  0  0  0  0  0  0  0  0  0  0  0
   -0.2025    1.3638   -2.8132 H   0  0  0  0  0  0  0  0  0  0  0  0
   -2.2001    2.0787    2.2089 H   0  0  0  0  0  0  0  0  0  0  0  0
   -3.6828    3.7110    3.2655 H   0  0  0  0  0  0  0  0  0  0  0  0
   -5.6725    6.2128    1.4128 H   0  0  0  0  0  0  0  0  0  0  0  0
   -5.4905    5.3701    2.9582 H   0  0  0  0  0  0  0  0  0  0  0  0
   -3.3723    6.6150    3.3870 H   0  0  0  0  0  0  0  0  0  0  0  0
   -4.7205    7.7287    3.1344 H   0  0  0  0  0  0  0  0  0  0  0  0
   -3.5459    7.4498    1.8439 H   0  0  0  0  0  0  0  0  0  0  0  0
   -4.2499    5.6463   -0.4918 H   0  0  0  0  0  0  0  0  0  0  0  0
   -2.7788    4.0033   -1.5599 H   0  0  0  0  0  0  0  0  0  0  0  0
    2.0573    0.0753    1.8148 H   0  0  0  0  0  0  0  0  0  0  0  0
    3.3168   -1.6190    3.2477 H   0  0  0  0  0  0  0  0  0  0  0  0
    5.2756   -2.6177    2.1666 H   0  0  0  0  0  0  0  0  0  0  0  0
    6.2201   -4.5764    1.0141 H   0  0  0  0  0  0  0  0  0  0  0  0
    5.1673   -5.6923    0.1323 H   0  0  0  0  0  0  0  0  0  0  0  0
    6.5066   -4.3085   -1.4396 H   0  0  0  0  0  0  0  0  0  0  0  0
    4.7852   -3.9480   -1.6116 H   0  0  0  0  0  0  0  0  0  0  0  0
    5.8336   -2.8359   -0.7323 H   0  0  0  0  0  0  0  0  0  0  0  0
    2.7406   -5.3402    0.0824 H   0  0  0  0  0  0  0  0  0  0  0  0
    0.7787   -4.3338    1.1434 H   0  0  0  0  0  0  0  0  0  0  0  0
    1.8232   -3.7492    4.8269 H   0  0  0  0  0  0  0  0  0  0  0  0
    2.2106   -3.2046    7.1854 H   0  0  0  0  0  0  0  0  0  0  0  0
    1.6484   -1.7686    9.0923 H   0  0  0  0  0  0  0  0  0  0  0  0
    0.9539   -0.1614    8.8362 H   0  0  0  0  0  0  0  0  0  0  0  0
    3.8539   -0.9443    8.2651 H   0  0  0  0  0  0  0  0  0  0  0  0
    3.2975    0.0064    9.6465 H   0  0  0  0  0  0  0  0  0  0  0  0
    3.1620    0.6576    8.0096 H   0  0  0  0  0  0  0  0  0  0  0  0
    0.5691    0.6805    6.5575 H   0  0  0  0  0  0  0  0  0  0  0  0
    0.1694    0.1392    4.2061 H   0  0  0  0  0  0  0  0  0  0  0  0
   -2.7884   -0.3873    0.6032 H   0  0  0  0  0  0  0  0  0  0  0  0
   -0.2874   -4.9599    4.0208 H   0  0  0  0  0  0  0  0  0  0  0  0
   -4.0853   -5.5909    3.1641 H   0  0  0  0  0  0  0  0  0  0  0  0
    0.2879   -9.5989    5.1724 H   0  0  0  0  0  0  0  0  0  0  0  0
    0.7583  -11.9743    5.7878 H   0  0  0  0  0  0  0  0  0  0  0  0
   -4.0704  -13.0334    5.4306 H   0  0  0  0  0  0  0  0  0  0  0  0
   -4.5583  -10.7213    4.8374 H   0  0  0  0  0  0  0  0  0  0  0  0
  1  2  2  0  0  0  0
  2  3  1  0  0  0  0
  3  4  2  0  0  0  0
  3  5  1  0  0  0  0
  5  6  2  0  0  0  0
  6  7  1  0  0  0  0
  7  8  2  0  0  0  0
  8  9  1  0  0  0  0
  9 10  2  0  0  0  0
 10 11  1  0  0  0  0
 11 12  2  0  0  0  0
 12 13  1  0  0  0  0
 13 14  3  0  0  0  0
 12 15  1  0  0  0  0
 15 16  3  0  0  0  0
  8 17  1  0  0  0  0
 17 18  1  0  0  0  0
 18 19  1  0  0  0  0
 19 20  2  0  0  0  0
 20 21  1  0  0  0  0
 21 22  1  0  0  0  0
 21 23  1  0  0  0  0
  1 24  1  0  0  0  0
 24 25  2  0  0  0  0
 25 26  1  0  0  0  0
 26 27  1  0  0  0  0
 27 28  1  0  0  0  0
 28 29  2  0  0  0  0
 29 30  1  0  0  0  0
 30 31  2  0  0  0  0
 31 32  1  0  0  0  0
 32 33  1  0  0  0  0
 31 34  1  0  0  0  0
 34 35  2  0  0  0  0
 27 36  1  0  0  0  0
 36 37  2  0  0  0  0
 37 38  1  0  0  0  0
 38 39  2  0  0  0  0
 39 40  1  0  0  0  0
 40 41  1  0  0  0  0
 39 42  1  0  0  0  0
 42 43  2  0  0  0  0
 27 44  1  0  0  0  0
 44 45  2  0  0  0  0
 45 46  1  0  0  0  0
 46 47  1  0  0  0  0
 45 48  1  0  0  0  0
 48 49  2  0  0  0  0
 49 50  1  0  0  0  0
 50 51  1  0  0  0  0
 51 52  2  0  0  0  0
 52 53  1  0  0  0  0
 53 54  2  0  0  0  0
 54 55  1  0  0  0  0
 55 56  1  0  0  0  0
 54 57  1  0  0  0  0
 57 58  2  0  0  0  0
 50 59  1  0  0  0  0
 59 60  2  0  0  0  0
 60 61  1  0  0  0  0
 61 62  2  0  0  0  0
 62 63  1  0  0  0  0
 63 64  1  0  0  0  0
 62 65  1  0  0  0  0
 65 66  2  0  0  0  0
 50 67  1  0  0  0  0
 67 68  2  0  0  0  0
 68 69  1  0  0  0  0
 69 70  2  0  0  0  0
 68 71  1  0  0  0  0
 71 72  1  0  0  0  0
 72 73  2  0  0  0  0
 72 74  1  0  0  0  0
 74 75  2  0  0  0  0
 75 76  1  0  0  0  0
 76 77  2  0  0  0  0
 76 78  1  0  0  0  0
 78 79  2  0  0  0  0
 79 80  1  0  0  0  0
 80 81  2  0  0  0  0
 81 82  1  0  0  0  0
 82 83  1  0  0  0  0
 82 84  2  0  0  0  0
 84 85  1  0  0  0  0
 84 86  1  0  0  0  0
 86 87  2  0  0  0  0
 87 88  1  0  0  0  0
 88 89  2  0  0  0  0
 89 90  1  0  0  0  0
 90 91  2  0  0  0  0
 91 92  1  0  0  0  0
 92 93  3  0  0  0  0
 91 94  1  0  0  0  0
 94 95  3  0  0  0  0
 11  2  1  0  0  0  0
 23 17  1  0  0  0  0
 47 24  1  0  0  0  0
 69 49  1  0  0  0  0
 90 75  1  0  0  0  0
 10  5  1  0  0  0  0
 22 18  1  0  0  0  0
 46 26  2  0  0  0  0
 58 51  1  0  0  0  0
 66 59  1  0  0  0  0
 73 67  1  0  0  0  0
 89 78  1  0  0  0  0
 23  7  1  0  0  0  0
 35 28  1  0  0  0  0
 43 36  1  0  0  0  0
 70 44  1  0  0  0  0
 87 80  1  0  0  0  0
  1 96  1  0  0  0  0
  6 97  1  0  0  0  0
  9 98  1  0  0  0  0
 17 99  1  0  0  0  0
 18100  1  0  0  0  0
 19101  1  0  0  0  0
 20102  1  0  0  0  0
 21103  1  0  0  0  0
 22104  1  0  0  0  0
 22105  1  0  0  0  0
 23106  1  0  0  0  0
 25107  1  0  0  0  0
 29108  1  0  0  0  0
 30109  1  0  0  0  0
 32110  1  0  0  0  0
 32111  1  0  0  0  0
 33112  1  0  0  0  0
 33113  1  0  0  0  0
 33114  1  0  0  0  0
 34115  1  0  0  0  0
 35116  1  0  0  0  0
 37117  1  0  0  0  0
 38118  1  0  0  0  0
 40119  1  0  0  0  0
 40120  1  0  0  0  0
 41121  1  0  0  0  0
 41122  1  0  0  0  0
 41123  1  0  0  0  0
 42124  1  0  0  0  0
 43125  1  0  0  0  0
 48126  1  0  0  0  0
 52127  1  0  0  0  0
 53128  1  0  0  0  0
 55129  1  0  0  0  0
 55130  1  0  0  0  0
 56131  1  0  0  0  0
 56132  1  0  0  0  0
 56133  1  0  0  0  0
 57134  1  0  0  0  0
 58135  1  0  0  0  0
 60136  1  0  0  0  0
 61137  1  0  0  0  0
 63138  1  0  0  0  0
 63139  1  0  0  0  0
 64140  1  0  0  0  0
 64141  1  0  0  0  0
 64142  1  0  0  0  0
 65143  1  0  0  0  0
 66144  1  0  0  0  0
 70145  1  0  0  0  0
 73146  1  0  0  0  0
 74147  1  0  0  0  0
 79148  1  0  0  0  0
 81149  1  0  0  0  0
 86150  1  0  0  0  0
 88151  1  0  0  0  0
M  END
