101

C          6.12550       -0.86200        2.42000
C          5.70570       -0.65940        3.69800
C          6.64600       -0.13950        4.72550
O          7.85190       -0.07540        4.63790
C          5.78920        0.33180        5.83200
C          6.19110        1.00900        6.98210
C          5.15980        1.33500        7.82990
C          3.82220        1.01500        7.55890
C          3.41030        0.34080        6.43440
C          4.44510       -0.00150        5.56010
C          4.39890       -0.75540        4.31120
C          3.40440       -1.62310        3.93930
C          3.55900       -2.56110        2.89700
N          3.67490       -3.37120        2.09170
C          2.16330       -1.73920        4.59340
N          1.12290       -1.85360        5.06590
C          3.32690        1.65250        8.83280
C          2.66420        3.03990        8.70000
C          2.72520        3.60500       10.10070
C          3.99120        3.90700       10.35900
C          4.80720        3.55130        9.13710
C          3.78180        3.85580        8.03740
C          4.81770        2.00780        9.13660
C          5.34490       -0.93050        1.24180
C          5.70360       -1.50310        0.03110
C          6.98670       -2.21800       -0.23660
C          8.01270       -1.26500       -0.85540
C          4.69870       -1.33960       -0.92980
C          3.58140       -0.62520       -0.48070
S          3.76500       -0.14710        1.16450
C          2.60110       -0.51950       -1.46970
C          2.98840       -1.14370       -2.66070
S          4.55340       -1.87310       -2.58800
C          1.93980       -0.96200       -3.57540
C          1.83530       -1.27720       -4.94840
N          2.72250       -1.87610       -5.72730
S          2.13560       -1.92070       -7.23430
N          0.72590       -1.17780       -6.95310
C          0.66220       -0.87090       -5.66710
C         -0.40490       -0.28130       -4.95340
C         -1.70890        0.04900       -5.34690
S         -2.68960        0.02450       -6.77170
C         -4.05690        0.52430       -5.80600
C         -5.39800        0.73280       -6.10100
C         -6.13270        1.11180       -4.98970
S         -5.12200        1.22650       -3.55600
C         -3.74080        0.72020       -4.44930
C         -2.39640        0.44480       -4.19190
N         -1.56030        0.38880       -3.10880
C         -2.11850        0.40560       -1.77510
C         -2.42260        1.82370       -1.29540
C         -0.32320       -0.03690       -3.55110
C          0.90820       -0.26360       -2.88580
N          1.34470        0.01440       -1.59800
C          0.97730        1.11830       -0.73580
C          1.31720        2.45570       -1.39050
C         -7.49390        1.46450       -4.88680
C         -8.52980        1.13640       -5.71160
C         -9.76820        1.97080       -5.67440
O        -10.04130        2.81650       -4.85430
C        -10.52540        1.56260       -6.86610
C        -11.66620        1.93020       -7.50180
S        -11.92730        0.95680       -8.90200
C        -10.49390        0.03770       -8.62380
C         -9.84850        0.47410       -7.50910
C         -8.67480        0.11970       -6.73230
C         -8.02150       -1.08330       -6.82830
C         -7.06740       -1.54870       -5.90590
N         -6.31870       -1.98260       -5.15110
C         -8.33920       -2.00910       -7.84190
N         -8.58070       -2.76050       -8.67500
H          7.20180       -0.88820        2.28330
H          7.23150        1.23250        7.15870
H          2.37980        0.09860        6.23190
H          2.79820        0.99210        9.51740
H          1.69130        3.03530        8.21590
H          1.87820        3.67190       10.75780
H          4.41280        4.27670       11.27520
H          5.78670        4.01400        9.05130
H          4.06910        3.49610        7.05090
H          3.54010        4.91600        7.98250
H          5.28290        1.58480       10.02500
H          7.38060       -2.64330        0.68630
H          6.78800       -3.03350       -0.93460
H          8.23090       -0.44260       -0.17770
H          8.93660       -1.79800       -1.06240
H          7.63290       -0.85420       -1.78790
H         -5.81610        0.65510       -7.08800
H         -1.44150       -0.12350       -1.10380
H         -3.05630       -0.16040       -1.80420
H         -2.77180        1.79570       -0.26700
H         -1.54640        2.46340       -1.35470
H         -3.20450        2.26300       -1.90910
H          1.55370        1.00050        0.18510
H         -0.07560        1.08320       -0.47210
H          1.05650        3.27300       -0.72360
H          0.77280        2.57350       -2.32540
H          2.38200        2.51040       -1.60590
H         -7.75220        2.14280       -4.07880
H        -12.36620        2.69870       -7.24240
H        -10.22870       -0.74670       -9.30410
