
  xtb     02112201023D
 energy: -185.638177624290 gnorm: 0.000526305152 xtb: 6.4.1 (unknown)
105118  0     0  0            999 V2000
   -1.5415    1.6299    5.4295 C   0  0  0  0  0  0  0  0  0  0  0  0
   -2.5726    2.2846    6.0553 C   0  0  0  0  0  0  0  0  0  0  0  0
   -3.7601    2.8204    5.3968 C   0  0  0  0  0  0  0  0  0  0  0  0
   -3.9893    2.8440    4.1949 O   0  0  0  0  0  0  0  0  0  0  0  0
   -4.6411    3.3256    6.4604 C   0  0  0  0  0  0  0  0  0  0  0  0
   -5.9053    3.8902    6.3111 C   0  0  0  0  0  0  0  0  0  0  0  0
   -6.4975    4.2553    7.4966 C   0  0  0  0  0  0  0  0  0  0  0  0
   -5.8787    4.0692    8.7395 C   0  0  0  0  0  0  0  0  0  0  0  0
   -4.6316    3.5123    8.9004 C   0  0  0  0  0  0  0  0  0  0  0  0
   -4.0087    3.1376    7.7073 C   0  0  0  0  0  0  0  0  0  0  0  0
   -2.7036    2.5160    7.4802 C   0  0  0  0  0  0  0  0  0  0  0  0
   -1.7813    2.2315    8.4548 C   0  0  0  0  0  0  0  0  0  0  0  0
   -0.5153    1.6463    8.2456 C   0  0  0  0  0  0  0  0  0  0  0  0
    0.5300    1.1747    8.1691 N   0  0  0  0  0  0  0  0  0  0  0  0
   -1.9594    2.4983    9.8285 C   0  0  0  0  0  0  0  0  0  0  0  0
   -2.0280    2.6836   10.9597 N   0  0  0  0  0  0  0  0  0  0  0  0
   -7.0390    4.6645    9.4964 C   0  0  0  0  0  0  0  0  0  0  0  0
   -6.8877    6.1125   10.0248 C   0  0  0  0  0  0  0  0  0  0  0  0
   -5.8999    6.8004    9.1154 C   0  0  0  0  0  0  0  0  0  0  0  0
   -6.4870    6.9770    7.9394 C   0  0  0  0  0  0  0  0  0  0  0  0
   -7.8826    6.4113    8.0320 C   0  0  0  0  0  0  0  0  0  0  0  0
   -8.2016    6.7169    9.5042 C   0  0  0  0  0  0  0  0  0  0  0  0
   -7.7290    4.8721    8.1113 C   0  0  0  0  0  0  0  0  0  0  0  0
   -1.3341    1.3206    4.0764 C   0  0  0  0  0  0  0  0  0  0  0  0
   -2.4251    1.7735    2.5698 Se  0  0  0  0  0  2  0  0  0  0  0  0
   -1.1808    0.8429    1.5741 C   0  0  0  0  0  0  0  0  0  0  0  0
   -0.9540    0.4213    0.2577 C   0  0  0  0  0  0  0  0  0  0  0  0
   -1.7668    0.5686   -0.8846 C   0  0  0  0  0  0  0  0  0  0  0  0
   -1.3922   -0.0989   -2.0949 C   0  0  0  0  0  0  0  0  0  0  0  0
   -2.2826    0.0705   -3.0606 N   0  0  0  0  0  0  0  0  0  0  0  0
   -3.4843    0.9955   -2.4924 S   0  0  0  0  0  0  0  0  0  0  0  0
   -2.9172    1.2136   -0.9907 N   0  0  0  0  0  0  0  0  0  0  0  0
   -0.1565   -0.7824   -2.1317 C   0  0  0  0  0  0  0  0  0  0  0  0
    0.5080   -1.4229   -3.1859 C   0  0  0  0  0  0  0  0  0  0  0  0
    0.2424   -1.8290   -4.8427 S   0  0  0  0  0  0  0  0  0  0  0  0
    1.8461   -2.5288   -4.9146 C   0  0  0  0  0  0  0  0  0  0  0  0
    2.5739   -3.1453   -5.9442 C   0  0  0  0  0  0  0  0  0  0  0  0
    2.0237   -3.4914   -7.2858 C   0  0  0  0  0  0  0  0  0  0  0  0
    0.6000   -4.0389   -7.2306 C   0  0  0  0  0  0  0  0  0  0  0  0
    3.8443   -3.5064   -5.5057 C   0  0  0  0  0  0  0  0  0  0  0  0
    4.0986   -3.1380   -3.8002 S   0  0  0  0  0  0  0  0  0  0  0  0
    2.5317   -2.4331   -3.6942 C   0  0  0  0  0  0  0  0  0  0  0  0
    1.7631   -1.8117   -2.7053 C   0  0  0  0  0  0  0  0  0  0  0  0
    1.8909   -1.4506   -1.3906 N   0  0  0  0  0  0  0  0  0  0  0  0
    0.7118   -0.8406   -0.9999 C   0  0  0  0  0  0  0  0  0  0  0  0
    0.2495   -0.3340    0.2423 C   0  0  0  0  0  0  0  0  0  0  0  0
    0.7393   -0.3937    1.5399 N   0  0  0  0  0  0  0  0  0  0  0  0
   -0.1344    0.3060    2.3466 C   0  0  0  0  0  0  0  0  0  0  0  0
   -0.2126    0.5694    3.7038 C   0  0  0  0  0  0  0  0  0  0  0  0
    1.5520   -1.4294    2.1402 C   0  0  0  0  0  0  0  0  0  0  0  0
    0.8049   -2.7618    2.1705 C   0  0  0  0  0  0  0  0  0  0  0  0
    3.1996   -1.4362   -0.7764 C   0  0  0  0  0  0  0  0  0  0  0  0
    3.6369   -2.8238   -0.3099 C   0  0  0  0  0  0  0  0  0  0  0  0
    4.8909   -4.1970   -6.1528 C   0  0  0  0  0  0  0  0  0  0  0  0
    5.2509   -4.1184   -7.4695 C   0  0  0  0  0  0  0  0  0  0  0  0
    4.9458   -2.9834   -8.3671 C   0  0  0  0  0  0  0  0  0  0  0  0
    4.2431   -2.0193   -8.1411 O   0  0  0  0  0  0  0  0  0  0  0  0
    5.7857   -3.1978   -9.5651 C   0  0  0  0  0  0  0  0  0  0  0  0
    5.8793   -2.3952  -10.6831 C   0  0  0  0  0  0  0  0  0  0  0  0
    6.7569   -2.7833  -11.6977 C   0  0  0  0  0  0  0  0  0  0  0  0
    6.9516   -2.1055  -12.8486 O   0  0  0  0  0  0  0  0  0  0  0  0
    6.2334   -0.9116  -13.0656 C   0  0  0  0  0  0  0  0  0  0  0  0
    7.5105   -3.9572  -11.5500 C   0  0  0  0  0  0  0  0  0  0  0  0
    7.4114   -4.7528  -10.4272 C   0  0  0  0  0  0  0  0  0  0  0  0
    6.5373   -4.3742   -9.4142 C   0  0  0  0  0  0  0  0  0  0  0  0
    6.2074   -4.9834   -8.1359 C   0  0  0  0  0  0  0  0  0  0  0  0
    6.6457   -6.2005   -7.6811 C   0  0  0  0  0  0  0  0  0  0  0  0
    7.5650   -7.0153   -8.3727 C   0  0  0  0  0  0  0  0  0  0  0  0
    8.3144   -7.7183   -8.8850 N   0  0  0  0  0  0  0  0  0  0  0  0
    6.2106   -6.8141   -6.4884 C   0  0  0  0  0  0  0  0  0  0  0  0
    5.8816   -7.3827   -5.5461 N   0  0  0  0  0  0  0  0  0  0  0  0
   -0.7523    1.2579    6.0737 H   0  0  0  0  0  0  0  0  0  0  0  0
   -6.3466    4.0102    5.3341 H   0  0  0  0  0  0  0  0  0  0  0  0
   -4.1742    3.3718    9.8654 H   0  0  0  0  0  0  0  0  0  0  0  0
   -7.5257    4.0093   10.2161 H   0  0  0  0  0  0  0  0  0  0  0  0
   -6.6898    6.1851   11.0908 H   0  0  0  0  0  0  0  0  0  0  0  0
   -4.8879    7.0284    9.3945 H   0  0  0  0  0  0  0  0  0  0  0  0
   -6.0636    7.3821    7.0390 H   0  0  0  0  0  0  0  0  0  0  0  0
   -8.5916    6.7563    7.2840 H   0  0  0  0  0  0  0  0  0  0  0  0
   -8.2827    7.7842    9.7047 H   0  0  0  0  0  0  0  0  0  0  0  0
   -9.0901    6.2049    9.8712 H   0  0  0  0  0  0  0  0  0  0  0  0
   -8.6664    4.3512    7.9259 H   0  0  0  0  0  0  0  0  0  0  0  0
    2.6787   -4.2316   -7.7513 H   0  0  0  0  0  0  0  0  0  0  0  0
    2.0529   -2.5947   -7.9125 H   0  0  0  0  0  0  0  0  0  0  0  0
   -0.1086   -3.2720   -6.9320 H   0  0  0  0  0  0  0  0  0  0  0  0
    0.3132   -4.4018   -8.2144 H   0  0  0  0  0  0  0  0  0  0  0  0
    0.5362   -4.8658   -6.5266 H   0  0  0  0  0  0  0  0  0  0  0  0
    0.5017    0.2403    4.4406 H   0  0  0  0  0  0  0  0  0  0  0  0
    1.7735   -1.1076    3.1595 H   0  0  0  0  0  0  0  0  0  0  0  0
    2.4979   -1.5387    1.6187 H   0  0  0  0  0  0  0  0  0  0  0  0
    1.4200   -3.5251    2.6397 H   0  0  0  0  0  0  0  0  0  0  0  0
   -0.1180   -2.6625    2.7377 H   0  0  0  0  0  0  0  0  0  0  0  0
    0.5525   -3.0815    1.1613 H   0  0  0  0  0  0  0  0  0  0  0  0
    3.1989   -0.7069    0.0348 H   0  0  0  0  0  0  0  0  0  0  0  0
    3.9126   -1.0838   -1.5305 H   0  0  0  0  0  0  0  0  0  0  0  0
    4.5892   -2.7532    0.2085 H   0  0  0  0  0  0  0  0  0  0  0  0
    2.9043   -3.2734    0.3540 H   0  0  0  0  0  0  0  0  0  0  0  0
    3.7637   -3.4801   -1.1665 H   0  0  0  0  0  0  0  0  0  0  0  0
    5.4924   -4.8208   -5.5010 H   0  0  0  0  0  0  0  0  0  0  0  0
    5.2770   -1.5029  -10.7417 H   0  0  0  0  0  0  0  0  0  0  0  0
    6.5529   -0.5507  -14.0415 H   0  0  0  0  0  0  0  0  0  0  0  0
    5.1543   -1.0916  -13.0809 H   0  0  0  0  0  0  0  0  0  0  0  0
    6.4679   -0.1600  -12.3060 H   0  0  0  0  0  0  0  0  0  0  0  0
    8.1819   -4.2230  -12.3511 H   0  0  0  0  0  0  0  0  0  0  0  0
    8.0122   -5.6440  -10.3482 H   0  0  0  0  0  0  0  0  0  0  0  0
  1  2  2  0  0  0  0
  2  3  1  0  0  0  0
  3  4  2  0  0  0  0
  3  5  1  0  0  0  0
  5  6  2  0  0  0  0
  6  7  1  0  0  0  0
  7  8  2  0  0  0  0
  8  9  1  0  0  0  0
  9 10  2  0  0  0  0
 10 11  1  0  0  0  0
 11 12  2  0  0  0  0
 12 13  1  0  0  0  0
 13 14  3  0  0  0  0
 12 15  1  0  0  0  0
 15 16  3  0  0  0  0
  8 17  1  0  0  0  0
 17 18  1  0  0  0  0
 18 19  1  0  0  0  0
 19 20  2  0  0  0  0
 20 21  1  0  0  0  0
 21 22  1  0  0  0  0
 21 23  1  0  0  0  0
  1 24  1  0  0  0  0
 24 25  1  0  0  0  0
 25 26  1  0  0  0  0
 26 27  1  0  0  0  0
 27 28  1  0  0  0  0
 28 29  1  0  0  0  0
 29 30  2  0  0  0  0
 30 31  1  0  0  0  0
 31 32  1  0  0  0  0
 29 33  1  0  0  0  0
 33 34  1  0  0  0  0
 34 35  1  0  0  0  0
 35 36  1  0  0  0  0
 36 37  1  0  0  0  0
 37 38  1  0  0  0  0
 38 39  1  0  0  0  0
 37 40  2  0  0  0  0
 40 41  1  0  0  0  0
 41 42  1  0  0  0  0
 42 43  1  0  0  0  0
 43 44  1  0  0  0  0
 44 45  1  0  0  0  0
 45 46  1  0  0  0  0
 46 47  1  0  0  0  0
 47 48  1  0  0  0  0
 48 49  1  0  0  0  0
 47 50  1  0  0  0  0
 50 51  1  0  0  0  0
 44 52  1  0  0  0  0
 52 53  1  0  0  0  0
 40 54  1  0  0  0  0
 54 55  2  0  0  0  0
 55 56  1  0  0  0  0
 56 57  2  0  0  0  0
 56 58  1  0  0  0  0
 58 59  2  0  0  0  0
 59 60  1  0  0  0  0
 60 61  1  0  0  0  0
 61 62  1  0  0  0  0
 60 63  2  0  0  0  0
 63 64  1  0  0  0  0
 64 65  2  0  0  0  0
 65 66  1  0  0  0  0
 66 67  2  0  0  0  0
 67 68  1  0  0  0  0
 68 69  3  0  0  0  0
 67 70  1  0  0  0  0
 70 71  3  0  0  0  0
 11  2  1  0  0  0  0
 23 17  1  0  0  0  0
 49 24  2  0  0  0  0
 66 55  1  0  0  0  0
 10  5  1  0  0  0  0
 22 18  1  0  0  0  0
 48 26  2  0  0  0  0
 65 58  1  0  0  0  0
 23  7  1  0  0  0  0
 46 27  2  0  0  0  0
 32 28  2  0  0  0  0
 45 33  2  0  0  0  0
 43 34  2  0  0  0  0
 42 36  2  0  0  0  0
  1 72  1  0  0  0  0
  6 73  1  0  0  0  0
  9 74  1  0  0  0  0
 17 75  1  0  0  0  0
 18 76  1  0  0  0  0
 19 77  1  0  0  0  0
 20 78  1  0  0  0  0
 21 79  1  0  0  0  0
 22 80  1  0  0  0  0
 22 81  1  0  0  0  0
 23 82  1  0  0  0  0
 38 83  1  0  0  0  0
 38 84  1  0  0  0  0
 39 85  1  0  0  0  0
 39 86  1  0  0  0  0
 39 87  1  0  0  0  0
 49 88  1  0  0  0  0
 50 89  1  0  0  0  0
 50 90  1  0  0  0  0
 51 91  1  0  0  0  0
 51 92  1  0  0  0  0
 51 93  1  0  0  0  0
 52 94  1  0  0  0  0
 52 95  1  0  0  0  0
 53 96  1  0  0  0  0
 53 97  1  0  0  0  0
 53 98  1  0  0  0  0
 54 99  1  0  0  0  0
 59100  1  0  0  0  0
 62101  1  0  0  0  0
 62102  1  0  0  0  0
 62103  1  0  0  0  0
 63104  1  0  0  0  0
 64105  1  0  0  0  0
M  END
