110

C          5.19500        0.10090       -4.22440
C          5.25620        0.96990       -5.28060
C          4.14130        1.38500       -6.14540
O          3.08180        0.81540       -6.32160
C          4.55930        2.66350       -6.75150
C          3.77260        3.52790       -7.50870
C          4.40890        4.69320       -7.86450
C          5.73450        4.97350       -7.50710
C          6.52920        4.11930       -6.77940
C          5.89600        2.93380       -6.39510
C          6.38510        1.83210       -5.57040
C          7.68540        1.63090       -5.18460
C          8.13730        0.51350       -4.45290
N          8.57330       -0.37590       -3.87010
C          8.75310        2.49180       -5.51010
N          9.66360        3.15430       -5.73510
C          5.70420        6.33700       -8.15210
C          5.55030        7.54020       -7.19700
C          5.07100        8.65760       -8.09520
C          3.81660        8.39130       -8.43610
C          3.42720        7.08950       -7.77390
C          4.23860        7.20160       -6.47670
C          4.22710        6.02300       -8.55280
C          4.12510       -0.66600       -3.73530
S          2.62490       -0.95130       -4.62100
C          2.00650       -1.80120       -3.27720
C          0.78310       -2.35380       -2.84790
C         -0.43830       -2.63810       -3.50100
C         -1.53620       -3.17300       -2.73660
N         -2.59420       -3.43020       -3.48780
S         -2.24750       -3.03600       -5.01960
N         -0.73490       -2.51590       -4.78420
C         -1.41830       -3.25080       -1.32850
C         -2.37010       -3.37270       -0.30630
S         -4.07510       -3.61720       -0.12970
C         -3.92760       -3.21010        1.57160
C         -4.87180       -3.00750        2.56900
C         -6.32720       -3.28130        2.37330
C         -6.70700       -4.64870        2.94770
C         -4.27380       -2.53860        3.75230
S         -2.52000       -2.40810        3.60480
C         -2.60620       -2.94830        1.97210
C         -1.71870       -3.07230        0.90060
N         -0.39080       -2.84160        0.66750
C         -0.18340       -2.94130       -0.68920
C          0.95030       -2.65130       -1.47610
N          2.26780       -2.41590       -1.08870
C          2.90130       -1.85210       -2.19150
C          4.11880       -1.22540       -2.44350
C          5.24220       -1.07570       -1.46140
C          6.34890       -2.11150       -1.67750
C          2.96370       -3.37670       -0.24950
C          3.36110       -4.61810       -1.04820
C          0.46180       -2.26710        1.68350
C          0.83820       -3.28510        2.75810
C         -5.00850       -2.15420        4.87910
C         -4.61360       -1.52680        6.03540
C         -3.25510       -1.08580        6.36320
O         -2.22310       -1.33850        5.76340
C         -3.37640       -0.25720        7.57570
C         -2.39660        0.44980        8.23880
C         -2.74800        1.19850        9.36130
C         -1.71390        2.00390       10.08150
C         -4.07570        1.20300        9.77980
C         -5.06560        0.48850        9.11940
C         -4.71670       -0.25130        8.00100
C         -5.50380       -1.07680        7.08830
C         -6.83460       -1.37390        7.23740
C         -7.59040       -2.20630        6.38690
N         -8.26960       -2.87750        5.74730
C         -7.63510       -0.89670        8.29600
N         -8.34370       -0.54200        9.12700
H          6.08260        0.05750       -3.60660
H          2.75410        3.27530       -7.75890
H          7.54630        4.34830       -6.50740
H          6.43400        6.50950       -8.94040
H          6.42150        7.74670       -6.58120
H          5.69080        9.47120       -8.42340
H          3.17900        8.93790       -9.10600
H          2.36370        6.88520       -7.68340
H          3.89350        8.01870       -5.84510
H          4.27500        6.28270       -5.89430
H          3.97020        5.98480       -9.60950
H         -6.93830       -2.50940        2.84360
H         -6.53270       -3.27330        1.30090
H         -7.75960       -4.84450        2.76470
H         -6.11780       -5.43290        2.47800
H         -6.53570       -4.67760        4.02080
H          4.84220       -1.17090       -0.45070
H          5.67070       -0.07490       -1.53970
H          6.80580       -1.99160       -2.65620
H          7.12370       -1.98600       -0.92540
H          5.95480       -3.12170       -1.60200
H          2.30380       -3.67950        0.55980
H          3.84940       -2.90260        0.17540
H          3.98510       -4.34700       -1.89650
H          2.47340       -5.12210       -1.42530
H          3.91140       -5.30730       -0.41320
H         -0.08960       -1.44930        2.16110
H          1.34420       -1.84440        1.20180
H          1.54030       -2.83640        3.45470
H         -0.04580       -3.58690        3.31250
H          1.29150       -4.17550        2.32740
H         -6.06990       -2.33870        4.78070
H         -1.37720        0.42180        7.88360
H         -1.54680        2.94400        9.55450
H         -0.76640        1.47090       10.11800
H         -2.03220        2.23550       11.09450
H         -4.34790        1.78480       10.64850
H         -6.08070        0.52570        9.47900
