124

C         -0.81250       -4.70600        4.45610
C         -1.38080       -5.75080        3.77420
C         -1.76380       -5.75180        2.35990
O         -1.55020       -4.88140        1.53090
C         -2.47630       -7.01760        2.12430
C         -3.05690       -7.44390        0.93240
C         -3.66500       -8.67320        1.01580
C         -3.70020       -9.42020        2.20060
C         -3.13120       -9.01060        3.38340
C         -2.49830       -7.76660        3.31860
C         -1.77510       -7.02160        4.34840
C         -1.47640       -7.48700        5.60330
C         -1.88110       -8.74200        6.10430
N         -2.17420       -9.74500        6.58040
C         -0.68800       -6.82010        6.56440
N         -0.03600       -6.36980        7.39650
C         -4.46100      -10.55260        1.55790
C         -3.66800      -11.83000        1.18670
C         -2.24020      -11.39750        0.96330
C         -2.20200      -10.69140       -0.15880
C         -3.60360      -10.63360       -0.71430
C         -4.12800      -12.00800       -0.26900
C         -4.41820       -9.72170        0.23670
C         -0.39460       -3.44770        4.00420
C          0.14700       -2.49050        4.87780
C          0.31570       -2.69010        6.32530
C         -0.53450       -1.99480        7.17990
C         -0.43310       -2.15000        8.54850
C          0.52730       -2.99860        9.07170
C          1.38630       -3.67380        8.22530
C          1.29790       -3.53470        6.84680
C          2.30400       -4.21360        5.96170
C          3.47880       -3.27260        5.68580
C          0.45700       -1.30850        4.21700
S          1.14740        0.20790        4.76190
C          1.05010        0.79280        3.13580
C          1.37640        1.94030        2.39900
C          2.05110        3.12270        2.77530
C          2.36140        4.09470        1.76800
N          3.04370        5.12230        2.24840
S          3.27250        4.88860        3.83410
N          2.51020        3.46760        3.96800
C          1.87340        3.89610        0.45770
C          1.88490        4.73630       -0.66450
S          2.49650        6.28690       -1.12910
C          1.68360        6.11080       -2.66560
C          1.59430        6.94920       -3.78450
C          2.27730        8.24690       -3.91560
C          1.79490        9.39120       -3.27920
C          0.53610        9.36250       -2.45900
C         -0.69940        9.53900       -3.34390
C          2.47760       10.58600       -3.46470
C          3.61610       10.65020       -4.24530
C          4.10200        9.50570       -4.85350
C          3.43310        8.30890       -4.68980
C          0.81720        6.38200       -4.78220
S          0.20030        4.79460       -4.33030
C          0.98620        4.90240       -2.79560
C          1.11200        4.11100       -1.65020
N          0.64670        2.91050       -1.18540
C          1.11860        2.74050        0.10280
C          0.97870        1.69480        1.05190
N          0.46190        0.41090        0.97280
C          0.51320       -0.13090        2.23220
C          0.18040       -1.34510        2.83940
S         -0.49020       -2.85710        2.34750
C          0.43090       -0.50200       -0.15110
C          1.84600       -0.89330       -0.57140
C         -0.41070        2.22960       -1.89600
C          0.12160        1.41720       -3.07570
C          0.45170        6.93580       -6.03170
C         -0.31520        6.33130       -7.01950
C         -0.53730        7.14450       -8.11710
C          0.04950        8.39850       -7.99630
C         -0.01440        9.44190       -8.95440
C          0.53330       10.70430       -8.84320
C          1.24900       11.16690       -7.72470
N          1.83450       11.59600       -6.83440
C          0.39250       11.64470       -9.88480
N          0.28920       12.41930      -10.72440
C         -0.72410        9.14980      -10.14950
N         -1.29880        8.90480      -11.10940
S          0.90510        8.54810       -6.48140
H         -0.66420       -4.83800        5.52190
H         -3.01070       -6.83360        0.04400
H         -3.17110       -9.59670        4.28610
H         -5.43500      -10.77820        1.98730
H         -3.81570      -12.66580        1.86510
H         -1.44040      -11.59420        1.65300
H         -1.36350      -10.17980       -0.59400
H         -3.69250      -10.38090       -1.76770
H         -5.20680      -12.11550       -0.37330
H         -3.62560      -12.83320       -0.77140
H         -5.36450       -9.40710       -0.19940
H         -1.28410       -1.34050        6.75830
H         -1.10360       -1.61250        9.20210
H          0.60850       -3.13150       10.14000
H          2.13710       -4.33160        8.63600
H          2.66680       -5.11540        6.45700
H          1.85200       -4.50900        5.01340
H          4.21770       -3.76210        5.05550
H          3.13450       -2.37160        5.18220
H          3.95560       -2.97970        6.61820
H          0.56820       10.17290       -1.72880
H          0.45840        8.42020       -1.91320
H         -0.61140       10.44740       -3.93560
H         -1.59660        9.60550       -2.73260
H         -0.80980        8.69680       -4.02360
H          2.10400       11.48050       -2.98840
H          4.12270       11.59260       -4.38220
H          4.99580        9.54470       -5.45730
H          3.79800        7.40820       -5.16380
H         -0.11230       -1.38970        0.18200
H         -0.10730       -0.07830       -0.99250
H          1.80530       -1.59420       -1.40050
H          2.41330       -0.01540       -0.87550
H          2.36670       -1.36750        0.25720
H         -0.97320        1.61780       -1.19000
H         -1.09430        2.99510       -2.28090
H          0.90870        0.73510       -2.76660
H          0.52970        2.08450       -3.83010
H         -0.68580        0.84600       -3.52540
H         -0.69210        5.32830       -6.92330
H         -1.10740        6.85170       -8.98130
