
  xtb     02022201393D
 energy: -184.179115349676 gnorm: 0.000297901207 xtb: 6.4.1 (unknown)
104117  0     0  0            999 V2000
   -3.0286    3.3841    4.4541 C   0  0  0  0  0  0  0  0  0  0  0  0
   -3.7240    2.2951    4.9163 C   0  0  0  0  0  0  0  0  0  0  0  0
   -3.5101    0.8989    4.5268 C   0  0  0  0  0  0  0  0  0  0  0  0
   -2.7457    0.4728    3.6756 O   0  0  0  0  0  0  0  0  0  0  0  0
   -4.3944    0.0891    5.3804 C   0  0  0  0  0  0  0  0  0  0  0  0
   -4.5040   -1.2991    5.3971 C   0  0  0  0  0  0  0  0  0  0  0  0
   -5.4112   -1.7773    6.3118 C   0  0  0  0  0  0  0  0  0  0  0  0
   -6.1528   -0.9357    7.1512 C   0  0  0  0  0  0  0  0  0  0  0  0
   -6.0518    0.4355    7.1465 C   0  0  0  0  0  0  0  0  0  0  0  0
   -5.1371    0.9436    6.2203 C   0  0  0  0  0  0  0  0  0  0  0  0
   -4.7610    2.3263    5.9287 C   0  0  0  0  0  0  0  0  0  0  0  0
   -5.3303    3.4376    6.4973 C   0  0  0  0  0  0  0  0  0  0  0  0
   -5.0072    4.7762    6.1935 C   0  0  0  0  0  0  0  0  0  0  0  0
   -4.8131    5.8923    5.9991 N   0  0  0  0  0  0  0  0  0  0  0  0
   -6.3551    3.4048    7.4661 C   0  0  0  0  0  0  0  0  0  0  0  0
   -7.1871    3.4625    8.2553 N   0  0  0  0  0  0  0  0  0  0  0  0
   -6.8698   -2.0887    7.8069 C   0  0  0  0  0  0  0  0  0  0  0  0
   -8.3293   -2.3706    7.3722 C   0  0  0  0  0  0  0  0  0  0  0  0
   -8.4649   -1.8530    5.9617 C   0  0  0  0  0  0  0  0  0  0  0  0
   -7.7631   -2.6511    5.1682 C   0  0  0  0  0  0  0  0  0  0  0  0
   -7.1395   -3.7226    6.0280 C   0  0  0  0  0  0  0  0  0  0  0  0
   -8.2312   -3.8800    7.0985 C   0  0  0  0  0  0  0  0  0  0  0  0
   -6.0430   -3.0269    6.8722 C   0  0  0  0  0  0  0  0  0  0  0  0
   -2.0306    3.4870    3.4782 C   0  0  0  0  0  0  0  0  0  0  0  0
   -1.4047    4.6981    3.1443 C   0  0  0  0  0  0  0  0  0  0  0  0
   -1.7039    6.0360    3.7377 C   0  0  0  0  0  0  0  0  0  0  0  0
   -2.8928    6.6901    3.0300 C   0  0  0  0  0  0  0  0  0  0  0  0
   -0.4805    4.5348    2.1201 C   0  0  0  0  0  0  0  0  0  0  0  0
    0.6735    5.7553    1.2345 Se  0  0  0  0  0  2  0  0  0  0  0  0
    1.2035    4.2644    0.2573 C   0  0  0  0  0  0  0  0  0  0  0  0
    2.1052    3.9441   -0.7620 C   0  0  0  0  0  0  0  0  0  0  0  0
    3.0719    4.7520   -1.3967 C   0  0  0  0  0  0  0  0  0  0  0  0
    3.9528    4.1480   -2.3455 C   0  0  0  0  0  0  0  0  0  0  0  0
    4.8411    4.9993   -2.8335 N   0  0  0  0  0  0  0  0  0  0  0  0
    4.5834    6.4476   -2.1498 S   0  0  0  0  0  0  0  0  0  0  0  0
    3.3293    6.0366   -1.2080 N   0  0  0  0  0  0  0  0  0  0  0  0
    3.7550    2.7929   -2.6832 C   0  0  0  0  0  0  0  0  0  0  0  0
    4.3908    2.0158   -3.6571 C   0  0  0  0  0  0  0  0  0  0  0  0
    5.7625    2.1873   -4.8994 Se  0  0  0  0  0  2  0  0  0  0  0  0
    5.2936    0.4216   -5.3948 C   0  0  0  0  0  0  0  0  0  0  0  0
    5.8013   -0.4418   -6.3760 C   0  0  0  0  0  0  0  0  0  0  0  0
    6.9503   -0.0476   -7.2437 C   0  0  0  0  0  0  0  0  0  0  0  0
    8.2747   -0.5290   -6.6492 C   0  0  0  0  0  0  0  0  0  0  0  0
    5.1306   -1.6548   -6.3813 C   0  0  0  0  0  0  0  0  0  0  0  0
    3.8583   -1.7085   -5.1587 S   0  0  0  0  0  0  0  0  0  0  0  0
    4.2367   -0.1041   -4.6428 C   0  0  0  0  0  0  0  0  0  0  0  0
    3.7365    0.7784   -3.6764 C   0  0  0  0  0  0  0  0  0  0  0  0
    2.7459    0.7616   -2.7295 N   0  0  0  0  0  0  0  0  0  0  0  0
    2.7350    1.9938   -2.0947 C   0  0  0  0  0  0  0  0  0  0  0  0
    1.9592    2.5545   -1.0420 C   0  0  0  0  0  0  0  0  0  0  0  0
    1.0073    2.0478   -0.1748 N   0  0  0  0  0  0  0  0  0  0  0  0
    0.5540    3.0751    0.6108 C   0  0  0  0  0  0  0  0  0  0  0  0
   -0.3780    3.2155    1.6481 C   0  0  0  0  0  0  0  0  0  0  0  0
   -1.4302    2.1478    2.5022 S   0  0  0  0  0  0  0  0  0  0  0  0
    0.7290    0.6800    0.2023 C   0  0  0  0  0  0  0  0  0  0  0  0
    1.9716   -0.0062    0.7645 C   0  0  0  0  0  0  0  0  0  0  0  0
    1.7279   -0.2636   -2.7743 C   0  0  0  0  0  0  0  0  0  0  0  0
    0.4113    0.2820   -3.3221 C   0  0  0  0  0  0  0  0  0  0  0  0
    5.2961   -2.8003   -7.1956 C   0  0  0  0  0  0  0  0  0  0  0  0
    4.5165   -3.9512   -7.1592 C   0  0  0  0  0  0  0  0  0  0  0  0
    4.9010   -4.9118   -8.0771 C   0  0  0  0  0  0  0  0  0  0  0  0
    5.9936   -4.5313   -8.8470 C   0  0  0  0  0  0  0  0  0  0  0  0
    6.6023   -5.3036   -9.8682 C   0  0  0  0  0  0  0  0  0  0  0  0
    7.6789   -4.9432  -10.6538 C   0  0  0  0  0  0  0  0  0  0  0  0
    8.1804   -5.8191  -11.6386 C   0  0  0  0  0  0  0  0  0  0  0  0
    8.6004   -6.5190  -12.4442 N   0  0  0  0  0  0  0  0  0  0  0  0
    8.3540   -3.7142  -10.5541 C   0  0  0  0  0  0  0  0  0  0  0  0
    8.9300   -2.7216  -10.5043 N   0  0  0  0  0  0  0  0  0  0  0  0
    6.0345   -6.5847  -10.1006 C   0  0  0  0  0  0  0  0  0  0  0  0
    5.5711   -7.6162  -10.2812 N   0  0  0  0  0  0  0  0  0  0  0  0
    6.5392   -2.9364   -8.3972 S   0  0  0  0  0  0  0  0  0  0  0  0
   -3.2746    4.3325    4.9119 H   0  0  0  0  0  0  0  0  0  0  0  0
   -3.9102   -1.9101    4.7352 H   0  0  0  0  0  0  0  0  0  0  0  0
   -6.6258    1.0663    7.8041 H   0  0  0  0  0  0  0  0  0  0  0  0
   -6.7310   -2.1875    8.8817 H   0  0  0  0  0  0  0  0  0  0  0  0
   -9.0832   -2.0372    8.0801 H   0  0  0  0  0  0  0  0  0  0  0  0
   -8.9938   -0.9547    5.7021 H   0  0  0  0  0  0  0  0  0  0  0  0
   -7.5882   -2.5527    4.1127 H   0  0  0  0  0  0  0  0  0  0  0  0
   -6.8105   -4.6213    5.5126 H   0  0  0  0  0  0  0  0  0  0  0  0
   -7.9102   -4.4579    7.9641 H   0  0  0  0  0  0  0  0  0  0  0  0
   -9.1549   -4.2967    6.6998 H   0  0  0  0  0  0  0  0  0  0  0  0
   -5.3630   -3.7383    7.3370 H   0  0  0  0  0  0  0  0  0  0  0  0
   -1.9117    5.9601    4.8057 H   0  0  0  0  0  0  0  0  0  0  0  0
   -0.8192    6.6670    3.6040 H   0  0  0  0  0  0  0  0  0  0  0  0
   -3.7929    6.0939    3.1583 H   0  0  0  0  0  0  0  0  0  0  0  0
   -2.6873    6.7910    1.9661 H   0  0  0  0  0  0  0  0  0  0  0  0
   -3.0738    7.6761    3.4477 H   0  0  0  0  0  0  0  0  0  0  0  0
    6.9639    1.0456   -7.3062 H   0  0  0  0  0  0  0  0  0  0  0  0
    6.8314   -0.4466   -8.2524 H   0  0  0  0  0  0  0  0  0  0  0  0
    9.0972   -0.2410   -7.2971 H   0  0  0  0  0  0  0  0  0  0  0  0
    8.4266   -0.0845   -5.6675 H   0  0  0  0  0  0  0  0  0  0  0  0
    8.2822   -1.6114   -6.5459 H   0  0  0  0  0  0  0  0  0  0  0  0
   -0.0399    0.7172    0.9769 H   0  0  0  0  0  0  0  0  0  0  0  0
    0.3078    0.1287   -0.6385 H   0  0  0  0  0  0  0  0  0  0  0  0
    2.7902    0.0048    0.0481 H   0  0  0  0  0  0  0  0  0  0  0  0
    2.3023    0.5077    1.6640 H   0  0  0  0  0  0  0  0  0  0  0  0
    1.7404   -1.0362    1.0218 H   0  0  0  0  0  0  0  0  0  0  0  0
    2.0986   -1.0446   -3.4423 H   0  0  0  0  0  0  0  0  0  0  0  0
    1.5987   -0.7183   -1.7924 H   0  0  0  0  0  0  0  0  0  0  0  0
    0.0482    1.1123   -2.7207 H   0  0  0  0  0  0  0  0  0  0  0  0
    0.5520    0.6377   -4.3402 H   0  0  0  0  0  0  0  0  0  0  0  0
   -0.3407   -0.5022   -3.3306 H   0  0  0  0  0  0  0  0  0  0  0  0
    3.6922   -4.0662   -6.4779 H   0  0  0  0  0  0  0  0  0  0  0  0
    4.4125   -5.8628   -8.1971 H   0  0  0  0  0  0  0  0  0  0  0  0
  1  2  2  0  0  0  0
  2  3  1  0  0  0  0
  3  4  2  0  0  0  0
  3  5  1  0  0  0  0
  5  6  2  0  0  0  0
  6  7  1  0  0  0  0
  7  8  2  0  0  0  0
  8  9  1  0  0  0  0
  9 10  2  0  0  0  0
 10 11  1  0  0  0  0
 11 12  2  0  0  0  0
 12 13  1  0  0  0  0
 13 14  3  0  0  0  0
 12 15  1  0  0  0  0
 15 16  3  0  0  0  0
  8 17  1  0  0  0  0
 17 18  1  0  0  0  0
 18 19  1  0  0  0  0
 19 20  2  0  0  0  0
 20 21  1  0  0  0  0
 21 22  1  0  0  0  0
 21 23  1  0  0  0  0
  1 24  1  0  0  0  0
 24 25  2  0  0  0  0
 25 26  1  0  0  0  0
 26 27  1  0  0  0  0
 25 28  1  0  0  0  0
 28 29  1  0  0  0  0
 29 30  1  0  0  0  0
 30 31  1  0  0  0  0
 31 32  1  0  0  0  0
 32 33  1  0  0  0  0
 33 34  2  0  0  0  0
 34 35  1  0  0  0  0
 35 36  1  0  0  0  0
 33 37  1  0  0  0  0
 37 38  1  0  0  0  0
 38 39  1  0  0  0  0
 39 40  1  0  0  0  0
 40 41  1  0  0  0  0
 41 42  1  0  0  0  0
 42 43  1  0  0  0  0
 41 44  2  0  0  0  0
 44 45  1  0  0  0  0
 45 46  1  0  0  0  0
 46 47  1  0  0  0  0
 47 48  1  0  0  0  0
 48 49  1  0  0  0  0
 49 50  1  0  0  0  0
 50 51  1  0  0  0  0
 51 52  1  0  0  0  0
 52 53  1  0  0  0  0
 53 54  1  0  0  0  0
 51 55  1  0  0  0  0
 55 56  1  0  0  0  0
 48 57  1  0  0  0  0
 57 58  1  0  0  0  0
 44 59  1  0  0  0  0
 59 60  2  0  0  0  0
 60 61  1  0  0  0  0
 61 62  2  0  0  0  0
 62 63  1  0  0  0  0
 63 64  2  0  0  0  0
 64 65  1  0  0  0  0
 65 66  3  0  0  0  0
 64 67  1  0  0  0  0
 67 68  3  0  0  0  0
 63 69  1  0  0  0  0
 69 70  3  0  0  0  0
 62 71  1  0  0  0  0
 11  2  1  0  0  0  0
 23 17  1  0  0  0  0
 54 24  1  0  0  0  0
 71 59  1  0  0  0  0
 10  5  1  0  0  0  0
 22 18  1  0  0  0  0
 53 28  2  0  0  0  0
 23  7  1  0  0  0  0
 52 30  2  0  0  0  0
 50 31  2  0  0  0  0
 36 32  2  0  0  0  0
 49 37  2  0  0  0  0
 47 38  2  0  0  0  0
 46 40  2  0  0  0  0
  1 72  1  0  0  0  0
  6 73  1  0  0  0  0
  9 74  1  0  0  0  0
 17 75  1  0  0  0  0
 18 76  1  0  0  0  0
 19 77  1  0  0  0  0
 20 78  1  0  0  0  0
 21 79  1  0  0  0  0
 22 80  1  0  0  0  0
 22 81  1  0  0  0  0
 23 82  1  0  0  0  0
 26 83  1  0  0  0  0
 26 84  1  0  0  0  0
 27 85  1  0  0  0  0
 27 86  1  0  0  0  0
 27 87  1  0  0  0  0
 42 88  1  0  0  0  0
 42 89  1  0  0  0  0
 43 90  1  0  0  0  0
 43 91  1  0  0  0  0
 43 92  1  0  0  0  0
 55 93  1  0  0  0  0
 55 94  1  0  0  0  0
 56 95  1  0  0  0  0
 56 96  1  0  0  0  0
 56 97  1  0  0  0  0
 57 98  1  0  0  0  0
 57 99  1  0  0  0  0
 58100  1  0  0  0  0
 58101  1  0  0  0  0
 58102  1  0  0  0  0
 60103  1  0  0  0  0
 61104  1  0  0  0  0
M  END
