
  xtb     02112204223D
 energy: -192.423324723520 gnorm: 0.000566326408 xtb: 6.4.1 (unknown)
107120  0     0  0            999 V2000
   -0.5537   -5.2798    3.4766 C   0  0  0  0  0  0  0  0  0  0  0  0
   -1.6155   -5.1242    4.3142 C   0  0  0  0  0  0  0  0  0  0  0  0
   -2.1139   -6.3170    5.0555 C   0  0  0  0  0  0  0  0  0  0  0  0
   -1.5684   -7.3946    5.1328 O   0  0  0  0  0  0  0  0  0  0  0  0
   -3.4180   -5.9197    5.6170 C   0  0  0  0  0  0  0  0  0  0  0  0
   -4.3295   -6.7310    6.2901 C   0  0  0  0  0  0  0  0  0  0  0  0
   -5.4826   -6.0850    6.6672 C   0  0  0  0  0  0  0  0  0  0  0  0
   -5.7157   -4.7301    6.3945 C   0  0  0  0  0  0  0  0  0  0  0  0
   -4.8232   -3.9160    5.7393 C   0  0  0  0  0  0  0  0  0  0  0  0
   -3.6412   -4.5532    5.3503 C   0  0  0  0  0  0  0  0  0  0  0  0
   -2.4721   -4.0102    4.6589 C   0  0  0  0  0  0  0  0  0  0  0  0
   -2.1757   -2.6741    4.5604 C   0  0  0  0  0  0  0  0  0  0  0  0
   -0.9737   -2.1335    4.0644 C   0  0  0  0  0  0  0  0  0  0  0  0
   -0.0294   -1.5933    3.6966 N   0  0  0  0  0  0  0  0  0  0  0  0
   -3.0246   -1.6363    4.9978 C   0  0  0  0  0  0  0  0  0  0  0  0
   -3.6694   -0.7377    5.3067 N   0  0  0  0  0  0  0  0  0  0  0  0
   -7.0783   -4.7507    7.0399 C   0  0  0  0  0  0  0  0  0  0  0  0
   -8.2920   -4.7973    6.0877 C   0  0  0  0  0  0  0  0  0  0  0  0
   -9.4210   -5.2885    6.9647 C   0  0  0  0  0  0  0  0  0  0  0  0
   -9.2011   -6.5709    7.2247 C   0  0  0  0  0  0  0  0  0  0  0  0
   -7.9201   -6.9685    6.5272 C   0  0  0  0  0  0  0  0  0  0  0  0
   -8.0083   -6.0733    5.2843 C   0  0  0  0  0  0  0  0  0  0  0  0
   -6.8188   -6.2609    7.3456 C   0  0  0  0  0  0  0  0  0  0  0  0
   -0.0272   -4.4431    2.4611 C   0  0  0  0  0  0  0  0  0  0  0  0
    1.7256   -4.4988    2.2662 S   0  0  0  0  0  0  0  0  0  0  0  0
    1.6216   -3.2610    1.0961 C   0  0  0  0  0  0  0  0  0  0  0  0
    2.4805   -2.4641    0.3308 C   0  0  0  0  0  0  0  0  0  0  0  0
    3.8785   -2.5188    0.1381 C   0  0  0  0  0  0  0  0  0  0  0  0
    4.4787   -1.6302   -0.8138 C   0  0  0  0  0  0  0  0  0  0  0  0
    5.7799   -1.8327   -0.9460 N   0  0  0  0  0  0  0  0  0  0  0  0
    6.2145   -3.0341    0.0488 S   0  0  0  0  0  0  0  0  0  0  0  0
    4.7580   -3.3447    0.6820 N   0  0  0  0  0  0  0  0  0  0  0  0
    3.6729   -0.6438   -1.4253 C   0  0  0  0  0  0  0  0  0  0  0  0
    4.0092    0.4282   -2.2631 C   0  0  0  0  0  0  0  0  0  0  0  0
    5.3854    1.0700   -3.0850 S   0  0  0  0  0  0  0  0  0  0  0  0
    4.4002    2.3925   -3.6791 C   0  0  0  0  0  0  0  0  0  0  0  0
    4.6799    3.5151   -4.4679 C   0  0  0  0  0  0  0  0  0  0  0  0
    5.9734    3.7686   -5.1626 C   0  0  0  0  0  0  0  0  0  0  0  0
    6.5974    2.5116   -5.7621 C   0  0  0  0  0  0  0  0  0  0  0  0
    3.5428    4.3121   -4.6218 C   0  0  0  0  0  0  0  0  0  0  0  0
    2.1190    3.6069   -3.8495 S   0  0  0  0  0  0  0  0  0  0  0  0
    3.0669    2.3067   -3.2427 C   0  0  0  0  0  0  0  0  0  0  0  0
    2.8457    1.1856   -2.4418 C   0  0  0  0  0  0  0  0  0  0  0  0
    1.7989    0.6091   -1.7719 N   0  0  0  0  0  0  0  0  0  0  0  0
    2.2777   -0.5353   -1.1530 C   0  0  0  0  0  0  0  0  0  0  0  0
    1.6556   -1.5467   -0.3743 C   0  0  0  0  0  0  0  0  0  0  0  0
    0.3315   -1.8465   -0.1006 N   0  0  0  0  0  0  0  0  0  0  0  0
    0.3022   -2.8812    0.8078 C   0  0  0  0  0  0  0  0  0  0  0  0
   -0.6562   -3.5725    1.5770 C   0  0  0  0  0  0  0  0  0  0  0  0
   -2.1434   -3.5676    1.3857 C   0  0  0  0  0  0  0  0  0  0  0  0
   -2.5330   -4.4422    0.1879 C   0  0  0  0  0  0  0  0  0  0  0  0
   -0.8208   -1.4436   -0.8740 C   0  0  0  0  0  0  0  0  0  0  0  0
   -0.6379   -1.7453   -2.3606 C   0  0  0  0  0  0  0  0  0  0  0  0
    0.6315    1.4080   -1.4603 C   0  0  0  0  0  0  0  0  0  0  0  0
    0.5323    1.7029    0.0337 C   0  0  0  0  0  0  0  0  0  0  0  0
    3.3230    5.5007   -5.3357 C   0  0  0  0  0  0  0  0  0  0  0  0
    4.2112    6.5257   -5.5552 C   0  0  0  0  0  0  0  0  0  0  0  0
    5.3848    6.8143   -4.7073 C   0  0  0  0  0  0  0  0  0  0  0  0
    5.8012    6.1629   -3.7730 O   0  0  0  0  0  0  0  0  0  0  0  0
    5.8695    8.1412   -5.1499 C   0  0  0  0  0  0  0  0  0  0  0  0
    6.9393    8.8913   -4.6865 C   0  0  0  0  0  0  0  0  0  0  0  0
    7.9625    8.3055   -3.4432 Cl  0  0  0  0  0  0  0  0  0  0  0  0
    7.1832   10.1396   -5.2541 C   0  0  0  0  0  0  0  0  0  0  0  0
    6.3506   10.6063   -6.2573 C   0  0  0  0  0  0  0  0  0  0  0  0
    6.6953   12.3147   -7.0025 Br  0  0  0  0  0  0  0  0  0  0  0  0
    5.2712    9.8727   -6.7392 C   0  0  0  0  0  0  0  0  0  0  0  0
    5.0404    8.6308   -6.1763 C   0  0  0  0  0  0  0  0  0  0  0  0
    4.0122    7.6294   -6.4625 C   0  0  0  0  0  0  0  0  0  0  0  0
    3.0907    7.6942   -7.4760 C   0  0  0  0  0  0  0  0  0  0  0  0
    2.9472    8.7885   -8.3535 C   0  0  0  0  0  0  0  0  0  0  0  0
    2.7752    9.6493   -9.0932 N   0  0  0  0  0  0  0  0  0  0  0  0
    2.1852    6.6612   -7.7986 C   0  0  0  0  0  0  0  0  0  0  0  0
    1.4403    5.8562   -8.1389 N   0  0  0  0  0  0  0  0  0  0  0  0
   -0.0141   -6.2125    3.6249 H   0  0  0  0  0  0  0  0  0  0  0  0
   -4.1106   -7.7699    6.4807 H   0  0  0  0  0  0  0  0  0  0  0  0
   -5.0184   -2.8771    5.5317 H   0  0  0  0  0  0  0  0  0  0  0  0
   -7.2175   -4.0659    7.8740 H   0  0  0  0  0  0  0  0  0  0  0  0
   -8.4683   -3.8816    5.5299 H   0  0  0  0  0  0  0  0  0  0  0  0
  -10.2068   -4.6591    7.3390 H   0  0  0  0  0  0  0  0  0  0  0  0
   -9.7670   -7.2270    7.8596 H   0  0  0  0  0  0  0  0  0  0  0  0
   -7.7588   -8.0313    6.3689 H   0  0  0  0  0  0  0  0  0  0  0  0
   -7.0912   -6.0352    4.6989 H   0  0  0  0  0  0  0  0  0  0  0  0
   -8.8413   -6.3468    4.6387 H   0  0  0  0  0  0  0  0  0  0  0  0
   -6.7861   -6.5840    8.3842 H   0  0  0  0  0  0  0  0  0  0  0  0
    5.8076    4.5045   -5.9531 H   0  0  0  0  0  0  0  0  0  0  0  0
    6.6665    4.2179   -4.4439 H   0  0  0  0  0  0  0  0  0  0  0  0
    5.8846    2.0001   -6.4054 H   0  0  0  0  0  0  0  0  0  0  0  0
    6.9250    1.8237   -4.9883 H   0  0  0  0  0  0  0  0  0  0  0  0
    7.4630    2.7881   -6.3588 H   0  0  0  0  0  0  0  0  0  0  0  0
   -2.5115   -2.5462    1.2615 H   0  0  0  0  0  0  0  0  0  0  0  0
   -2.6306   -3.9840    2.2646 H   0  0  0  0  0  0  0  0  0  0  0  0
   -2.0177   -4.1426   -0.7212 H   0  0  0  0  0  0  0  0  0  0  0  0
   -3.6051   -4.3832    0.0155 H   0  0  0  0  0  0  0  0  0  0  0  0
   -2.2733   -5.4781    0.3939 H   0  0  0  0  0  0  0  0  0  0  0  0
   -1.0441   -0.3895   -0.7047 H   0  0  0  0  0  0  0  0  0  0  0  0
   -1.6717   -2.0100   -0.5062 H   0  0  0  0  0  0  0  0  0  0  0  0
   -0.4711   -2.8106   -2.5068 H   0  0  0  0  0  0  0  0  0  0  0  0
   -1.5324   -1.4576   -2.9072 H   0  0  0  0  0  0  0  0  0  0  0  0
    0.2121   -1.2126   -2.7776 H   0  0  0  0  0  0  0  0  0  0  0  0
   -0.2746    0.9343   -1.8414 H   0  0  0  0  0  0  0  0  0  0  0  0
    0.7480    2.3486   -2.0043 H   0  0  0  0  0  0  0  0  0  0  0  0
    0.4737    0.7902    0.6215 H   0  0  0  0  0  0  0  0  0  0  0  0
    1.4082    2.2581    0.3609 H   0  0  0  0  0  0  0  0  0  0  0  0
   -0.3507    2.3043    0.2322 H   0  0  0  0  0  0  0  0  0  0  0  0
    2.3094    5.6319   -5.6982 H   0  0  0  0  0  0  0  0  0  0  0  0
    8.0135   10.7352   -4.9099 H   0  0  0  0  0  0  0  0  0  0  0  0
    4.6464   10.2766   -7.5187 H   0  0  0  0  0  0  0  0  0  0  0  0
  1  2  2  0  0  0  0
  2  3  1  0  0  0  0
  3  4  2  0  0  0  0
  3  5  1  0  0  0  0
  5  6  2  0  0  0  0
  6  7  1  0  0  0  0
  7  8  2  0  0  0  0
  8  9  1  0  0  0  0
  9 10  2  0  0  0  0
 10 11  1  0  0  0  0
 11 12  2  0  0  0  0
 12 13  1  0  0  0  0
 13 14  3  0  0  0  0
 12 15  1  0  0  0  0
 15 16  3  0  0  0  0
  8 17  1  0  0  0  0
 17 18  1  0  0  0  0
 18 19  1  0  0  0  0
 19 20  2  0  0  0  0
 20 21  1  0  0  0  0
 21 22  1  0  0  0  0
 21 23  1  0  0  0  0
  1 24  1  0  0  0  0
 24 25  1  0  0  0  0
 25 26  1  0  0  0  0
 26 27  1  0  0  0  0
 27 28  1  0  0  0  0
 28 29  1  0  0  0  0
 29 30  2  0  0  0  0
 30 31  1  0  0  0  0
 31 32  1  0  0  0  0
 29 33  1  0  0  0  0
 33 34  1  0  0  0  0
 34 35  1  0  0  0  0
 35 36  1  0  0  0  0
 36 37  1  0  0  0  0
 37 38  1  0  0  0  0
 38 39  1  0  0  0  0
 37 40  2  0  0  0  0
 40 41  1  0  0  0  0
 41 42  1  0  0  0  0
 42 43  1  0  0  0  0
 43 44  1  0  0  0  0
 44 45  1  0  0  0  0
 45 46  1  0  0  0  0
 46 47  1  0  0  0  0
 47 48  1  0  0  0  0
 48 49  1  0  0  0  0
 49 50  1  0  0  0  0
 50 51  1  0  0  0  0
 47 52  1  0  0  0  0
 52 53  1  0  0  0  0
 44 54  1  0  0  0  0
 54 55  1  0  0  0  0
 40 56  1  0  0  0  0
 56 57  2  0  0  0  0
 57 58  1  0  0  0  0
 58 59  2  0  0  0  0
 58 60  1  0  0  0  0
 60 61  2  0  0  0  0
 61 62  1  0  0  0  0
 61 63  1  0  0  0  0
 63 64  2  0  0  0  0
 64 65  1  0  0  0  0
 64 66  1  0  0  0  0
 66 67  2  0  0  0  0
 67 68  1  0  0  0  0
 68 69  2  0  0  0  0
 69 70  1  0  0  0  0
 70 71  3  0  0  0  0
 69 72  1  0  0  0  0
 72 73  3  0  0  0  0
 11  2  1  0  0  0  0
 23 17  1  0  0  0  0
 49 24  2  0  0  0  0
 68 57  1  0  0  0  0
 10  5  1  0  0  0  0
 22 18  1  0  0  0  0
 48 26  2  0  0  0  0
 67 60  1  0  0  0  0
 23  7  1  0  0  0  0
 46 27  2  0  0  0  0
 32 28  2  0  0  0  0
 45 33  2  0  0  0  0
 43 34  2  0  0  0  0
 42 36  2  0  0  0  0
  1 74  1  0  0  0  0
  6 75  1  0  0  0  0
  9 76  1  0  0  0  0
 17 77  1  0  0  0  0
 18 78  1  0  0  0  0
 19 79  1  0  0  0  0
 20 80  1  0  0  0  0
 21 81  1  0  0  0  0
 22 82  1  0  0  0  0
 22 83  1  0  0  0  0
 23 84  1  0  0  0  0
 38 85  1  0  0  0  0
 38 86  1  0  0  0  0
 39 87  1  0  0  0  0
 39 88  1  0  0  0  0
 39 89  1  0  0  0  0
 50 90  1  0  0  0  0
 50 91  1  0  0  0  0
 51 92  1  0  0  0  0
 51 93  1  0  0  0  0
 51 94  1  0  0  0  0
 52 95  1  0  0  0  0
 52 96  1  0  0  0  0
 53 97  1  0  0  0  0
 53 98  1  0  0  0  0
 53 99  1  0  0  0  0
 54100  1  0  0  0  0
 54101  1  0  0  0  0
 55102  1  0  0  0  0
 55103  1  0  0  0  0
 55104  1  0  0  0  0
 56105  1  0  0  0  0
 63106  1  0  0  0  0
 66107  1  0  0  0  0
M  END
