
  xtb     02022205513D
 energy: -230.581992049504 gnorm: 0.000736365342 xtb: 6.4.1 (unknown)
130146  0     0  0            999 V2000
    4.5220    1.8680    4.8063 C   0  0  0  0  0  0  0  0  0  0  0  0
    4.6866    0.8130    5.6681 C   0  0  0  0  0  0  0  0  0  0  0  0
    3.8668   -0.3998    5.7162 C   0  0  0  0  0  0  0  0  0  0  0  0
    2.9001   -0.6699    5.0211 O   0  0  0  0  0  0  0  0  0  0  0  0
    4.4414   -1.2489    6.7725 C   0  0  0  0  0  0  0  0  0  0  0  0
    4.0048   -2.5123    7.1660 C   0  0  0  0  0  0  0  0  0  0  0  0
    4.7564   -3.0763    8.1689 C   0  0  0  0  0  0  0  0  0  0  0  0
    5.8640   -2.4322    8.7356 C   0  0  0  0  0  0  0  0  0  0  0  0
    6.3044   -1.1861    8.3575 C   0  0  0  0  0  0  0  0  0  0  0  0
    5.5509   -0.5911    7.3413 C   0  0  0  0  0  0  0  0  0  0  0  0
    5.7150    0.7049    6.6833 C   0  0  0  0  0  0  0  0  0  0  0  0
    6.6735    1.6344    6.9978 C   0  0  0  0  0  0  0  0  0  0  0  0
    7.6429    1.4711    8.0098 C   0  0  0  0  0  0  0  0  0  0  0  0
    8.4601    1.4172    8.8150 N   0  0  0  0  0  0  0  0  0  0  0  0
    6.8490    2.8956    6.3903 C   0  0  0  0  0  0  0  0  0  0  0  0
    7.0837    3.9394    5.9700 N   0  0  0  0  0  0  0  0  0  0  0  0
    6.1460   -3.5728    9.6809 C   0  0  0  0  0  0  0  0  0  0  0  0
    5.7149   -3.3733   11.1492 C   0  0  0  0  0  0  0  0  0  0  0  0
    5.6687   -4.7780   11.7058 C   0  0  0  0  0  0  0  0  0  0  0  0
    4.6196   -5.3894   11.1707 C   0  0  0  0  0  0  0  0  0  0  0  0
    3.9384   -4.4080   10.2442 C   0  0  0  0  0  0  0  0  0  0  0  0
    4.2128   -3.1000   10.9976 C   0  0  0  0  0  0  0  0  0  0  0  0
    4.9100   -4.2913    9.0504 C   0  0  0  0  0  0  0  0  0  0  0  0
    3.6087    2.0580    3.7624 C   0  0  0  0  0  0  0  0  0  0  0  0
    3.6209    3.2124    2.9563 C   0  0  0  0  0  0  0  0  0  0  0  0
    4.4116    4.4066    3.2346 C   0  0  0  0  0  0  0  0  0  0  0  0
    5.1497    5.0128    2.2201 C   0  0  0  0  0  0  0  0  0  0  0  0
    5.9020    6.1387    2.4852 C   0  0  0  0  0  0  0  0  0  0  0  0
    5.9309    6.6968    3.7579 C   0  0  0  0  0  0  0  0  0  0  0  0
    6.7192    7.9425    4.0325 C   0  0  0  0  0  0  0  0  0  0  0  0
    5.8537    9.1821    3.7946 C   0  0  0  0  0  0  0  0  0  0  0  0
    5.1690    6.1079    4.7595 C   0  0  0  0  0  0  0  0  0  0  0  0
    4.4197    4.9777    4.5069 C   0  0  0  0  0  0  0  0  0  0  0  0
    2.7597    3.0847    1.8682 C   0  0  0  0  0  0  0  0  0  0  0  0
    2.3791    4.1488    0.5285 S   0  0  0  0  0  0  0  0  0  0  0  0
    1.2604    2.9632   -0.0495 C   0  0  0  0  0  0  0  0  0  0  0  0
    0.4013    2.7585   -1.1361 C   0  0  0  0  0  0  0  0  0  0  0  0
    0.1993    3.5237   -2.3060 C   0  0  0  0  0  0  0  0  0  0  0  0
   -0.6402    2.9960   -3.3399 C   0  0  0  0  0  0  0  0  0  0  0  0
   -0.6947    3.7848   -4.4014 N   0  0  0  0  0  0  0  0  0  0  0  0
    0.2300    5.0841   -4.1207 S   0  0  0  0  0  0  0  0  0  0  0  0
    0.7354    4.6882   -2.6349 N   0  0  0  0  0  0  0  0  0  0  0  0
   -1.3264    1.7838   -3.1061 C   0  0  0  0  0  0  0  0  0  0  0  0
   -2.2726    1.1057   -3.8851 C   0  0  0  0  0  0  0  0  0  0  0  0
   -3.0080    1.2187   -5.4442 S   0  0  0  0  0  0  0  0  0  0  0  0
   -3.9699   -0.1928   -5.0672 C   0  0  0  0  0  0  0  0  0  0  0  0
   -4.9152   -0.9252   -5.7968 C   0  0  0  0  0  0  0  0  0  0  0  0
   -5.3071   -0.6540   -7.1706 C   0  0  0  0  0  0  0  0  0  0  0  0
   -5.4755    0.6583   -7.6138 C   0  0  0  0  0  0  0  0  0  0  0  0
   -5.8676    0.9096   -8.9121 C   0  0  0  0  0  0  0  0  0  0  0  0
   -6.0925   -0.1313   -9.8071 C   0  0  0  0  0  0  0  0  0  0  0  0
   -6.4798    0.1503  -11.2285 C   0  0  0  0  0  0  0  0  0  0  0  0
   -5.2311    0.3143  -12.0983 C   0  0  0  0  0  0  0  0  0  0  0  0
   -5.8961   -1.4363   -9.3703 C   0  0  0  0  0  0  0  0  0  0  0  0
   -5.5101   -1.7004   -8.0719 C   0  0  0  0  0  0  0  0  0  0  0  0
   -5.4100   -2.0051   -5.0565 C   0  0  0  0  0  0  0  0  0  0  0  0
   -4.6743   -2.0999   -3.4569 S   0  0  0  0  0  0  0  0  0  0  0  0
   -3.7151   -0.7051   -3.7868 C   0  0  0  0  0  0  0  0  0  0  0  0
   -2.7365    0.0306   -3.1168 C   0  0  0  0  0  0  0  0  0  0  0  0
   -2.0867   -0.0005   -1.9124 N   0  0  0  0  0  0  0  0  0  0  0  0
   -1.1979    1.0618   -1.8828 C   0  0  0  0  0  0  0  0  0  0  0  0
   -0.2341    1.4965   -0.9336 C   0  0  0  0  0  0  0  0  0  0  0  0
    0.2663    0.9452    0.2330 N   0  0  0  0  0  0  0  0  0  0  0  0
    1.1749    1.8230    0.7580 C   0  0  0  0  0  0  0  0  0  0  0  0
    2.0428    1.8782    1.8549 C   0  0  0  0  0  0  0  0  0  0  0  0
    2.4488    0.8620    3.1911 S   0  0  0  0  0  0  0  0  0  0  0  0
    0.2265   -0.4145    0.7242 C   0  0  0  0  0  0  0  0  0  0  0  0
    0.8262   -1.3924   -0.2827 C   0  0  0  0  0  0  0  0  0  0  0  0
   -2.6262   -0.7966   -0.8322 C   0  0  0  0  0  0  0  0  0  0  0  0
   -3.2713    0.0794    0.2388 C   0  0  0  0  0  0  0  0  0  0  0  0
   -6.4964   -2.8180   -5.4166 C   0  0  0  0  0  0  0  0  0  0  0  0
   -6.9298   -3.9820   -4.8403 C   0  0  0  0  0  0  0  0  0  0  0  0
   -8.3430   -4.3956   -4.9824 C   0  0  0  0  0  0  0  0  0  0  0  0
   -9.1669   -3.9514   -5.7489 O   0  0  0  0  0  0  0  0  0  0  0  0
   -8.5426   -5.4335   -3.9400 C   0  0  0  0  0  0  0  0  0  0  0  0
   -9.7098   -6.0678   -3.5650 C   0  0  0  0  0  0  0  0  0  0  0  0
   -9.6396   -6.9846   -2.5275 C   0  0  0  0  0  0  0  0  0  0  0  0
  -10.7501   -7.6177   -2.1272 F   0  0  0  0  0  0  0  0  0  0  0  0
   -8.4271   -7.2529   -1.8927 C   0  0  0  0  0  0  0  0  0  0  0  0
   -8.3941   -8.1329   -0.8844 F   0  0  0  0  0  0  0  0  0  0  0  0
   -7.2506   -6.6264   -2.2770 C   0  0  0  0  0  0  0  0  0  0  0  0
   -7.3154   -5.7071   -3.3103 C   0  0  0  0  0  0  0  0  0  0  0  0
   -6.2716   -4.9160   -3.9615 C   0  0  0  0  0  0  0  0  0  0  0  0
   -4.9293   -5.2014   -3.9471 C   0  0  0  0  0  0  0  0  0  0  0  0
   -4.0264   -4.6252   -4.8646 C   0  0  0  0  0  0  0  0  0  0  0  0
   -3.2890   -4.2136   -5.6425 N   0  0  0  0  0  0  0  0  0  0  0  0
   -4.3324   -6.1493   -3.0954 C   0  0  0  0  0  0  0  0  0  0  0  0
   -3.7967   -6.8867   -2.3972 N   0  0  0  0  0  0  0  0  0  0  0  0
    5.2198    2.6898    4.9110 H   0  0  0  0  0  0  0  0  0  0  0  0
    3.1510   -2.9747    6.6958 H   0  0  0  0  0  0  0  0  0  0  0  0
    7.1622   -0.7098    8.8012 H   0  0  0  0  0  0  0  0  0  0  0  0
    7.1250   -4.0382    9.5842 H   0  0  0  0  0  0  0  0  0  0  0  0
    6.3039   -2.6463   11.7015 H   0  0  0  0  0  0  0  0  0  0  0  0
    6.4111   -5.1863   12.3661 H   0  0  0  0  0  0  0  0  0  0  0  0
    4.3106   -6.4107   11.2950 H   0  0  0  0  0  0  0  0  0  0  0  0
    2.9083   -4.6247    9.9741 H   0  0  0  0  0  0  0  0  0  0  0  0
    3.7023   -3.0637   11.9585 H   0  0  0  0  0  0  0  0  0  0  0  0
    3.9804   -2.2023   10.4277 H   0  0  0  0  0  0  0  0  0  0  0  0
    5.0649   -5.2365    8.5334 H   0  0  0  0  0  0  0  0  0  0  0  0
    5.1512    4.5796    1.2309 H   0  0  0  0  0  0  0  0  0  0  0  0
    6.4835    6.5882    1.6931 H   0  0  0  0  0  0  0  0  0  0  0  0
    7.0667    7.9365    5.0669 H   0  0  0  0  0  0  0  0  0  0  0  0
    7.5915    7.9811    3.3776 H   0  0  0  0  0  0  0  0  0  0  0  0
    6.4247   10.0873    3.9871 H   0  0  0  0  0  0  0  0  0  0  0  0
    5.5008    9.2057    2.7658 H   0  0  0  0  0  0  0  0  0  0  0  0
    4.9874    9.1714    4.4522 H   0  0  0  0  0  0  0  0  0  0  0  0
    5.1700    6.5345    5.7514 H   0  0  0  0  0  0  0  0  0  0  0  0
    3.8143    4.5450    5.2907 H   0  0  0  0  0  0  0  0  0  0  0  0
   -5.3247    1.4777   -6.9273 H   0  0  0  0  0  0  0  0  0  0  0  0
   -6.0081    1.9302   -9.2373 H   0  0  0  0  0  0  0  0  0  0  0  0
   -7.0833   -0.6721  -11.6171 H   0  0  0  0  0  0  0  0  0  0  0  0
   -7.0740    1.0648  -11.2762 H   0  0  0  0  0  0  0  0  0  0  0  0
   -4.6222    1.1390  -11.7352 H   0  0  0  0  0  0  0  0  0  0  0  0
   -4.6300   -0.5917  -12.0725 H   0  0  0  0  0  0  0  0  0  0  0  0
   -5.5118    0.5163  -13.1291 H   0  0  0  0  0  0  0  0  0  0  0  0
   -6.0470   -2.2561  -10.0575 H   0  0  0  0  0  0  0  0  0  0  0  0
   -5.3231   -2.7169   -7.7584 H   0  0  0  0  0  0  0  0  0  0  0  0
    0.8233   -0.4309    1.6391 H   0  0  0  0  0  0  0  0  0  0  0  0
   -0.7905   -0.6924    1.0015 H   0  0  0  0  0  0  0  0  0  0  0  0
    0.7711   -2.4046    0.1081 H   0  0  0  0  0  0  0  0  0  0  0  0
    0.3040   -1.3534   -1.2360 H   0  0  0  0  0  0  0  0  0  0  0  0
    1.8710   -1.1475   -0.4588 H   0  0  0  0  0  0  0  0  0  0  0  0
   -3.3874   -1.4441   -1.2744 H   0  0  0  0  0  0  0  0  0  0  0  0
   -1.8596   -1.4476   -0.4126 H   0  0  0  0  0  0  0  0  0  0  0  0
   -2.5572    0.7885    0.6509 H   0  0  0  0  0  0  0  0  0  0  0  0
   -4.0985    0.6414   -0.1889 H   0  0  0  0  0  0  0  0  0  0  0  0
   -3.6549   -0.5419    1.0434 H   0  0  0  0  0  0  0  0  0  0  0  0
   -7.1475   -2.4137   -6.1865 H   0  0  0  0  0  0  0  0  0  0  0  0
  -10.6470   -5.8616   -4.0568 H   0  0  0  0  0  0  0  0  0  0  0  0
   -6.3350   -6.8627   -1.7593 H   0  0  0  0  0  0  0  0  0  0  0  0
  1  2  2  0  0  0  0
  2  3  1  0  0  0  0
  3  4  2  0  0  0  0
  3  5  1  0  0  0  0
  5  6  2  0  0  0  0
  6  7  1  0  0  0  0
  7  8  2  0  0  0  0
  8  9  1  0  0  0  0
  9 10  2  0  0  0  0
 10 11  1  0  0  0  0
 11 12  2  0  0  0  0
 12 13  1  0  0  0  0
 13 14  3  0  0  0  0
 12 15  1  0  0  0  0
 15 16  3  0  0  0  0
  8 17  1  0  0  0  0
 17 18  1  0  0  0  0
 18 19  1  0  0  0  0
 19 20  2  0  0  0  0
 20 21  1  0  0  0  0
 21 22  1  0  0  0  0
 21 23  1  0  0  0  0
  1 24  1  0  0  0  0
 24 25  2  0  0  0  0
 25 26  1  0  0  0  0
 26 27  2  0  0  0  0
 27 28  1  0  0  0  0
 28 29  2  0  0  0  0
 29 30  1  0  0  0  0
 30 31  1  0  0  0  0
 29 32  1  0  0  0  0
 32 33  2  0  0  0  0
 25 34  1  0  0  0  0
 34 35  1  0  0  0  0
 35 36  1  0  0  0  0
 36 37  1  0  0  0  0
 37 38  1  0  0  0  0
 38 39  1  0  0  0  0
 39 40  2  0  0  0  0
 40 41  1  0  0  0  0
 41 42  1  0  0  0  0
 39 43  1  0  0  0  0
 43 44  1  0  0  0  0
 44 45  1  0  0  0  0
 45 46  1  0  0  0  0
 46 47  1  0  0  0  0
 47 48  1  0  0  0  0
 48 49  2  0  0  0  0
 49 50  1  0  0  0  0
 50 51  2  0  0  0  0
 51 52  1  0  0  0  0
 52 53  1  0  0  0  0
 51 54  1  0  0  0  0
 54 55  2  0  0  0  0
 47 56  2  0  0  0  0
 56 57  1  0  0  0  0
 57 58  1  0  0  0  0
 58 59  1  0  0  0  0
 59 60  1  0  0  0  0
 60 61  1  0  0  0  0
 61 62  1  0  0  0  0
 62 63  1  0  0  0  0
 63 64  1  0  0  0  0
 64 65  1  0  0  0  0
 65 66  1  0  0  0  0
 63 67  1  0  0  0  0
 67 68  1  0  0  0  0
 60 69  1  0  0  0  0
 69 70  1  0  0  0  0
 56 71  1  0  0  0  0
 71 72  2  0  0  0  0
 72 73  1  0  0  0  0
 73 74  2  0  0  0  0
 73 75  1  0  0  0  0
 75 76  2  0  0  0  0
 76 77  1  0  0  0  0
 77 78  1  0  0  0  0
 77 79  2  0  0  0  0
 79 80  1  0  0  0  0
 79 81  1  0  0  0  0
 81 82  2  0  0  0  0
 82 83  1  0  0  0  0
 83 84  2  0  0  0  0
 84 85  1  0  0  0  0
 85 86  3  0  0  0  0
 84 87  1  0  0  0  0
 87 88  3  0  0  0  0
 11  2  1  0  0  0  0
 23 17  1  0  0  0  0
 66 24  1  0  0  0  0
 83 72  1  0  0  0  0
 10  5  1  0  0  0  0
 22 18  1  0  0  0  0
 33 26  1  0  0  0  0
 65 34  2  0  0  0  0
 82 75  1  0  0  0  0
 23  7  1  0  0  0  0
 64 36  2  0  0  0  0
 62 37  2  0  0  0  0
 42 38  2  0  0  0  0
 61 43  2  0  0  0  0
 59 44  2  0  0  0  0
 58 46  2  0  0  0  0
 55 48  1  0  0  0  0
  1 89  1  0  0  0  0
  6 90  1  0  0  0  0
  9 91  1  0  0  0  0
 17 92  1  0  0  0  0
 18 93  1  0  0  0  0
 19 94  1  0  0  0  0
 20 95  1  0  0  0  0
 21 96  1  0  0  0  0
 22 97  1  0  0  0  0
 22 98  1  0  0  0  0
 23 99  1  0  0  0  0
 27100  1  0  0  0  0
 28101  1  0  0  0  0
 30102  1  0  0  0  0
 30103  1  0  0  0  0
 31104  1  0  0  0  0
 31105  1  0  0  0  0
 31106  1  0  0  0  0
 32107  1  0  0  0  0
 33108  1  0  0  0  0
 49109  1  0  0  0  0
 50110  1  0  0  0  0
 52111  1  0  0  0  0
 52112  1  0  0  0  0
 53113  1  0  0  0  0
 53114  1  0  0  0  0
 53115  1  0  0  0  0
 54116  1  0  0  0  0
 55117  1  0  0  0  0
 67118  1  0  0  0  0
 67119  1  0  0  0  0
 68120  1  0  0  0  0
 68121  1  0  0  0  0
 68122  1  0  0  0  0
 69123  1  0  0  0  0
 69124  1  0  0  0  0
 70125  1  0  0  0  0
 70126  1  0  0  0  0
 70127  1  0  0  0  0
 71128  1  0  0  0  0
 76129  1  0  0  0  0
 81130  1  0  0  0  0
M  END
