101

C          5.47170        2.02790        0.86460
C          6.15060        0.85070        1.03110
C          5.70430       -0.50930        0.65230
O          4.59030       -0.88630        0.34130
C          6.91740       -1.34700        0.66630
C          7.00450       -2.68910        0.30270
C          8.27070       -3.21360        0.39750
C          9.37240       -2.45860        0.82250
C          9.29930       -1.13630        1.19060
C          8.01880       -0.58360        1.10060
C          7.55400        0.76760        1.39580
C          8.29400        1.75360        1.99450
C          7.80000        3.01690        2.38470
N          7.47210        4.05240        2.75800
C          9.65140        1.62360        2.35470
N         10.75530        1.58900        2.66860
C         10.32900       -3.61160        0.65350
C         11.24300       -3.61130       -0.59700
C         10.51910       -2.82180       -1.65930
C          9.47730       -3.53930       -2.05790
C          9.47770       -4.82710       -1.27180
C         10.99040       -5.04050       -1.10300
C          9.10150       -4.45430        0.18380
C          4.11440        2.24300        0.55370
Se         3.62610        3.94660       -0.19090
C          1.92190        3.25430       -0.29090
C          0.64210        3.59550       -0.74870
C          0.17780        4.72230       -1.46040
C         -1.18680        4.75570       -1.90080
N         -1.46060        5.84090       -2.60710
S         -0.12030        6.74370       -2.70550
N          0.86500        5.78380       -1.84950
C         -2.05990        3.72290       -1.48580
C         -3.44930        3.58670       -1.58480
S         -4.78570        4.41800       -2.29750
C         -5.86330        3.26100       -1.54030
C         -7.24370        3.13530       -1.55270
C         -8.13640        4.09360       -2.27020
C         -8.62480        5.19400       -1.32400
C         -7.66580        2.04510       -0.76760
S         -6.30530        1.18960       -0.03660
C         -5.19790        2.28240       -0.77700
C         -3.81360        2.46730       -0.82010
N         -2.69170        1.89010       -0.28340
C         -1.60040        2.62900       -0.69440
C         -0.21060        2.49800       -0.45110
N          0.54640        1.48970        0.11400
C          1.83750        1.94780        0.22660
C          3.02700        1.39880        0.69910
C          0.28130        0.06620        0.06380
C          1.13420       -0.63360       -0.99490
C         -2.79790        0.95000        0.81310
C         -3.24150       -0.43950        0.35720
C         -9.00850        1.70310       -0.60540
C         -9.60580        0.69640        0.11930
C         -8.92000       -0.30530        0.93340
O         -7.72100       -0.44040        1.10740
C         -9.98200       -1.15110        1.51770
C         -9.84860       -2.23110        2.36430
C        -11.01480       -2.86210        2.77680
Br       -10.89730       -4.35670        3.94470
C        -12.26450       -2.42780        2.35750
C        -12.38600       -1.34020        1.50460
C        -11.23590       -0.69290        1.07800
C        -11.03230        0.45810        0.19760
C        -12.03520        1.15560       -0.42770
C        -11.86330        2.26390       -1.28230
N        -11.80980        3.16980       -1.98770
C        -13.40680        0.85060       -0.30240
N        -14.53710        0.65720       -0.24510
H          6.06050        2.93850        0.91770
H          6.13090       -3.23350       -0.02080
H         10.15610       -0.56800        1.51170
H         10.85490       -3.93120        1.55090
H         12.27240       -3.32260       -0.40280
H         10.79740       -1.82920       -1.96160
H          8.71130       -3.26580       -2.75980
H          8.90040       -5.64660       -1.69200
H         11.49390       -5.24860       -2.04580
H         11.24170       -5.80970       -0.37400
H          8.82370       -5.32360        0.77680
H         -7.56460        4.54980       -3.08080
H         -8.99630        3.58160       -2.70430
H         -7.77980        5.73920       -0.90980
H         -9.20130        4.77050       -0.50490
H         -9.25820        5.88980       -1.86640
H          3.11110        0.43050        1.15520
H          0.47840       -0.36930        1.04860
H         -0.76290       -0.07850       -0.19260
H          0.82070       -1.67120       -1.07550
H          2.18950       -0.61400       -0.74050
H          0.99900       -0.15360       -1.96210
H         -3.54720        1.33810        1.51210
H         -1.84180        0.91610        1.33640
H         -2.64150       -0.80440       -0.47340
H         -3.15360       -1.13690        1.18520
H         -4.27980       -0.41990        0.03920
H         -9.68190        2.35330       -1.14660
H         -8.87460       -2.56410        2.68750
H        -13.15010       -2.94170        2.69830
H        -13.36680       -1.02160        1.19290
