
  xtb     02012219543D
 energy: -271.406869238897 gnorm: 0.000711242615 xtb: 6.4.1 (unknown)
168185  0     0  0            999 V2000
    5.6349    5.8072    1.9343 C   0  0  0  0  0  0  0  0  0  0  0  0
    6.7984    5.6878    1.2376 C   0  0  0  0  0  0  0  0  0  0  0  0
    8.0031    6.4495    1.6601 C   0  0  0  0  0  0  0  0  0  0  0  0
    8.0402    7.3649    2.4521 O   0  0  0  0  0  0  0  0  0  0  0  0
    9.1332    5.8157    0.9526 C   0  0  0  0  0  0  0  0  0  0  0  0
   10.4897    6.0992    1.1013 C   0  0  0  0  0  0  0  0  0  0  0  0
   11.3124    5.3323    0.3116 C   0  0  0  0  0  0  0  0  0  0  0  0
   10.8280    4.3411   -0.5530 C   0  0  0  0  0  0  0  0  0  0  0  0
    9.4942    4.0504   -0.7122 C   0  0  0  0  0  0  0  0  0  0  0  0
    8.6398    4.8327    0.0690 C   0  0  0  0  0  0  0  0  0  0  0  0
    7.1803    4.8566    0.1175 C   0  0  0  0  0  0  0  0  0  0  0  0
    6.3535    4.4258   -0.8885 C   0  0  0  0  0  0  0  0  0  0  0  0
    6.7898    3.7109   -2.0209 C   0  0  0  0  0  0  0  0  0  0  0  0
    7.0828    3.1158   -2.9583 N   0  0  0  0  0  0  0  0  0  0  0  0
    4.9817    4.7417   -0.9635 C   0  0  0  0  0  0  0  0  0  0  0  0
    3.8772    5.0233   -1.1046 N   0  0  0  0  0  0  0  0  0  0  0  0
   12.2090    3.9702   -1.0321 C   0  0  0  0  0  0  0  0  0  0  0  0
   12.6134    4.4946   -2.4263 C   0  0  0  0  0  0  0  0  0  0  0  0
   14.1223    4.4042   -2.4232 C   0  0  0  0  0  0  0  0  0  0  0  0
   14.5811    5.3466   -1.6095 C   0  0  0  0  0  0  0  0  0  0  0  0
   13.3899    6.0896   -1.0488 C   0  0  0  0  0  0  0  0  0  0  0  0
   12.4397    6.0087   -2.2506 C   0  0  0  0  0  0  0  0  0  0  0  0
   12.7492    5.0793   -0.0732 C   0  0  0  0  0  0  0  0  0  0  0  0
    4.5251    4.9340    1.9604 C   0  0  0  0  0  0  0  0  0  0  0  0
    3.2266    5.2724    2.3203 C   0  0  0  0  0  0  0  0  0  0  0  0
    2.3537    4.2027    2.2180 C   0  0  0  0  0  0  0  0  0  0  0  0
    0.8621    3.9733    2.3600 C   0  0  0  0  0  0  0  0  0  0  0  0
    0.4688    4.3399    3.7723 C   0  0  0  0  0  0  0  0  0  0  0  0
    0.2714    3.3673    4.7417 C   0  0  0  0  0  0  0  0  0  0  0  0
   -0.0223    3.7243    6.0459 C   0  0  0  0  0  0  0  0  0  0  0  0
   -0.1188    5.0584    6.4180 C   0  0  0  0  0  0  0  0  0  0  0  0
   -0.3995    5.4422    7.8421 C   0  0  0  0  0  0  0  0  0  0  0  0
    0.9067    5.5639    8.6295 C   0  0  0  0  0  0  0  0  0  0  0  0
    0.1018    6.0290    5.4486 C   0  0  0  0  0  0  0  0  0  0  0  0
    0.3979    5.6771    4.1459 C   0  0  0  0  0  0  0  0  0  0  0  0
    0.1210    4.7264    1.2594 C   0  0  0  0  0  0  0  0  0  0  0  0
   -1.0816    5.3751    1.4889 C   0  0  0  0  0  0  0  0  0  0  0  0
   -1.7403    6.0182    0.4564 C   0  0  0  0  0  0  0  0  0  0  0  0
   -1.2161    6.0344   -0.8283 C   0  0  0  0  0  0  0  0  0  0  0  0
   -1.9518    6.7002   -1.9553 C   0  0  0  0  0  0  0  0  0  0  0  0
   -2.8761    5.7010   -2.6539 C   0  0  0  0  0  0  0  0  0  0  0  0
   -0.0125    5.3789   -1.0538 C   0  0  0  0  0  0  0  0  0  0  0  0
    0.6463    4.7297   -0.0281 C   0  0  0  0  0  0  0  0  0  0  0  0
    0.7728    2.4943    2.0405 C   0  0  0  0  0  0  0  0  0  0  0  0
    2.0247    1.9985    1.7244 C   0  0  0  0  0  0  0  0  0  0  0  0
    2.9905    3.0216    1.8380 C   0  0  0  0  0  0  0  0  0  0  0  0
    4.6679    3.2232    1.5741 S   0  0  0  0  0  0  0  0  0  0  0  0
    2.0234    0.3507    1.2318 S   0  0  0  0  0  0  0  0  0  0  0  0
    0.2657    0.3027    1.3775 C   0  0  0  0  0  0  0  0  0  0  0  0
   -0.5524   -0.7741    1.0701 C   0  0  0  0  0  0  0  0  0  0  0  0
   -0.2066   -2.0100    0.6427 O   0  0  0  0  0  0  0  0  0  0  0  0
    1.0186   -2.2530   -0.0222 C   0  0  0  0  0  0  0  0  0  0  0  0
    1.1157   -1.5388   -1.3638 C   0  0  0  0  0  0  0  0  0  0  0  0
   -1.9407   -0.5854    1.2566 C   0  0  0  0  0  0  0  0  0  0  0  0
   -2.4602    0.6372    1.7739 C   0  0  0  0  0  0  0  0  0  0  0  0
   -1.6365    1.6959    2.1298 C   0  0  0  0  0  0  0  0  0  0  0  0
   -0.2554    1.5384    1.8685 C   0  0  0  0  0  0  0  0  0  0  0  0
   -2.0029    2.8630    2.7082 O   0  0  0  0  0  0  0  0  0  0  0  0
   -3.2620    2.9541    3.3548 C   0  0  0  0  0  0  0  0  0  0  0  0
   -3.2753    4.1702    4.2681 C   0  0  0  0  0  0  0  0  0  0  0  0
   -4.2260    0.6201    1.8150 S   0  0  0  0  0  0  0  0  0  0  0  0
   -4.2323   -0.9808    1.1812 C   0  0  0  0  0  0  0  0  0  0  0  0
   -5.2157   -1.9006    0.7617 C   0  0  0  0  0  0  0  0  0  0  0  0
   -4.5768   -3.0484    0.2715 C   0  0  0  0  0  0  0  0  0  0  0  0
   -3.0716   -2.9279    0.4460 C   0  0  0  0  0  0  0  0  0  0  0  0
   -2.9714   -1.5049    0.9577 C   0  0  0  0  0  0  0  0  0  0  0  0
   -2.3958   -3.1063   -0.9028 C   0  0  0  0  0  0  0  0  0  0  0  0
   -1.5103   -4.1366   -1.1793 C   0  0  0  0  0  0  0  0  0  0  0  0
   -0.9919   -4.2914   -2.4525 C   0  0  0  0  0  0  0  0  0  0  0  0
   -1.3375   -3.4245   -3.4806 C   0  0  0  0  0  0  0  0  0  0  0  0
   -0.7505   -3.5907   -4.8528 C   0  0  0  0  0  0  0  0  0  0  0  0
    0.6249   -2.9261   -4.9414 C   0  0  0  0  0  0  0  0  0  0  0  0
   -2.2054   -2.3785   -3.1926 C   0  0  0  0  0  0  0  0  0  0  0  0
   -2.7300   -2.2234   -1.9236 C   0  0  0  0  0  0  0  0  0  0  0  0
   -2.6400   -3.9415    1.4959 C   0  0  0  0  0  0  0  0  0  0  0  0
   -2.0004   -3.5672    2.6684 C   0  0  0  0  0  0  0  0  0  0  0  0
   -1.6497   -4.5145    3.6141 C   0  0  0  0  0  0  0  0  0  0  0  0
   -1.9344   -5.8586    3.4242 C   0  0  0  0  0  0  0  0  0  0  0  0
   -1.5191   -6.8867    4.4365 C   0  0  0  0  0  0  0  0  0  0  0  0
   -0.1054   -7.3906    4.1388 C   0  0  0  0  0  0  0  0  0  0  0  0
   -2.5782   -6.2305    2.2511 C   0  0  0  0  0  0  0  0  0  0  0  0
   -2.9302   -5.2890    1.3036 C   0  0  0  0  0  0  0  0  0  0  0  0
   -5.4556   -3.9645   -0.2670 C   0  0  0  0  0  0  0  0  0  0  0  0
   -6.7837   -3.5456   -0.1841 C   0  0  0  0  0  0  0  0  0  0  0  0
   -6.9106   -1.9608    0.5963 S   0  0  0  0  0  0  0  0  0  0  0  0
   -7.9898   -4.1093   -0.6209 C   0  0  0  0  0  0  0  0  0  0  0  0
   -8.2730   -5.2806   -1.2826 C   0  0  0  0  0  0  0  0  0  0  0  0
   -7.3511   -6.3597   -1.6926 C   0  0  0  0  0  0  0  0  0  0  0  0
   -6.1507   -6.4540   -1.5221 O   0  0  0  0  0  0  0  0  0  0  0  0
   -8.1900   -7.3690   -2.3692 C   0  0  0  0  0  0  0  0  0  0  0  0
   -7.7930   -8.5630   -2.9381 C   0  0  0  0  0  0  0  0  0  0  0  0
   -8.7427   -9.3843   -3.5344 C   0  0  0  0  0  0  0  0  0  0  0  0
   -8.3892  -10.6899   -4.1681 C   0  0  0  0  0  0  0  0  0  0  0  0
  -10.0682   -8.9466   -3.5222 C   0  0  0  0  0  0  0  0  0  0  0  0
  -10.9972   -9.7347   -4.0969 F   0  0  0  0  0  0  0  0  0  0  0  0
  -10.4910   -7.7539   -2.9583 C   0  0  0  0  0  0  0  0  0  0  0  0
   -9.5282   -6.9490   -2.3695 C   0  0  0  0  0  0  0  0  0  0  0  0
   -9.6140   -5.6527   -1.6997 C   0  0  0  0  0  0  0  0  0  0  0  0
  -10.7772   -4.9446   -1.5323 C   0  0  0  0  0  0  0  0  0  0  0  0
  -12.0404   -5.3874   -1.9795 C   0  0  0  0  0  0  0  0  0  0  0  0
  -13.1003   -5.6786   -2.3115 N   0  0  0  0  0  0  0  0  0  0  0  0
  -10.9251   -3.6870   -0.9102 C   0  0  0  0  0  0  0  0  0  0  0  0
  -11.1588   -2.6700   -0.4287 N   0  0  0  0  0  0  0  0  0  0  0  0
    5.5798    6.6601    2.6045 H   0  0  0  0  0  0  0  0  0  0  0  0
   10.8245    6.8644    1.7839 H   0  0  0  0  0  0  0  0  0  0  0  0
    9.1302    3.2795   -1.3714 H   0  0  0  0  0  0  0  0  0  0  0  0
   12.5122    2.9393   -0.8598 H   0  0  0  0  0  0  0  0  0  0  0  0
   12.0952    4.0237   -3.2570 H   0  0  0  0  0  0  0  0  0  0  0  0
   14.6796    3.6537   -2.9524 H   0  0  0  0  0  0  0  0  0  0  0  0
   15.5982    5.5405   -1.3232 H   0  0  0  0  0  0  0  0  0  0  0  0
   13.5811    7.0723   -0.6261 H   0  0  0  0  0  0  0  0  0  0  0  0
   12.8119    6.5675   -3.1076 H   0  0  0  0  0  0  0  0  0  0  0  0
   11.4188    6.3160   -2.0319 H   0  0  0  0  0  0  0  0  0  0  0  0
   13.4155    4.7893    0.7372 H   0  0  0  0  0  0  0  0  0  0  0  0
    2.9538    6.2763    2.5894 H   0  0  0  0  0  0  0  0  0  0  0  0
    0.3424    2.3220    4.4804 H   0  0  0  0  0  0  0  0  0  0  0  0
   -0.1807    2.9524    6.7861 H   0  0  0  0  0  0  0  0  0  0  0  0
   -1.0334    4.6872    8.3118 H   0  0  0  0  0  0  0  0  0  0  0  0
   -0.9273    6.3976    7.8709 H   0  0  0  0  0  0  0  0  0  0  0  0
    0.7047    5.8422    9.6612 H   0  0  0  0  0  0  0  0  0  0  0  0
    1.4420    4.6171    8.6231 H   0  0  0  0  0  0  0  0  0  0  0  0
    1.5477    6.3213    8.1841 H   0  0  0  0  0  0  0  0  0  0  0  0
    0.0417    7.0737    5.7185 H   0  0  0  0  0  0  0  0  0  0  0  0
    0.5676    6.4478    3.4086 H   0  0  0  0  0  0  0  0  0  0  0  0
   -1.5050    5.3793    2.4784 H   0  0  0  0  0  0  0  0  0  0  0  0
   -2.6768    6.5207    0.6569 H   0  0  0  0  0  0  0  0  0  0  0  0
   -1.2370    7.0954   -2.6797 H   0  0  0  0  0  0  0  0  0  0  0  0
   -2.5458    7.5322   -1.5714 H   0  0  0  0  0  0  0  0  0  0  0  0
   -3.6049    5.3039   -1.9507 H   0  0  0  0  0  0  0  0  0  0  0  0
   -2.2999    4.8698   -3.0540 H   0  0  0  0  0  0  0  0  0  0  0  0
   -3.4081    6.1811   -3.4720 H   0  0  0  0  0  0  0  0  0  0  0  0
    0.4230    5.3797   -2.0421 H   0  0  0  0  0  0  0  0  0  0  0  0
    1.5847    4.2394   -0.2390 H   0  0  0  0  0  0  0  0  0  0  0  0
    1.0103   -3.3348   -0.1766 H   0  0  0  0  0  0  0  0  0  0  0  0
    1.8715   -2.0035    0.6191 H   0  0  0  0  0  0  0  0  0  0  0  0
    0.2715   -1.8161   -1.9888 H   0  0  0  0  0  0  0  0  0  0  0  0
    2.0379   -1.8266   -1.8597 H   0  0  0  0  0  0  0  0  0  0  0  0
    1.1144   -0.4594   -1.2363 H   0  0  0  0  0  0  0  0  0  0  0  0
   -4.0634    3.0446    2.6110 H   0  0  0  0  0  0  0  0  0  0  0  0
   -3.4329    2.0505    3.9528 H   0  0  0  0  0  0  0  0  0  0  0  0
   -2.4160    4.1512    4.9325 H   0  0  0  0  0  0  0  0  0  0  0  0
   -4.1862    4.1568    4.8602 H   0  0  0  0  0  0  0  0  0  0  0  0
   -3.2523    5.0881    3.6890 H   0  0  0  0  0  0  0  0  0  0  0  0
   -1.2194   -4.8249   -0.4012 H   0  0  0  0  0  0  0  0  0  0  0  0
   -0.3108   -5.1067   -2.6521 H   0  0  0  0  0  0  0  0  0  0  0  0
   -1.4147   -3.1439   -5.5951 H   0  0  0  0  0  0  0  0  0  0  0  0
   -0.6494   -4.6537   -5.0816 H   0  0  0  0  0  0  0  0  0  0  0  0
    1.3066   -3.3675   -4.2177 H   0  0  0  0  0  0  0  0  0  0  0  0
    1.0446   -3.0546   -5.9363 H   0  0  0  0  0  0  0  0  0  0  0  0
    0.5471   -1.8613   -4.7334 H   0  0  0  0  0  0  0  0  0  0  0  0
   -2.4822   -1.6835   -3.9727 H   0  0  0  0  0  0  0  0  0  0  0  0
   -3.4140   -1.4099   -1.7252 H   0  0  0  0  0  0  0  0  0  0  0  0
   -1.7674   -2.5318    2.8581 H   0  0  0  0  0  0  0  0  0  0  0  0
   -1.1517   -4.1981    4.5199 H   0  0  0  0  0  0  0  0  0  0  0  0
   -2.2135   -7.7290    4.4144 H   0  0  0  0  0  0  0  0  0  0  0  0
   -1.5420   -6.4509    5.4374 H   0  0  0  0  0  0  0  0  0  0  0  0
    0.1967   -8.1335    4.8733 H   0  0  0  0  0  0  0  0  0  0  0  0
    0.6034   -6.5659    4.1661 H   0  0  0  0  0  0  0  0  0  0  0  0
   -0.0658   -7.8430    3.1504 H   0  0  0  0  0  0  0  0  0  0  0  0
   -2.8157   -7.2705    2.0783 H   0  0  0  0  0  0  0  0  0  0  0  0
   -3.4341   -5.6109    0.4061 H   0  0  0  0  0  0  0  0  0  0  0  0
   -5.1946   -4.8962   -0.7324 H   0  0  0  0  0  0  0  0  0  0  0  0
   -8.8457   -3.4828   -0.3998 H   0  0  0  0  0  0  0  0  0  0  0  0
   -6.7518   -8.8468   -2.9165 H   0  0  0  0  0  0  0  0  0  0  0  0
   -8.8873  -11.5065   -3.6457 H   0  0  0  0  0  0  0  0  0  0  0  0
   -8.7308  -10.7116   -5.2024 H   0  0  0  0  0  0  0  0  0  0  0  0
   -7.3159  -10.8541   -4.1418 H   0  0  0  0  0  0  0  0  0  0  0  0
  -11.5362   -7.4973   -2.9964 H   0  0  0  0  0  0  0  0  0  0  0  0
  1  2  2  0  0  0  0
  2  3  1  0  0  0  0
  3  4  2  0  0  0  0
  3  5  1  0  0  0  0
  5  6  2  0  0  0  0
  6  7  1  0  0  0  0
  7  8  2  0  0  0  0
  8  9  1  0  0  0  0
  9 10  2  0  0  0  0
 10 11  1  0  0  0  0
 11 12  2  0  0  0  0
 12 13  1  0  0  0  0
 13 14  3  0  0  0  0
 12 15  1  0  0  0  0
 15 16  3  0  0  0  0
  8 17  1  0  0  0  0
 17 18  1  0  0  0  0
 18 19  1  0  0  0  0
 19 20  2  0  0  0  0
 20 21  1  0  0  0  0
 21 22  1  0  0  0  0
 21 23  1  0  0  0  0
  1 24  1  0  0  0  0
 24 25  2  0  0  0  0
 25 26  1  0  0  0  0
 26 27  1  0  0  0  0
 27 28  1  0  0  0  0
 28 29  2  0  0  0  0
 29 30  1  0  0  0  0
 30 31  2  0  0  0  0
 31 32  1  0  0  0  0
 32 33  1  0  0  0  0
 31 34  1  0  0  0  0
 34 35  2  0  0  0  0
 27 36  1  0  0  0  0
 36 37  2  0  0  0  0
 37 38  1  0  0  0  0
 38 39  2  0  0  0  0
 39 40  1  0  0  0  0
 40 41  1  0  0  0  0
 39 42  1  0  0  0  0
 42 43  2  0  0  0  0
 27 44  1  0  0  0  0
 44 45  2  0  0  0  0
 45 46  1  0  0  0  0
 46 47  1  0  0  0  0
 45 48  1  0  0  0  0
 48 49  1  0  0  0  0
 49 50  2  0  0  0  0
 50 51  1  0  0  0  0
 51 52  1  0  0  0  0
 52 53  1  0  0  0  0
 50 54  1  0  0  0  0
 54 55  2  0  0  0  0
 55 56  1  0  0  0  0
 56 57  2  0  0  0  0
 56 58  1  0  0  0  0
 58 59  1  0  0  0  0
 59 60  1  0  0  0  0
 55 61  1  0  0  0  0
 61 62  1  0  0  0  0
 62 63  1  0  0  0  0
 63 64  2  0  0  0  0
 64 65  1  0  0  0  0
 65 66  1  0  0  0  0
 65 67  1  0  0  0  0
 67 68  2  0  0  0  0
 68 69  1  0  0  0  0
 69 70  2  0  0  0  0
 70 71  1  0  0  0  0
 71 72  1  0  0  0  0
 70 73  1  0  0  0  0
 73 74  2  0  0  0  0
 65 75  1  0  0  0  0
 75 76  2  0  0  0  0
 76 77  1  0  0  0  0
 77 78  2  0  0  0  0
 78 79  1  0  0  0  0
 79 80  1  0  0  0  0
 78 81  1  0  0  0  0
 81 82  2  0  0  0  0
 64 83  1  0  0  0  0
 83 84  2  0  0  0  0
 84 85  1  0  0  0  0
 84 86  1  0  0  0  0
 86 87  2  0  0  0  0
 87 88  1  0  0  0  0
 88 89  2  0  0  0  0
 88 90  1  0  0  0  0
 90 91  2  0  0  0  0
 91 92  1  0  0  0  0
 92 93  1  0  0  0  0
 92 94  2  0  0  0  0
 94 95  1  0  0  0  0
 94 96  1  0  0  0  0
 96 97  2  0  0  0  0
 97 98  1  0  0  0  0
 98 99  2  0  0  0  0
 99100  1  0  0  0  0
100101  3  0  0  0  0
 99102  1  0  0  0  0
102103  3  0  0  0  0
 11  2  1  0  0  0  0
 23 17  1  0  0  0  0
 47 24  1  0  0  0  0
 57 49  1  0  0  0  0
 66 62  2  0  0  0  0
 74 67  1  0  0  0  0
 82 75  1  0  0  0  0
 98 87  1  0  0  0  0
 10  5  1  0  0  0  0
 22 18  1  0  0  0  0
 46 26  2  0  0  0  0
 66 54  1  0  0  0  0
 97 90  1  0  0  0  0
 23  7  1  0  0  0  0
 35 28  1  0  0  0  0
 43 36  1  0  0  0  0
 57 44  1  0  0  0  0
 85 63  1  0  0  0  0
  1104  1  0  0  0  0
  6105  1  0  0  0  0
  9106  1  0  0  0  0
 17107  1  0  0  0  0
 18108  1  0  0  0  0
 19109  1  0  0  0  0
 20110  1  0  0  0  0
 21111  1  0  0  0  0
 22112  1  0  0  0  0
 22113  1  0  0  0  0
 23114  1  0  0  0  0
 25115  1  0  0  0  0
 29116  1  0  0  0  0
 30117  1  0  0  0  0
 32118  1  0  0  0  0
 32119  1  0  0  0  0
 33120  1  0  0  0  0
 33121  1  0  0  0  0
 33122  1  0  0  0  0
 34123  1  0  0  0  0
 35124  1  0  0  0  0
 37125  1  0  0  0  0
 38126  1  0  0  0  0
 40127  1  0  0  0  0
 40128  1  0  0  0  0
 41129  1  0  0  0  0
 41130  1  0  0  0  0
 41131  1  0  0  0  0
 42132  1  0  0  0  0
 43133  1  0  0  0  0
 52134  1  0  0  0  0
 52135  1  0  0  0  0
 53136  1  0  0  0  0
 53137  1  0  0  0  0
 53138  1  0  0  0  0
 59139  1  0  0  0  0
 59140  1  0  0  0  0
 60141  1  0  0  0  0
 60142  1  0  0  0  0
 60143  1  0  0  0  0
 68144  1  0  0  0  0
 69145  1  0  0  0  0
 71146  1  0  0  0  0
 71147  1  0  0  0  0
 72148  1  0  0  0  0
 72149  1  0  0  0  0
 72150  1  0  0  0  0
 73151  1  0  0  0  0
 74152  1  0  0  0  0
 76153  1  0  0  0  0
 77154  1  0  0  0  0
 79155  1  0  0  0  0
 79156  1  0  0  0  0
 80157  1  0  0  0  0
 80158  1  0  0  0  0
 80159  1  0  0  0  0
 81160  1  0  0  0  0
 82161  1  0  0  0  0
 83162  1  0  0  0  0
 86163  1  0  0  0  0
 91164  1  0  0  0  0
 93165  1  0  0  0  0
 93166  1  0  0  0  0
 93167  1  0  0  0  0
 96168  1  0  0  0  0
M  END
