
  xtb     02022208373D
 energy: -185.535962925227 gnorm: 0.000325391263 xtb: 6.4.1 (unknown)
104119  0     0  0            999 V2000
   -2.5867    0.8959   -7.4267 C   0  0  0  0  0  0  0  0  0  0  0  0
   -2.5312   -0.3846   -7.9230 C   0  0  0  0  0  0  0  0  0  0  0  0
   -2.0917   -1.5585   -7.1811 C   0  0  0  0  0  0  0  0  0  0  0  0
   -1.7077   -1.5959   -6.0159 O   0  0  0  0  0  0  0  0  0  0  0  0
   -2.1967   -2.7045   -8.0937 C   0  0  0  0  0  0  0  0  0  0  0  0
   -1.8798   -4.0334   -7.8218 C   0  0  0  0  0  0  0  0  0  0  0  0
   -2.0867   -4.8849   -8.8806 C   0  0  0  0  0  0  0  0  0  0  0  0
   -2.5832   -4.4479  -10.1154 C   0  0  0  0  0  0  0  0  0  0  0  0
   -2.9012   -3.1395  -10.3960 C   0  0  0  0  0  0  0  0  0  0  0  0
   -2.6874   -2.2540   -9.3372 C   0  0  0  0  0  0  0  0  0  0  0  0
   -2.8980   -0.8075   -9.2602 C   0  0  0  0  0  0  0  0  0  0  0  0
   -3.3584   -0.0200  -10.2838 C   0  0  0  0  0  0  0  0  0  0  0  0
   -3.6934   -0.4937  -11.5698 C   0  0  0  0  0  0  0  0  0  0  0  0
   -3.9831   -0.7997  -12.6380 N   0  0  0  0  0  0  0  0  0  0  0  0
   -3.5684    1.3737  -10.2235 C   0  0  0  0  0  0  0  0  0  0  0  0
   -3.7699    2.5041  -10.2661 N   0  0  0  0  0  0  0  0  0  0  0  0
   -2.5397   -5.8314  -10.7136 C   0  0  0  0  0  0  0  0  0  0  0  0
   -1.3844   -6.1567  -11.6921 C   0  0  0  0  0  0  0  0  0  0  0  0
   -0.2393   -5.2483  -11.3187 C   0  0  0  0  0  0  0  0  0  0  0  0
    0.2384   -5.6584  -10.1514 C   0  0  0  0  0  0  0  0  0  0  0  0
   -0.5745   -6.8520   -9.7145 C   0  0  0  0  0  0  0  0  0  0  0  0
   -0.8915   -7.4785  -11.0819 C   0  0  0  0  0  0  0  0  0  0  0  0
   -1.9795   -6.3176   -9.3397 C   0  0  0  0  0  0  0  0  0  0  0  0
   -2.2752    1.3962   -6.1564 C   0  0  0  0  0  0  0  0  0  0  0  0
   -2.4310    2.7544   -5.8650 C   0  0  0  0  0  0  0  0  0  0  0  0
   -2.1149    3.1183   -4.5707 C   0  0  0  0  0  0  0  0  0  0  0  0
   -2.2056    4.6779   -3.7699 S   0  0  0  0  0  0  0  0  0  0  0  0
   -1.6634    3.9247   -2.3122 C   0  0  0  0  0  0  0  0  0  0  0  0
   -1.4337    4.2497   -0.9687 C   0  0  0  0  0  0  0  0  0  0  0  0
   -1.6655    5.4483   -0.2591 C   0  0  0  0  0  0  0  0  0  0  0  0
   -1.4802    5.4573    1.1621 C   0  0  0  0  0  0  0  0  0  0  0  0
   -1.7930    6.6229    1.7065 N   0  0  0  0  0  0  0  0  0  0  0  0
   -2.2739    7.6247    0.5293 S   0  0  0  0  0  0  0  0  0  0  0  0
   -2.1038    6.6094   -0.7195 N   0  0  0  0  0  0  0  0  0  0  0  0
   -0.9563    4.3047    1.7863 C   0  0  0  0  0  0  0  0  0  0  0  0
   -0.5550    4.0837    3.1124 C   0  0  0  0  0  0  0  0  0  0  0  0
    0.0317    2.8175    3.1567 C   0  0  0  0  0  0  0  0  0  0  0  0
   -0.0111    2.2414    1.9156 N   0  0  0  0  0  0  0  0  0  0  0  0
    0.7926    1.0711    1.6567 C   0  0  0  0  0  0  0  0  0  0  0  0
    0.1027   -0.2130    2.1165 C   0  0  0  0  0  0  0  0  0  0  0  0
   -0.6364    3.1260    1.0529 C   0  0  0  0  0  0  0  0  0  0  0  0
   -0.9925    3.0572   -0.3204 C   0  0  0  0  0  0  0  0  0  0  0  0
   -0.9853    2.0338   -1.2536 N   0  0  0  0  0  0  0  0  0  0  0  0
   -1.4064    2.5570   -2.4510 C   0  0  0  0  0  0  0  0  0  0  0  0
   -1.6720    2.0723   -3.7337 C   0  0  0  0  0  0  0  0  0  0  0  0
   -1.6447    0.4396   -4.6401 Se  0  0  0  0  0  2  0  0  0  0  0  0
   -1.0875    0.6019   -1.0860 C   0  0  0  0  0  0  0  0  0  0  0  0
   -2.5168    0.1931   -0.7360 C   0  0  0  0  0  0  0  0  0  0  0  0
    0.5361    2.5084    4.4288 C   0  0  0  0  0  0  0  0  0  0  0  0
    0.3055    3.5503    5.3333 C   0  0  0  0  0  0  0  0  0  0  0  0
   -0.5214    4.9171    4.6263 S   0  0  0  0  0  0  0  0  0  0  0  0
    0.7534    3.3357    6.6456 C   0  0  0  0  0  0  0  0  0  0  0  0
    1.3961    2.1431    6.8467 C   0  0  0  0  0  0  0  0  0  0  0  0
    1.4422    1.1026    5.2594 Se  0  0  0  0  0  2  0  0  0  0  0  0
    1.8314    1.6247    8.1282 C   0  0  0  0  0  0  0  0  0  0  0  0
    1.0091    1.8415    9.2242 C   0  0  0  0  0  0  0  0  0  0  0  0
    1.3011    1.3068   10.4724 C   0  0  0  0  0  0  0  0  0  0  0  0
    2.4224    0.5209   10.6521 C   0  0  0  0  0  0  0  0  0  0  0  0
    2.6852   -0.0772   11.9690 C   0  0  0  0  0  0  0  0  0  0  0  0
    1.9529    0.0897   12.9237 O   0  0  0  0  0  0  0  0  0  0  0  0
    3.8218   -0.8626   12.0742 N   0  0  0  0  0  0  0  0  0  0  0  0
    4.0916   -1.4670   13.3752 C   0  0  0  0  0  0  0  0  0  0  0  0
    4.9282   -0.5402   14.2476 C   0  0  0  0  0  0  0  0  0  0  0  0
    4.7475   -1.0875   11.0710 C   0  0  0  0  0  0  0  0  0  0  0  0
    5.7300   -1.7729   11.2711 O   0  0  0  0  0  0  0  0  0  0  0  0
    4.4694   -0.4644    9.7643 C   0  0  0  0  0  0  0  0  0  0  0  0
    5.3655   -0.6384    8.7306 C   0  0  0  0  0  0  0  0  0  0  0  0
    5.1349   -0.0290    7.4973 C   0  0  0  0  0  0  0  0  0  0  0  0
    4.0002    0.7139    7.2890 C   0  0  0  0  0  0  0  0  0  0  0  0
    3.0357    0.8786    8.3023 C   0  0  0  0  0  0  0  0  0  0  0  0
    3.3046    0.3073    9.5746 C   0  0  0  0  0  0  0  0  0  0  0  0
   -2.9331    1.6642   -8.1087 H   0  0  0  0  0  0  0  0  0  0  0  0
   -1.5075   -4.3277   -6.8530 H   0  0  0  0  0  0  0  0  0  0  0  0
   -3.2830   -2.8236  -11.3521 H   0  0  0  0  0  0  0  0  0  0  0  0
   -3.4931   -6.2360  -11.0471 H   0  0  0  0  0  0  0  0  0  0  0  0
   -1.6695   -6.1636  -12.7406 H   0  0  0  0  0  0  0  0  0  0  0  0
    0.0589   -4.3929  -11.8961 H   0  0  0  0  0  0  0  0  0  0  0  0
    1.0159   -5.2136   -9.5582 H   0  0  0  0  0  0  0  0  0  0  0  0
   -0.1204   -7.4931   -8.9634 H   0  0  0  0  0  0  0  0  0  0  0  0
   -0.0063   -7.8687  -11.5818 H   0  0  0  0  0  0  0  0  0  0  0  0
   -1.6596   -8.2495  -11.0386 H   0  0  0  0  0  0  0  0  0  0  0  0
   -2.5633   -7.0449   -8.7788 H   0  0  0  0  0  0  0  0  0  0  0  0
   -2.7824    3.4540   -6.6047 H   0  0  0  0  0  0  0  0  0  0  0  0
    1.0600    1.0459    0.5992 H   0  0  0  0  0  0  0  0  0  0  0  0
    1.7263    1.1839    2.2251 H   0  0  0  0  0  0  0  0  0  0  0  0
    0.6898   -1.0774    1.8181 H   0  0  0  0  0  0  0  0  0  0  0  0
   -0.8977   -0.3011    1.7013 H   0  0  0  0  0  0  0  0  0  0  0  0
    0.0156   -0.2169    3.2024 H   0  0  0  0  0  0  0  0  0  0  0  0
   -0.8026    0.1489   -2.0443 H   0  0  0  0  0  0  0  0  0  0  0  0
   -0.4005    0.2433   -0.3288 H   0  0  0  0  0  0  0  0  0  0  0  0
   -3.1972    0.4831   -1.5338 H   0  0  0  0  0  0  0  0  0  0  0  0
   -2.5735   -0.8845   -0.6102 H   0  0  0  0  0  0  0  0  0  0  0  0
   -2.8375    0.6769    0.1849 H   0  0  0  0  0  0  0  0  0  0  0  0
    0.6355    4.0707    7.4227 H   0  0  0  0  0  0  0  0  0  0  0  0
    0.0999    2.4088    9.0936 H   0  0  0  0  0  0  0  0  0  0  0  0
    0.6429    1.4727   11.3118 H   0  0  0  0  0  0  0  0  0  0  0  0
    4.6237   -2.4027   13.1954 H   0  0  0  0  0  0  0  0  0  0  0  0
    3.1278   -1.6650   13.8475 H   0  0  0  0  0  0  0  0  0  0  0  0
    5.8841   -0.3377   13.7703 H   0  0  0  0  0  0  0  0  0  0  0  0
    4.4025    0.3981   14.4086 H   0  0  0  0  0  0  0  0  0  0  0  0
    5.1099   -1.0091   15.2105 H   0  0  0  0  0  0  0  0  0  0  0  0
    6.2493   -1.2336    8.9032 H   0  0  0  0  0  0  0  0  0  0  0  0
    5.8609   -0.1370    6.7058 H   0  0  0  0  0  0  0  0  0  0  0  0
    3.8645    1.2087    6.3375 H   0  0  0  0  0  0  0  0  0  0  0  0
  1  2  2  0  0  0  0
  2  3  1  0  0  0  0
  3  4  2  0  0  0  0
  3  5  1  0  0  0  0
  5  6  2  0  0  0  0
  6  7  1  0  0  0  0
  7  8  2  0  0  0  0
  8  9  1  0  0  0  0
  9 10  2  0  0  0  0
 10 11  1  0  0  0  0
 11 12  2  0  0  0  0
 12 13  1  0  0  0  0
 13 14  3  0  0  0  0
 12 15  1  0  0  0  0
 15 16  3  0  0  0  0
  8 17  1  0  0  0  0
 17 18  1  0  0  0  0
 18 19  1  0  0  0  0
 19 20  2  0  0  0  0
 20 21  1  0  0  0  0
 21 22  1  0  0  0  0
 21 23  1  0  0  0  0
  1 24  1  0  0  0  0
 24 25  2  0  0  0  0
 25 26  1  0  0  0  0
 26 27  1  0  0  0  0
 27 28  1  0  0  0  0
 28 29  1  0  0  0  0
 29 30  1  0  0  0  0
 30 31  1  0  0  0  0
 31 32  2  0  0  0  0
 32 33  1  0  0  0  0
 33 34  1  0  0  0  0
 31 35  1  0  0  0  0
 35 36  1  0  0  0  0
 36 37  2  0  0  0  0
 37 38  1  0  0  0  0
 38 39  1  0  0  0  0
 39 40  1  0  0  0  0
 38 41  1  0  0  0  0
 41 42  1  0  0  0  0
 42 43  1  0  0  0  0
 43 44  1  0  0  0  0
 44 45  1  0  0  0  0
 45 46  1  0  0  0  0
 43 47  1  0  0  0  0
 47 48  1  0  0  0  0
 37 49  1  0  0  0  0
 49 50  2  0  0  0  0
 50 51  1  0  0  0  0
 50 52  1  0  0  0  0
 52 53  2  0  0  0  0
 53 54  1  0  0  0  0
 53 55  1  0  0  0  0
 55 56  2  0  0  0  0
 56 57  1  0  0  0  0
 57 58  2  0  0  0  0
 58 59  1  0  0  0  0
 59 60  2  0  0  0  0
 59 61  1  0  0  0  0
 61 62  1  0  0  0  0
 62 63  1  0  0  0  0
 61 64  1  0  0  0  0
 64 65  2  0  0  0  0
 64 66  1  0  0  0  0
 66 67  1  0  0  0  0
 67 68  2  0  0  0  0
 68 69  1  0  0  0  0
 69 70  2  0  0  0  0
 70 71  1  0  0  0  0
 11  2  1  0  0  0  0
 23 17  1  0  0  0  0
 46 24  1  0  0  0  0
 54 49  1  0  0  0  0
 70 55  1  0  0  0  0
 10  5  1  0  0  0  0
 22 18  1  0  0  0  0
 45 26  2  0  0  0  0
 71 58  1  0  0  0  0
 23  7  1  0  0  0  0
 44 28  2  0  0  0  0
 71 66  2  0  0  0  0
 42 29  2  0  0  0  0
 34 30  2  0  0  0  0
 41 35  2  0  0  0  0
 51 36  1  0  0  0  0
  1 72  1  0  0  0  0
  6 73  1  0  0  0  0
  9 74  1  0  0  0  0
 17 75  1  0  0  0  0
 18 76  1  0  0  0  0
 19 77  1  0  0  0  0
 20 78  1  0  0  0  0
 21 79  1  0  0  0  0
 22 80  1  0  0  0  0
 22 81  1  0  0  0  0
 23 82  1  0  0  0  0
 25 83  1  0  0  0  0
 39 84  1  0  0  0  0
 39 85  1  0  0  0  0
 40 86  1  0  0  0  0
 40 87  1  0  0  0  0
 40 88  1  0  0  0  0
 47 89  1  0  0  0  0
 47 90  1  0  0  0  0
 48 91  1  0  0  0  0
 48 92  1  0  0  0  0
 48 93  1  0  0  0  0
 52 94  1  0  0  0  0
 56 95  1  0  0  0  0
 57 96  1  0  0  0  0
 62 97  1  0  0  0  0
 62 98  1  0  0  0  0
 63 99  1  0  0  0  0
 63100  1  0  0  0  0
 63101  1  0  0  0  0
 67102  1  0  0  0  0
 68103  1  0  0  0  0
 69104  1  0  0  0  0
M  END
