102

C         -7.51230        0.64700       -0.62200
C         -7.82480        0.47400        0.70500
C         -6.85900        0.35870        1.78950
O         -5.63540        0.37070        1.69430
C         -7.62690        0.22670        3.03380
C         -7.12410        0.10520        4.32710
C         -8.09360        0.00170        5.29550
C         -9.46280        0.01960        4.99910
C         -9.97160        0.14350        3.72710
C         -9.00350        0.24760        2.72550
C         -9.15520        0.39340        1.27680
C        -10.35070        0.43900        0.60740
C        -11.61680        0.35040        1.22380
N        -12.68090        0.28510        1.65020
C        -10.51060        0.57580       -0.78770
N        -10.73420        0.68340       -1.90940
C         -9.85940       -0.13420        6.44590
C        -10.33090       -1.53090        6.92100
C         -9.67510       -2.53860        6.00970
C         -8.37900       -2.55520        6.29040
C         -8.13470       -1.55860        7.39670
C         -9.45440       -1.68820        8.17390
C         -8.33350       -0.15360        6.77620
C         -6.26910        0.74870       -1.26020
C         -6.18710        0.95270       -2.64010
C         -4.90520        1.04710       -3.14700
S         -4.34910        1.32430       -4.78830
C         -2.72140        1.26800       -4.21100
C         -1.41760        1.42020       -4.69640
C         -0.95200        1.78150       -5.98020
C          0.45080        1.99960       -6.16930
N          0.74150        2.38610       -7.40140
S         -0.63300        2.46320       -8.25230
N         -1.65310        2.00840       -7.07950
C          1.33070        1.74610       -5.09380
C          2.72860        1.78010       -5.03320
C          3.09470        1.32200       -3.76200
N          1.97310        1.04030       -3.02770
C          2.10330        0.26310       -1.81680
C          1.61810       -1.17030       -2.01660
C          0.86670        1.29950       -3.81910
C         -0.53380        1.23340       -3.59020
N         -1.30320        1.00140       -2.46270
C         -2.62130        1.03450       -2.83430
C         -3.86370        0.91420       -2.20460
Se        -4.53900        0.65330       -0.48130
C         -0.96580        1.07710       -1.06030
C         -0.44910        2.46300       -0.68270
C          4.47880        1.26900       -3.57220
C          5.14860        1.71710       -4.73020
S          4.07520        2.18250       -6.03880
C          6.52830        1.72050       -4.65970
C          7.06420        1.26610       -3.45150
Se         5.69090        0.76560       -2.23920
C          8.45010        1.23090       -3.24890
C          9.18660        0.81030       -2.16740
C          8.63180        0.24970       -0.93680
O          7.44350        0.10930       -0.67160
C          9.77340       -0.11120       -0.09280
C          9.77890       -0.70100        1.17450
O          8.59330       -0.99050        1.73090
C          8.55720       -1.59680        3.00180
C         11.02880       -0.94250        1.75910
C         12.19600       -0.60720        1.09830
C         12.19010       -0.02180       -0.16220
C         10.96630        0.22570       -0.75750
C         10.62900        0.81740       -2.05500
C         11.53730        1.29420       -2.96440
C         11.22630        1.88560       -4.20700
N         11.06460        2.38190       -5.23050
C         12.93610        1.27050       -2.78220
N         14.08190        1.28440       -2.70720
H         -8.34650        0.72940       -1.30950
H         -6.06110        0.09820        4.51040
H        -11.02840        0.16070        3.52030
H        -10.46180        0.67040        6.86280
H        -11.40610       -1.62550        7.04630
H        -10.19580       -3.07740        5.23990
H         -7.60000       -3.11050        5.80150
H         -7.21040       -1.67860        7.95580
H         -9.56960       -2.66120        8.64900
H         -9.60390       -0.89930        8.90990
H         -7.93940        0.63940        7.40900
H         -7.06910        1.03410       -3.25300
H          1.59380        0.75250       -0.98690
H          3.17150        0.24760       -1.56930
H          1.70690       -1.72490       -1.08660
H          0.58150       -1.19430       -2.34590
H          2.22510       -1.66390       -2.77200
H         -1.89030        0.87680       -0.50530
H         -0.25890        0.29290       -0.79110
H         -1.22110        3.20710       -0.86440
H          0.42610        2.73160       -1.27040
H         -0.18840        2.48710        0.37180
H          7.15840        2.04660       -5.47020
H          9.01040        1.59600       -4.10250
H          9.05880       -2.56950        2.99690
H          7.50130       -1.73700        3.22620
H          9.00790       -0.95570        3.76580
H         11.09420       -1.39490        2.73590
H         13.14220       -0.80800        1.57780
H         13.12030        0.22290       -0.64560
