130

C         -5.15610        2.60390        3.55240
C         -5.75250        1.49240        4.08850
C         -5.49150        0.10430        3.70040
O         -4.73660       -0.29220        2.82630
C         -6.32610       -0.73500        4.57420
C         -6.38790       -2.12620        4.59050
C         -7.24360       -2.63650        5.53670
C         -7.98360       -1.82160        6.40350
C         -7.93210       -0.44770        6.39690
C         -7.06810        0.09340        5.44100
C         -6.73630        1.48860        5.15260
C         -7.25770        2.57920        5.80070
C         -8.22170        2.51000        6.82850
N         -9.00840        2.53550        7.66480
C         -6.92190        3.92890        5.56200
N         -6.70880        5.05260        5.45190
C         -8.62780       -2.99990        7.08960
C        -10.09160       -3.34120        6.71740
C        -10.30670       -2.83310        5.31340
C         -9.60730       -3.60450        4.49190
C         -8.90610       -4.64830        5.32570
C         -9.94460       -4.84620        6.44140
C         -7.80390       -3.90790        6.12300
C         -4.13900        2.71720        2.59620
C         -3.58700        3.96390        2.25780
C         -4.11560        5.23620        2.77420
C         -5.34030        5.68830        2.29140
C         -5.88450        6.87000        2.75410
C         -5.20860        7.60560        3.71160
C         -3.99490        7.15550        4.19610
C         -3.42790        5.97350        3.73950
C         -2.15070        5.46920        4.34960
C         -2.45180        4.49010        5.48680
C         -2.51870        3.83030        1.37930
S         -1.42060        4.99210        0.65870
C         -0.59160        3.67980       -0.10750
C          0.56360        3.46040       -0.87010
C          1.62080        4.32340       -1.24020
C          2.82340        3.75700       -1.78470
N          3.76030        4.66750       -1.99530
S          3.17910        6.11400       -1.55780
N          1.71120        5.63300       -1.07500
C          2.86060        2.37340       -2.06920
C          3.84650        1.55560       -2.64260
S          5.49020        1.65260       -3.16600
C          5.43160       -0.03400       -3.63800
C          6.38300       -0.92410       -4.15940
C          7.80770       -0.64160       -4.39870
C          8.30740        0.38730       -5.21070
C          7.49370        1.51450       -5.78970
C          6.33670        1.15120       -6.71380
C          9.68420        0.42820       -5.42940
C         10.55770       -0.46410       -4.84180
C         10.06640       -1.41850       -3.96730
C          8.70630       -1.50110       -3.75970
C          5.85680       -2.22040       -4.25250
S          4.18540       -2.30400       -3.71080
C          4.18650       -0.62330       -3.36130
C          3.28460        0.28510       -2.80490
N          1.99380        0.27590       -2.33890
C          1.72770        1.54170       -1.84620
C          0.63510        2.05700       -1.10670
N         -0.42070        1.44650       -0.46330
C         -1.15900        2.42360        0.14920
C         -2.25390        2.49810        1.01570
S         -3.32870        1.38550        1.78120
C         -0.62060        0.05530       -0.12100
C         -1.86510       -0.53120       -0.78700
C          1.05150       -0.67980       -2.88380
C          0.93610       -0.53960       -4.40170
C          6.45510       -3.46590       -4.55630
C          7.56390       -3.76570       -5.29450
C          8.33720       -4.99970       -5.01930
O          7.99220       -5.95770       -4.36740
C          9.65720       -4.76390       -5.65730
C         10.79600       -5.53940       -5.59410
C         11.92130       -5.07280       -6.26150
Br        13.52330       -6.09330       -6.19960
C         11.91120       -3.87850       -6.97030
C         10.75860       -3.11080       -7.03960
C          9.62670       -3.55430       -6.37540
C          8.28440       -2.99590       -6.27650
C          7.70090       -2.10070       -7.13410
C          6.30050       -1.94800       -7.14370
N          5.15470       -1.89090       -7.18530
C          8.40170       -1.38330       -8.11940
N          8.94910       -0.76560       -8.91750
H         -5.47830        3.56590        3.93330
H         -5.79600       -2.71510        3.90730
H         -8.50550        0.16200        7.07450
H         -8.43980       -3.08940        8.15770
H        -10.82770       -3.03630        7.45630
H        -10.88130       -1.95720        5.07550
H         -9.48060       -3.50190        3.43000
H         -8.56350       -5.53440        4.79770
H        -10.86680       -5.30080        6.08270
H         -9.56440       -5.40830        7.29330
H         -7.07830       -4.59110        6.56050
H         -5.86020        5.10230        1.54630
H         -6.83630        7.20940        2.37510
H         -5.63200        8.52430        4.08760
H         -3.47490        7.72600        4.95220
H         -1.53510        4.97250        3.59840
H         -1.58340        6.31300        4.74620
H         -2.95410        3.60240        5.10750
H         -3.10000        4.95800        6.22450
H         -1.53050        4.18220        5.97620
H          7.10420        2.10370       -4.95530
H          8.17330        2.16380       -6.34570
H          5.61150        0.50680       -6.22690
H          5.82710        2.06140       -7.02180
H          6.70070        0.65260       -7.60900
H         10.07930        1.19580       -6.07860
H         11.61630       -0.39980       -5.04290
H         10.73420       -2.09380       -3.45380
H          8.31920       -2.24160       -3.07440
H         -0.75300       -0.00290        0.96510
H          0.28010       -0.50390       -0.37660
H         -1.89690       -1.60400       -0.62030
H         -2.76110       -0.09380       -0.35600
H         -1.87860       -0.34040       -1.85800
H          1.39340       -1.68770       -2.62790
H          0.07450       -0.50570       -2.44720
H          0.18450       -1.23070       -4.77270
H          0.63920        0.47370       -4.66430
H          1.87870       -0.76370       -4.89300
H          6.00840       -4.31780       -4.04980
H         10.80430       -6.46880       -5.04600
H         12.80890       -3.54880       -7.47060
H         10.75990       -2.18220       -7.58740
