
  xtb     02022205353D
 energy: -192.427928935625 gnorm: 0.000935727883 xtb: 6.4.1 (unknown)
107120  0     0  0            999 V2000
    1.0628    5.4486   -2.1945 C   0  0  0  0  0  0  0  0  0  0  0  0
    0.0873    6.2503   -1.6797 C   0  0  0  0  0  0  0  0  0  0  0  0
    0.3421    7.7167   -1.6041 C   0  0  0  0  0  0  0  0  0  0  0  0
    1.2565    8.3154   -2.1237 O   0  0  0  0  0  0  0  0  0  0  0  0
   -0.7139    8.2581   -0.7288 C   0  0  0  0  0  0  0  0  0  0  0  0
   -0.8342    9.5648   -0.2601 C   0  0  0  0  0  0  0  0  0  0  0  0
   -1.9046    9.7622    0.5790 C   0  0  0  0  0  0  0  0  0  0  0  0
   -2.7890    8.7346    0.9337 C   0  0  0  0  0  0  0  0  0  0  0  0
   -2.6904    7.4447    0.4694 C   0  0  0  0  0  0  0  0  0  0  0  0
   -1.6132    7.2252   -0.3936 C   0  0  0  0  0  0  0  0  0  0  0  0
   -1.2116    6.0066   -1.0971 C   0  0  0  0  0  0  0  0  0  0  0  0
   -2.0361    4.9331   -1.3242 C   0  0  0  0  0  0  0  0  0  0  0  0
   -1.7532    3.8525   -2.1806 C   0  0  0  0  0  0  0  0  0  0  0  0
   -1.6179    2.9334   -2.8565 N   0  0  0  0  0  0  0  0  0  0  0  0
   -3.3237    4.7872   -0.7680 C   0  0  0  0  0  0  0  0  0  0  0  0
   -4.3656    4.5797   -0.3319 N   0  0  0  0  0  0  0  0  0  0  0  0
   -3.6033    9.6340    1.8290 C   0  0  0  0  0  0  0  0  0  0  0  0
   -3.3638    9.4945    3.3475 C   0  0  0  0  0  0  0  0  0  0  0  0
   -3.9106   10.7826    3.9191 C   0  0  0  0  0  0  0  0  0  0  0  0
   -3.0800   11.7597    3.5786 C   0  0  0  0  0  0  0  0  0  0  0  0
   -1.9569   11.1483    2.7722 C   0  0  0  0  0  0  0  0  0  0  0  0
   -1.8595    9.7772    3.4538 C   0  0  0  0  0  0  0  0  0  0  0  0
   -2.6221   10.7821    1.4285 C   0  0  0  0  0  0  0  0  0  0  0  0
    1.2359    4.0485   -2.1449 C   0  0  0  0  0  0  0  0  0  0  0  0
    2.1542    3.3392   -3.4770 S   0  0  0  0  0  0  0  0  0  0  0  0
    1.8458    1.7826   -2.8491 C   0  0  0  0  0  0  0  0  0  0  0  0
    2.0661    0.4401   -3.1860 C   0  0  0  0  0  0  0  0  0  0  0  0
    2.6784   -0.1464   -4.3148 C   0  0  0  0  0  0  0  0  0  0  0  0
    2.6607   -1.5735   -4.4473 C   0  0  0  0  0  0  0  0  0  0  0  0
    3.2246   -1.9849   -5.5722 N   0  0  0  0  0  0  0  0  0  0  0  0
    3.7357   -0.6864   -6.3928 S   0  0  0  0  0  0  0  0  0  0  0  0
    3.2610    0.4488   -5.3440 N   0  0  0  0  0  0  0  0  0  0  0  0
    2.1235   -2.3483   -3.3955 C   0  0  0  0  0  0  0  0  0  0  0  0
    2.0725   -3.7350   -3.2080 C   0  0  0  0  0  0  0  0  0  0  0  0
    2.4596   -5.1867   -4.0612 S   0  0  0  0  0  0  0  0  0  0  0  0
    1.9191   -6.1129   -2.6789 C   0  0  0  0  0  0  0  0  0  0  0  0
    1.8493   -7.4848   -2.4350 C   0  0  0  0  0  0  0  0  0  0  0  0
    2.2908   -8.5154   -3.4202 C   0  0  0  0  0  0  0  0  0  0  0  0
    3.7840   -8.8124   -3.2545 C   0  0  0  0  0  0  0  0  0  0  0  0
    1.3310   -7.7536   -1.1698 C   0  0  0  0  0  0  0  0  0  0  0  0
    0.9578   -6.2716   -0.2828 S   0  0  0  0  0  0  0  0  0  0  0  0
    1.4724   -5.3114   -1.6167 C   0  0  0  0  0  0  0  0  0  0  0  0
    1.5512   -3.9535   -1.9249 C   0  0  0  0  0  0  0  0  0  0  0  0
    1.2532   -2.7585   -1.3311 N   0  0  0  0  0  0  0  0  0  0  0  0
    1.5784   -1.7498   -2.2203 C   0  0  0  0  0  0  0  0  0  0  0  0
    1.4564   -0.3382   -2.1661 C   0  0  0  0  0  0  0  0  0  0  0  0
    0.8552    0.5162   -1.2478 N   0  0  0  0  0  0  0  0  0  0  0  0
    1.1121    1.8096   -1.6562 C   0  0  0  0  0  0  0  0  0  0  0  0
    0.8037    3.1078   -1.2109 C   0  0  0  0  0  0  0  0  0  0  0  0
    0.3195    3.4832    0.1567 C   0  0  0  0  0  0  0  0  0  0  0  0
    1.1967    2.8529    1.2407 C   0  0  0  0  0  0  0  0  0  0  0  0
   -0.3622    0.2322   -0.5074 C   0  0  0  0  0  0  0  0  0  0  0  0
   -1.4233   -0.4141   -1.3930 C   0  0  0  0  0  0  0  0  0  0  0  0
    0.9650   -2.7033    0.0841 C   0  0  0  0  0  0  0  0  0  0  0  0
    2.0492   -1.9550    0.8541 C   0  0  0  0  0  0  0  0  0  0  0  0
    1.2175   -9.0163   -0.5624 C   0  0  0  0  0  0  0  0  0  0  0  0
    0.5556   -9.3651    0.5821 C   0  0  0  0  0  0  0  0  0  0  0  0
    0.9862  -10.5639    1.3388 C   0  0  0  0  0  0  0  0  0  0  0  0
    1.7271  -11.4388    0.9555 O   0  0  0  0  0  0  0  0  0  0  0  0
    0.3621  -10.4128    2.6767 C   0  0  0  0  0  0  0  0  0  0  0  0
   -0.4832   -9.2863    2.6754 C   0  0  0  0  0  0  0  0  0  0  0  0
   -1.1587   -8.9159    3.8254 C   0  0  0  0  0  0  0  0  0  0  0  0
   -0.9818   -9.6789    4.9704 C   0  0  0  0  0  0  0  0  0  0  0  0
   -0.1577  -10.7939    4.9679 C   0  0  0  0  0  0  0  0  0  0  0  0
    0.0348  -11.7954    6.5592 Br  0  0  0  0  0  0  0  0  0  0  0  0
    0.5329  -11.1847    3.8145 C   0  0  0  0  0  0  0  0  0  0  0  0
    1.5497  -12.5616    3.8110 Cl  0  0  0  0  0  0  0  0  0  0  0  0
   -0.4882   -8.7118    1.3314 C   0  0  0  0  0  0  0  0  0  0  0  0
   -1.4830   -7.9227    0.8111 C   0  0  0  0  0  0  0  0  0  0  0  0
   -1.6130   -7.6766   -0.5719 C   0  0  0  0  0  0  0  0  0  0  0  0
   -1.7730   -7.5098   -1.6963 N   0  0  0  0  0  0  0  0  0  0  0  0
   -2.5199   -7.3537    1.5737 C   0  0  0  0  0  0  0  0  0  0  0  0
   -3.3625   -6.8370    2.1582 N   0  0  0  0  0  0  0  0  0  0  0  0
    1.8392    5.9898   -2.7293 H   0  0  0  0  0  0  0  0  0  0  0  0
   -0.1294   10.3260   -0.5554 H   0  0  0  0  0  0  0  0  0  0  0  0
   -3.3761    6.6636    0.7527 H   0  0  0  0  0  0  0  0  0  0  0  0
   -4.6560    9.7326    1.5717 H   0  0  0  0  0  0  0  0  0  0  0  0
   -3.7327    8.5699    3.7833 H   0  0  0  0  0  0  0  0  0  0  0  0
   -4.8433   10.8561    4.4467 H   0  0  0  0  0  0  0  0  0  0  0  0
   -3.1804   12.8127    3.7650 H   0  0  0  0  0  0  0  0  0  0  0  0
   -1.0438   11.7308    2.6850 H   0  0  0  0  0  0  0  0  0  0  0  0
   -1.2340    9.0615    2.9231 H   0  0  0  0  0  0  0  0  0  0  0  0
   -1.5274    9.8545    4.4877 H   0  0  0  0  0  0  0  0  0  0  0  0
   -3.0202   11.6460    0.9000 H   0  0  0  0  0  0  0  0  0  0  0  0
    2.1131   -8.1291   -4.4256 H   0  0  0  0  0  0  0  0  0  0  0  0
    1.7121   -9.4305   -3.2954 H   0  0  0  0  0  0  0  0  0  0  0  0
    3.9927   -9.1984   -2.2594 H   0  0  0  0  0  0  0  0  0  0  0  0
    4.0972   -9.5522   -3.9860 H   0  0  0  0  0  0  0  0  0  0  0  0
    4.3679   -7.9075   -3.4046 H   0  0  0  0  0  0  0  0  0  0  0  0
    0.3689    4.5678    0.2635 H   0  0  0  0  0  0  0  0  0  0  0  0
   -0.7252    3.1899    0.3060 H   0  0  0  0  0  0  0  0  0  0  0  0
    1.1834    1.7682    1.1865 H   0  0  0  0  0  0  0  0  0  0  0  0
    0.8427    3.1544    2.2235 H   0  0  0  0  0  0  0  0  0  0  0  0
    2.2247    3.1889    1.1265 H   0  0  0  0  0  0  0  0  0  0  0  0
   -0.1474   -0.3750    0.3731 H   0  0  0  0  0  0  0  0  0  0  0  0
   -0.7501    1.1869   -0.1587 H   0  0  0  0  0  0  0  0  0  0  0  0
   -2.3307   -0.5760   -0.8170 H   0  0  0  0  0  0  0  0  0  0  0  0
   -1.6546    0.2484   -2.2241 H   0  0  0  0  0  0  0  0  0  0  0  0
   -1.0888   -1.3681   -1.7924 H   0  0  0  0  0  0  0  0  0  0  0  0
   -0.0233   -2.2725    0.2551 H   0  0  0  0  0  0  0  0  0  0  0  0
    0.9253   -3.7381    0.4336 H   0  0  0  0  0  0  0  0  0  0  0  0
    2.1648   -0.9383    0.4872 H   0  0  0  0  0  0  0  0  0  0  0  0
    3.0032   -2.4655    0.7439 H   0  0  0  0  0  0  0  0  0  0  0  0
    1.7949   -1.9222    1.9101 H   0  0  0  0  0  0  0  0  0  0  0  0
    1.8237   -9.8056   -0.9951 H   0  0  0  0  0  0  0  0  0  0  0  0
   -1.8015   -8.0512    3.8500 H   0  0  0  0  0  0  0  0  0  0  0  0
   -1.4917   -9.4070    5.8817 H   0  0  0  0  0  0  0  0  0  0  0  0
  1  2  2  0  0  0  0
  2  3  1  0  0  0  0
  3  4  2  0  0  0  0
  3  5  1  0  0  0  0
  5  6  2  0  0  0  0
  6  7  1  0  0  0  0
  7  8  2  0  0  0  0
  8  9  1  0  0  0  0
  9 10  2  0  0  0  0
 10 11  1  0  0  0  0
 11 12  2  0  0  0  0
 12 13  1  0  0  0  0
 13 14  3  0  0  0  0
 12 15  1  0  0  0  0
 15 16  3  0  0  0  0
  8 17  1  0  0  0  0
 17 18  1  0  0  0  0
 18 19  1  0  0  0  0
 19 20  2  0  0  0  0
 20 21  1  0  0  0  0
 21 22  1  0  0  0  0
 21 23  1  0  0  0  0
  1 24  1  0  0  0  0
 24 25  1  0  0  0  0
 25 26  1  0  0  0  0
 26 27  1  0  0  0  0
 27 28  1  0  0  0  0
 28 29  1  0  0  0  0
 29 30  2  0  0  0  0
 30 31  1  0  0  0  0
 31 32  1  0  0  0  0
 29 33  1  0  0  0  0
 33 34  1  0  0  0  0
 34 35  1  0  0  0  0
 35 36  1  0  0  0  0
 36 37  1  0  0  0  0
 37 38  1  0  0  0  0
 38 39  1  0  0  0  0
 37 40  2  0  0  0  0
 40 41  1  0  0  0  0
 41 42  1  0  0  0  0
 42 43  1  0  0  0  0
 43 44  1  0  0  0  0
 44 45  1  0  0  0  0
 45 46  1  0  0  0  0
 46 47  1  0  0  0  0
 47 48  1  0  0  0  0
 48 49  1  0  0  0  0
 49 50  1  0  0  0  0
 50 51  1  0  0  0  0
 47 52  1  0  0  0  0
 52 53  1  0  0  0  0
 44 54  1  0  0  0  0
 54 55  1  0  0  0  0
 40 56  1  0  0  0  0
 56 57  2  0  0  0  0
 57 58  1  0  0  0  0
 58 59  2  0  0  0  0
 58 60  1  0  0  0  0
 60 61  2  0  0  0  0
 61 62  1  0  0  0  0
 62 63  2  0  0  0  0
 63 64  1  0  0  0  0
 64 65  1  0  0  0  0
 64 66  2  0  0  0  0
 66 67  1  0  0  0  0
 61 68  1  0  0  0  0
 68 69  2  0  0  0  0
 69 70  1  0  0  0  0
 70 71  3  0  0  0  0
 69 72  1  0  0  0  0
 72 73  3  0  0  0  0
 11  2  1  0  0  0  0
 23 17  1  0  0  0  0
 49 24  2  0  0  0  0
 68 57  1  0  0  0  0
 10  5  1  0  0  0  0
 22 18  1  0  0  0  0
 48 26  2  0  0  0  0
 66 60  1  0  0  0  0
 23  7  1  0  0  0  0
 46 27  2  0  0  0  0
 32 28  2  0  0  0  0
 45 33  2  0  0  0  0
 43 34  2  0  0  0  0
 42 36  2  0  0  0  0
  1 74  1  0  0  0  0
  6 75  1  0  0  0  0
  9 76  1  0  0  0  0
 17 77  1  0  0  0  0
 18 78  1  0  0  0  0
 19 79  1  0  0  0  0
 20 80  1  0  0  0  0
 21 81  1  0  0  0  0
 22 82  1  0  0  0  0
 22 83  1  0  0  0  0
 23 84  1  0  0  0  0
 38 85  1  0  0  0  0
 38 86  1  0  0  0  0
 39 87  1  0  0  0  0
 39 88  1  0  0  0  0
 39 89  1  0  0  0  0
 50 90  1  0  0  0  0
 50 91  1  0  0  0  0
 51 92  1  0  0  0  0
 51 93  1  0  0  0  0
 51 94  1  0  0  0  0
 52 95  1  0  0  0  0
 52 96  1  0  0  0  0
 53 97  1  0  0  0  0
 53 98  1  0  0  0  0
 53 99  1  0  0  0  0
 54100  1  0  0  0  0
 54101  1  0  0  0  0
 55102  1  0  0  0  0
 55103  1  0  0  0  0
 55104  1  0  0  0  0
 56105  1  0  0  0  0
 62106  1  0  0  0  0
 63107  1  0  0  0  0
M  END
