116

C          6.28540        2.30990        0.94560
C          6.78100        3.52140        1.33520
C          6.04660        4.48610        2.18850
O          5.04640        4.28910        2.84640
C          6.71510        5.78500        1.97420
C          6.32410        7.01750        2.49340
C          7.10880        8.07020        2.08760
C          8.19900        7.91350        1.22110
C          8.59630        6.70460        0.70140
C          7.81390        5.61910        1.10720
C          7.91150        4.20870        0.74770
C          8.93150        3.61430        0.05140
C          9.02160        2.22530       -0.17810
N          9.16320        1.10240       -0.37290
C         10.03910        4.30250       -0.48310
N         10.96190        4.80730       -0.94360
C          8.51480        9.38870        1.22250
C          9.71160        9.84050        2.08520
C          9.48160       11.32270        2.27350
C          8.45250       11.46990        3.09810
C          7.96920       10.08940        3.48080
C          9.30290        9.33130        3.47340
C          7.30220        9.56260        2.19260
C          5.22290        1.61410        1.56760
C          4.90650        1.43780        2.90560
C          5.78240        1.84870        4.04260
C          6.16610        0.66300        4.92610
C          3.71090        0.71780        3.05840
Se         2.67570        0.23900        4.57150
C          1.45620       -0.41370        3.33220
C          0.17370       -0.97370        3.31050
C         -0.71310       -1.21680        4.37880
C         -2.03870       -1.65760        4.07920
N         -2.78760       -1.79930        5.16180
S         -1.88750       -1.41070        6.45420
N         -0.51220       -1.04480        5.67590
C         -2.37990       -1.90460        2.73420
C         -3.58660       -2.36450        2.19140
Se        -5.29580       -2.81750        2.76710
C         -5.63300       -3.16730        0.93880
C         -6.79160       -3.57250        0.23890
C         -8.09740       -3.81680        0.92760
C         -8.04630       -5.07510        1.79360
C         -6.57070       -3.63910       -1.11180
S         -4.91390       -3.23460       -1.53740
C         -4.52420       -2.94730        0.12400
C         -3.38470       -2.50230        0.81810
N         -2.10610       -2.12990        0.49460
C         -1.46130       -1.74100        1.66120
C         -0.17930       -1.19000        1.94850
N          0.88300       -0.76330        1.16890
C          1.85950       -0.27830        2.00100
C          3.10670        0.34340        1.85010
S          4.07450        0.80880        0.50020
C          0.94990       -0.48520       -0.24650
C          0.01750        0.66100       -0.63290
C         -1.55660       -2.52010       -0.78410
C         -0.57860       -3.68390       -0.63740
C         -7.50430       -4.03920       -2.15410
C         -8.17230       -5.24400       -2.02570
C         -9.05480       -5.69270       -3.00300
C         -9.27990       -4.94240       -4.13920
C        -10.20150       -5.44480       -5.17000
O        -10.77700       -6.51000       -5.07160
N        -10.39470       -4.63170       -6.27460
C        -11.29700       -5.12310       -7.31150
C        -10.54230       -5.93960       -8.35260
C         -9.78480       -3.40980       -6.49990
O        -10.00730       -2.78040       -7.51440
C         -8.87360       -2.92350       -5.44900
C         -8.26700       -1.69400       -5.59730
C         -7.42610       -1.20410       -4.59740
C         -7.17170       -1.94800       -3.47370
C         -7.74110       -3.22580       -3.30030
C         -8.63030       -3.70210       -4.29890
H          6.65730        1.87100        0.02630
H          5.47000        7.09670        3.14770
H          9.42730        6.59810        0.02380
H          8.47950        9.88040        0.25210
H         10.68460        9.53980        1.70680
H         10.03660       12.08600        1.76040
H          7.97610       12.38040        3.41130
H          7.35550       10.01630        4.37470
H          9.97770        9.67820        4.25410
H          9.19880        8.24970        3.53600
H          6.46020       10.17250        1.87000
H          6.68840        2.31390        3.65250
H          5.24840        2.59610        4.63560
H          6.83740        0.99480        5.71390
H          6.67170       -0.10020        4.33840
H          5.28680        0.21870        5.39160
H         -8.89770       -3.89890        0.19040
H         -8.30590       -2.95730        1.57260
H         -9.00430       -5.23140        2.28240
H         -7.27910       -4.97420        2.56080
H         -7.81640       -5.95220        1.19290
H          1.98100       -0.19660       -0.46280
H          0.74480       -1.38710       -0.82170
H          0.06090        0.83180       -1.70520
H          0.32360        1.57260       -0.12510
H         -1.01010        0.44400       -0.34920
H         -1.09850       -1.66700       -1.28420
H         -2.39880       -2.83700       -1.40350
H         -0.15820       -3.94160       -1.60580
H          0.23110       -3.43460        0.04500
H         -1.09630       -4.55480       -0.24190
H         -7.98190       -5.86220       -1.16210
H         -9.56340       -6.63880       -2.89530
H        -12.05240       -5.73870       -6.82020
H        -11.76310       -4.25280       -7.77700
H        -11.23390       -6.29300       -9.11220
H        -10.06780       -6.79850       -7.88370
H         -9.78120       -5.32650       -8.82980
H         -8.46940       -1.11890       -6.48810
H         -6.97940       -0.22780       -4.70960
H         -6.53590       -1.54260       -2.70220
