
  xtb     02022212273D
 energy: -176.874263607531 gnorm: 0.000763029952 xtb: 6.4.1 (unknown)
104117  0     0  0            999 V2000
   -1.2209   -2.6831    4.3752 C   0  0  0  0  0  0  0  0  0  0  0  0
   -2.0137   -3.7551    4.0597 C   0  0  0  0  0  0  0  0  0  0  0  0
   -2.2062   -4.2906    2.6918 C   0  0  0  0  0  0  0  0  0  0  0  0
   -1.8219   -3.8132    1.6433 O   0  0  0  0  0  0  0  0  0  0  0  0
   -2.8654   -5.6001    2.8665 C   0  0  0  0  0  0  0  0  0  0  0  0
   -3.2354   -6.4863    1.8583 C   0  0  0  0  0  0  0  0  0  0  0  0
   -3.8243   -7.6406    2.3157 C   0  0  0  0  0  0  0  0  0  0  0  0
   -4.0236   -7.8993    3.6781 C   0  0  0  0  0  0  0  0  0  0  0  0
   -3.6638   -7.0332    4.6832 C   0  0  0  0  0  0  0  0  0  0  0  0
   -3.0670   -5.8504    4.2383 C   0  0  0  0  0  0  0  0  0  0  0  0
   -2.5651   -4.7079    4.9972 C   0  0  0  0  0  0  0  0  0  0  0  0
   -2.6711   -4.5355    6.3550 C   0  0  0  0  0  0  0  0  0  0  0  0
   -2.2722   -3.3757    7.0503 C   0  0  0  0  0  0  0  0  0  0  0  0
   -1.9947   -2.4608    7.6875 N   0  0  0  0  0  0  0  0  0  0  0  0
   -3.2230   -5.4817    7.2412 C   0  0  0  0  0  0  0  0  0  0  0  0
   -3.6475   -6.2117    8.0199 N   0  0  0  0  0  0  0  0  0  0  0  0
   -4.6481   -9.2460    3.4130 C   0  0  0  0  0  0  0  0  0  0  0  0
   -3.7777  -10.5055    3.6470 C   0  0  0  0  0  0  0  0  0  0  0  0
   -2.3433  -10.0799    3.4550 C   0  0  0  0  0  0  0  0  0  0  0  0
   -2.1625   -9.8351    2.1640 C   0  0  0  0  0  0  0  0  0  0  0  0
   -3.4722  -10.0900    1.4598 C   0  0  0  0  0  0  0  0  0  0  0  0
   -4.0223  -11.2398    2.3189 C   0  0  0  0  0  0  0  0  0  0  0  0
   -4.4325   -8.9554    1.8943 C   0  0  0  0  0  0  0  0  0  0  0  0
   -0.7414   -1.6722    3.5136 C   0  0  0  0  0  0  0  0  0  0  0  0
    0.5362   -1.0875    3.6371 C   0  0  0  0  0  0  0  0  0  0  0  0
    0.6690   -0.2395    2.5511 C   0  0  0  0  0  0  0  0  0  0  0  0
   -0.5338   -0.2906    1.8156 C   0  0  0  0  0  0  0  0  0  0  0  0
   -1.3842   -1.1588    2.4028 N   0  0  0  0  0  0  0  0  0  0  0  0
   -2.7985   -1.2058    2.1225 C   0  0  0  0  0  0  0  0  0  0  0  0
   -3.4537    0.1389    2.4269 C   0  0  0  0  0  0  0  0  0  0  0  0
   -0.3654    0.5401    0.6925 C   0  0  0  0  0  0  0  0  0  0  0  0
   -1.1747    0.7575   -0.4441 C   0  0  0  0  0  0  0  0  0  0  0  0
   -0.6621    1.5510   -1.5246 C   0  0  0  0  0  0  0  0  0  0  0  0
   -1.5004    1.6230   -2.5464 N   0  0  0  0  0  0  0  0  0  0  0  0
   -2.8264    0.7702   -2.1838 S   0  0  0  0  0  0  0  0  0  0  0  0
   -2.3815    0.2759   -0.7056 N   0  0  0  0  0  0  0  0  0  0  0  0
    0.5863    2.1889   -1.3676 C   0  0  0  0  0  0  0  0  0  0  0  0
    1.2506    3.1228   -2.1750 C   0  0  0  0  0  0  0  0  0  0  0  0
    1.0495    3.9043   -3.7012 S   0  0  0  0  0  0  0  0  0  0  0  0
    2.4837    4.8585   -3.3868 C   0  0  0  0  0  0  0  0  0  0  0  0
    3.1227    5.8874   -4.0997 C   0  0  0  0  0  0  0  0  0  0  0  0
    2.7783    6.3161   -5.4847 C   0  0  0  0  0  0  0  0  0  0  0  0
    2.3461    5.1699   -6.3933 C   0  0  0  0  0  0  0  0  0  0  0  0
    4.2014    6.3917   -3.3833 C   0  0  0  0  0  0  0  0  0  0  0  0
    4.4668    5.5261   -1.8696 S   0  0  0  0  0  0  0  0  0  0  0  0
    3.0747    4.5518   -2.1530 C   0  0  0  0  0  0  0  0  0  0  0  0
    2.3778    3.5506   -1.4669 C   0  0  0  0  0  0  0  0  0  0  0  0
    2.4500    2.8912   -0.2678 N   0  0  0  0  0  0  0  0  0  0  0  0
    1.3665    2.0335   -0.1857 C   0  0  0  0  0  0  0  0  0  0  0  0
    0.9423    1.1032    0.7984 C   0  0  0  0  0  0  0  0  0  0  0  0
    1.5624    0.6042    1.9356 N   0  0  0  0  0  0  0  0  0  0  0  0
    2.9689    0.4761    2.2441 C   0  0  0  0  0  0  0  0  0  0  0  0
    3.3241    1.1065    3.5894 C   0  0  0  0  0  0  0  0  0  0  0  0
    3.3322    3.3690    0.7719 C   0  0  0  0  0  0  0  0  0  0  0  0
    4.7916    2.9898    0.5225 C   0  0  0  0  0  0  0  0  0  0  0  0
    5.1317    7.4134   -3.6797 C   0  0  0  0  0  0  0  0  0  0  0  0
    4.9536    8.5693   -4.3764 C   0  0  0  0  0  0  0  0  0  0  0  0
    6.1098    9.4358   -4.7020 C   0  0  0  0  0  0  0  0  0  0  0  0
    7.2731    9.2186   -4.4414 O   0  0  0  0  0  0  0  0  0  0  0  0
    5.5493   10.6045   -5.4197 C   0  0  0  0  0  0  0  0  0  0  0  0
    6.1968   11.6879   -5.9832 C   0  0  0  0  0  0  0  0  0  0  0  0
    5.4249   12.6630   -6.6019 C   0  0  0  0  0  0  0  0  0  0  0  0
    4.0420   12.5549   -6.6506 C   0  0  0  0  0  0  0  0  0  0  0  0
    3.3885   11.4703   -6.0797 C   0  0  0  0  0  0  0  0  0  0  0  0
    4.1543   10.4954   -5.4688 C   0  0  0  0  0  0  0  0  0  0  0  0
    3.7166    9.2550   -4.7786 C   0  0  0  0  0  0  0  0  0  0  0  0
    2.5697    8.9457   -4.5233 O   0  0  0  0  0  0  0  0  0  0  0  0
   -0.8281   -2.6264    5.3836 H   0  0  0  0  0  0  0  0  0  0  0  0
   -3.0613   -6.2476    0.8206 H   0  0  0  0  0  0  0  0  0  0  0  0
   -3.8216   -7.2472    5.7271 H   0  0  0  0  0  0  0  0  0  0  0  0
   -5.6686   -9.3769    3.7679 H   0  0  0  0  0  0  0  0  0  0  0  0
   -3.9996  -11.0429    4.5651 H   0  0  0  0  0  0  0  0  0  0  0  0
   -1.6447   -9.9490    4.2606 H   0  0  0  0  0  0  0  0  0  0  0  0
   -1.2830   -9.4585    1.6754 H   0  0  0  0  0  0  0  0  0  0  0  0
   -3.4173  -10.2494    0.3860 H   0  0  0  0  0  0  0  0  0  0  0  0
   -5.0727  -11.4579    2.1309 H   0  0  0  0  0  0  0  0  0  0  0  0
   -3.4350  -12.1523    2.2273 H   0  0  0  0  0  0  0  0  0  0  0  0
   -5.3138   -8.8911    1.2589 H   0  0  0  0  0  0  0  0  0  0  0  0
    1.2493   -1.3362    4.3979 H   0  0  0  0  0  0  0  0  0  0  0  0
   -3.2525   -1.9812    2.7381 H   0  0  0  0  0  0  0  0  0  0  0  0
   -2.9340   -1.4556    1.0679 H   0  0  0  0  0  0  0  0  0  0  0  0
   -4.5263    0.0645    2.2729 H   0  0  0  0  0  0  0  0  0  0  0  0
   -3.0636    0.9066    1.7655 H   0  0  0  0  0  0  0  0  0  0  0  0
   -3.2672    0.4294    3.4592 H   0  0  0  0  0  0  0  0  0  0  0  0
    1.9792    7.0628   -5.4252 H   0  0  0  0  0  0  0  0  0  0  0  0
    3.6481    6.8173   -5.9171 H   0  0  0  0  0  0  0  0  0  0  0  0
    3.0835    4.3702   -6.3803 H   0  0  0  0  0  0  0  0  0  0  0  0
    1.3867    4.7627   -6.0875 H   0  0  0  0  0  0  0  0  0  0  0  0
    2.2505    5.5334   -7.4134 H   0  0  0  0  0  0  0  0  0  0  0  0
    3.2020   -0.5952    2.2916 H   0  0  0  0  0  0  0  0  0  0  0  0
    3.5556    0.9042    1.4363 H   0  0  0  0  0  0  0  0  0  0  0  0
    4.3870    0.9856    3.7800 H   0  0  0  0  0  0  0  0  0  0  0  0
    3.0855    2.1670    3.6149 H   0  0  0  0  0  0  0  0  0  0  0  0
    2.7698    0.6218    4.3877 H   0  0  0  0  0  0  0  0  0  0  0  0
    2.9764    2.9917    1.7276 H   0  0  0  0  0  0  0  0  0  0  0  0
    3.2591    4.4626    0.7960 H   0  0  0  0  0  0  0  0  0  0  0  0
    5.1773    3.5228   -0.3418 H   0  0  0  0  0  0  0  0  0  0  0  0
    5.3908    3.2597    1.3873 H   0  0  0  0  0  0  0  0  0  0  0  0
    4.9057    1.9246    0.3355 H   0  0  0  0  0  0  0  0  0  0  0  0
    6.1297    7.2726   -3.2704 H   0  0  0  0  0  0  0  0  0  0  0  0
    7.2723   11.7655   -5.9365 H   0  0  0  0  0  0  0  0  0  0  0  0
    5.9067   13.5194   -7.0502 H   0  0  0  0  0  0  0  0  0  0  0  0
    3.4661   13.3275   -7.1386 H   0  0  0  0  0  0  0  0  0  0  0  0
    2.3134   11.3802   -6.1101 H   0  0  0  0  0  0  0  0  0  0  0  0
  1  2  2  0  0  0  0
  2  3  1  0  0  0  0
  3  4  2  0  0  0  0
  3  5  1  0  0  0  0
  5  6  2  0  0  0  0
  6  7  1  0  0  0  0
  7  8  2  0  0  0  0
  8  9  1  0  0  0  0
  9 10  2  0  0  0  0
 10 11  1  0  0  0  0
 11 12  2  0  0  0  0
 12 13  1  0  0  0  0
 13 14  3  0  0  0  0
 12 15  1  0  0  0  0
 15 16  3  0  0  0  0
  8 17  1  0  0  0  0
 17 18  1  0  0  0  0
 18 19  1  0  0  0  0
 19 20  2  0  0  0  0
 20 21  1  0  0  0  0
 21 22  1  0  0  0  0
 21 23  1  0  0  0  0
  1 24  1  0  0  0  0
 24 25  2  0  0  0  0
 25 26  1  0  0  0  0
 26 27  2  0  0  0  0
 27 28  1  0  0  0  0
 28 29  1  0  0  0  0
 29 30  1  0  0  0  0
 27 31  1  0  0  0  0
 31 32  1  0  0  0  0
 32 33  1  0  0  0  0
 33 34  2  0  0  0  0
 34 35  1  0  0  0  0
 35 36  1  0  0  0  0
 33 37  1  0  0  0  0
 37 38  1  0  0  0  0
 38 39  1  0  0  0  0
 39 40  1  0  0  0  0
 40 41  1  0  0  0  0
 41 42  1  0  0  0  0
 42 43  1  0  0  0  0
 41 44  2  0  0  0  0
 44 45  1  0  0  0  0
 45 46  1  0  0  0  0
 46 47  1  0  0  0  0
 47 48  1  0  0  0  0
 48 49  1  0  0  0  0
 49 50  1  0  0  0  0
 50 51  1  0  0  0  0
 51 52  1  0  0  0  0
 52 53  1  0  0  0  0
 48 54  1  0  0  0  0
 54 55  1  0  0  0  0
 44 56  1  0  0  0  0
 56 57  2  0  0  0  0
 57 58  1  0  0  0  0
 58 59  2  0  0  0  0
 58 60  1  0  0  0  0
 60 61  2  0  0  0  0
 61 62  1  0  0  0  0
 62 63  2  0  0  0  0
 63 64  1  0  0  0  0
 64 65  2  0  0  0  0
 65 66  1  0  0  0  0
 66 67  2  0  0  0  0
 11  2  1  0  0  0  0
 23 17  1  0  0  0  0
 28 24  1  0  0  0  0
 50 31  2  0  0  0  0
 66 57  1  0  0  0  0
 10  5  1  0  0  0  0
 22 18  1  0  0  0  0
 51 26  1  0  0  0  0
 65 60  1  0  0  0  0
 23  7  1  0  0  0  0
 36 32  2  0  0  0  0
 49 37  2  0  0  0  0
 47 38  2  0  0  0  0
 46 40  2  0  0  0  0
  1 68  1  0  0  0  0
  6 69  1  0  0  0  0
  9 70  1  0  0  0  0
 17 71  1  0  0  0  0
 18 72  1  0  0  0  0
 19 73  1  0  0  0  0
 20 74  1  0  0  0  0
 21 75  1  0  0  0  0
 22 76  1  0  0  0  0
 22 77  1  0  0  0  0
 23 78  1  0  0  0  0
 25 79  1  0  0  0  0
 29 80  1  0  0  0  0
 29 81  1  0  0  0  0
 30 82  1  0  0  0  0
 30 83  1  0  0  0  0
 30 84  1  0  0  0  0
 42 85  1  0  0  0  0
 42 86  1  0  0  0  0
 43 87  1  0  0  0  0
 43 88  1  0  0  0  0
 43 89  1  0  0  0  0
 52 90  1  0  0  0  0
 52 91  1  0  0  0  0
 53 92  1  0  0  0  0
 53 93  1  0  0  0  0
 53 94  1  0  0  0  0
 54 95  1  0  0  0  0
 54 96  1  0  0  0  0
 55 97  1  0  0  0  0
 55 98  1  0  0  0  0
 55 99  1  0  0  0  0
 56100  1  0  0  0  0
 61101  1  0  0  0  0
 62102  1  0  0  0  0
 63103  1  0  0  0  0
 64104  1  0  0  0  0
M  END
