125

C         -1.21290        1.05240        5.79740
C         -2.57770        1.10530        5.94150
C         -3.56690        0.86710        4.88920
O         -3.35920        0.65400        3.70500
C         -4.88730        0.93330        5.53720
C         -6.12790        0.74190        4.93310
C         -7.19160        0.84910        5.79640
C         -7.03220        1.13080        7.15930
C         -5.81420        1.32970        7.76540
C         -4.71670        1.22050        6.90620
C         -3.28500        1.35110        7.18080
C         -2.73990        1.65300        8.40380
C         -3.49020        1.87500        9.57740
N         -4.02810        2.06520       10.57430
C         -1.36800        1.79530        8.69930
N         -0.28220        1.93330        9.05080
C         -8.51560        1.07250        7.42710
C         -9.04170       -0.21140        8.10330
C        -10.52320       -0.19710        7.80350
C        -10.67600       -0.46110        6.51210
C         -9.30030       -0.65880        5.91760
C         -8.58380       -1.29330        7.11660
C         -8.69370        0.76050        5.90650
C         -0.42680        0.80120        4.66840
C          0.97820        0.70950        4.72960
C          1.74700        0.72390        5.96960
C          1.38830       -0.08050        7.05040
C          2.09950       -0.02020        8.23080
C          3.18520        0.83610        8.36630
C          3.88780        0.97270        9.68320
C          3.23490        2.09350       10.49630
C          3.56420        1.60730        7.27380
C          2.86300        1.55000        6.08690
C          1.53880        0.59190        3.46050
S          3.19070        0.40020        2.90420
C          2.59730        0.28630        1.28290
C          3.08280        0.05840       -0.01290
C          4.37030       -0.29240       -0.47800
C          4.53590       -0.65360       -1.85750
N          5.77320       -1.03140       -2.13590
S          6.65670       -0.93430       -0.78210
N          5.49250       -0.40900        0.21320
C          3.44060       -0.50640       -2.73780
C          3.34810       -0.62230       -4.13200
S          4.33630       -1.08250       -5.47590
C          3.02250       -0.65020       -6.55110
C          2.90250       -0.64640       -7.94250
C          3.97110       -1.07230       -8.84320
C          4.65800       -2.25790       -8.58880
C          5.67410       -2.67050       -9.42630
C          6.04180       -1.91240      -10.53190
C          7.17740       -2.34390      -11.41250
C          8.50480       -1.81070      -10.86860
C          5.37070       -0.71910      -10.76990
C          4.34810       -0.30090       -9.94120
C          1.64590       -0.17020       -8.34700
S          0.64480        0.30810       -6.98290
C          1.88510       -0.17260       -5.88420
C          2.07240       -0.17690       -4.49730
N          1.36580        0.17800       -3.37930
C          2.17360       -0.04000       -2.28140
C          1.95840        0.10320       -0.88650
N          0.81720        0.30930       -0.12990
C          1.20650        0.40690        1.18150
C          0.58990        0.56890        2.42550
S         -1.02700        0.68430        3.01630
C         -0.54660       -0.08320       -0.41750
C         -0.65470       -1.59890       -0.56770
C          0.17320        0.98580       -3.50480
C         -1.05380        0.15890       -3.88370
C          1.21090       -0.17320       -9.68300
C          0.05600        0.29360      -10.23700
S         -0.23510        0.15490      -11.96940
C         -1.79850        1.00210      -11.83460
O         -2.52580        1.24010      -12.75550
N         -2.00810        1.33130      -10.52510
C         -3.22780        2.01060      -10.12160
C         -4.35880        1.01820       -9.88580
C         -1.05270        0.96480       -9.59450
O         -1.17650        1.20750       -8.40650
H         -0.62730        1.22380        6.69240
H         -6.20340        0.52900        3.87820
H         -5.71280        1.54930        8.81480
H         -8.96290        1.97930        7.82960
H         -8.75360       -0.32790        9.14440
H        -11.27900        0.05040        8.52550
H        -11.58510       -0.47810        5.93990
H         -9.24880       -1.18380        4.96750
H         -7.50350       -1.36190        7.00280
H         -8.98660       -2.27390        7.36510
H         -9.25860        1.46080        5.29400
H          0.56140       -0.76980        6.95290
H          1.80300       -0.64130        9.06320
H          4.94340        1.20380        9.52510
H          3.82000        0.03620       10.24000
H          2.17220        1.89880       10.61640
H          3.34770        3.04590        9.98380
H          3.69450        2.16920       11.47900
H          4.41510        2.26790        7.35780
H          3.15610        2.16930        5.25210
H          4.37670       -2.86410       -7.74080
H          6.18950       -3.59780       -9.22160
H          7.02550       -1.96650      -12.42560
H          7.21870       -3.43400      -11.45540
H          8.67960       -2.18610       -9.86290
H          9.32900       -2.12350      -11.50530
H          8.48840       -0.72390      -10.82940
H          5.65360       -0.10850      -11.61540
H          3.85790        0.64410      -10.12540
H         -1.15280        0.24590        0.42980
H         -0.92140        0.41360       -1.30770
H         -1.68760       -1.87980       -0.75390
H         -0.03670       -1.94920       -1.39230
H         -0.32180       -2.09070        0.34340
H          0.35310        1.71750       -4.30050
H          0.02870        1.53970       -2.57620
H         -1.19820       -0.67810       -3.20650
H         -1.93880        0.78890       -3.86360
H         -0.93980       -0.23150       -4.89100
H          1.91000       -0.62730      -10.37600
H         -3.49400        2.71240      -10.91510
H         -2.99340        2.55200       -9.20200
H         -4.57660        0.47300      -10.80110
H         -5.25290        1.55110       -9.57500
H         -4.08280        0.31150       -9.10630
