112

C          4.60050        1.38720        2.90550
C          5.24030        1.85110        4.01530
C          4.59150        2.25130        5.28800
O          3.44640        2.03470        5.62390
C          5.66780        2.81120        6.12660
C          5.52940        3.44110        7.36170
C          6.71370        3.88550        7.89890
C          7.94990        3.69430        7.26640
C          8.10310        3.05960        6.05760
C          6.90690        2.61640        5.48310
C          6.67620        1.94470        4.20640
C          7.65370        1.51060        3.34860
C          7.43700        0.87390        2.10880
N          7.35130        0.35630        1.08670
C          9.03860        1.61400        3.59740
N         10.17820        1.65750        3.73060
C          8.71020        4.40300        8.35920
C          9.17220        5.84260        8.04930
C          9.43920        6.43910        9.41230
C          8.26780        6.62720       10.00660
C          7.18940        6.16050        9.05540
C          7.84160        6.53030        7.71690
C          7.33160        4.62290        9.06100
C          3.23460        1.52480        2.55520
C          2.32080        2.55350        2.74290
C          2.57390        3.87600        3.39240
C          1.64560        4.12300        4.58120
C          1.12400        2.29330        2.05790
S         -0.34830        3.22270        1.87930
C         -0.95960        2.00990        0.81240
C         -2.05420        1.80810       -0.04020
C         -3.13280        2.66590       -0.36700
C         -3.97000        2.31780       -1.48580
N         -4.89800        3.20580       -1.78290
Se        -4.77960        4.54960       -0.64700
N         -3.41950        3.81870        0.20460
C         -3.75480        1.07480       -2.12870
C         -4.41170        0.47150       -3.20980
S         -5.64260        0.84810       -4.36310
C         -5.38600       -0.72650       -5.09780
C         -5.94920       -1.33990       -6.20330
C         -6.97940       -0.66380       -7.05010
C         -6.32700        0.05700       -8.23310
C         -5.37530       -2.60780       -6.44170
S         -4.16030       -3.01930       -5.22990
C         -4.40210       -1.49900       -4.45350
C         -3.85240       -0.80230       -3.37500
N         -2.87330       -1.00750       -2.43490
C         -2.76680        0.14820       -1.68630
C         -1.82460        0.57690       -0.71650
N         -0.60930        0.06870       -0.30310
C         -0.08460        0.93400        0.61940
C          1.10990        1.09740        1.32890
S          2.60880        0.26500        1.48650
C          0.22990       -0.95250       -0.89060
C          0.39750       -2.15760        0.03430
C         -2.53920       -2.36620       -2.06200
C         -3.76170       -3.10100       -1.51240
C         -5.72700       -3.37840       -7.54980
C         -5.27790       -4.58650       -8.06170
C         -4.27130       -5.37860       -7.36820
O         -3.79330       -5.04930       -6.28390
N         -3.85390       -6.54970       -7.94670
C         -2.83380       -7.32230       -7.24560
C         -1.43640       -6.82660       -7.59460
C         -4.29640       -7.04920       -9.16790
O         -3.84620       -8.08220       -9.61590
C         -5.32250       -6.24390       -9.82510
C         -5.80010       -5.07280       -9.30430
C         -6.85000       -4.30790      -10.05210
C         -5.79260       -6.75100      -11.05540
N         -6.18030       -7.15630      -12.05620
H          5.18750        0.84670        2.17210
H          4.55890        3.56020        7.81750
H          9.06150        2.91850        5.58710
H          9.46750        3.81280        8.87100
H          9.97170        5.91610        7.31720
H         10.42210        6.60600        9.81190
H          8.07680        6.98260       11.00210
H          6.18280        6.52580        9.24030
H          7.33420        6.11880        6.84620
H          7.95360        7.60670        7.59740
H          7.17020        4.18470       10.04400
H          2.39450        4.65000        2.63870
H          3.61490        3.94600        3.70980
H          0.60640        4.10080        4.26430
H          1.85720        5.09680        5.01560
H          1.79930        3.35890        5.33760
H         -7.49570        0.07210       -6.43060
H         -7.72060       -1.37920       -7.41070
H         -5.78340       -0.64300       -8.86390
H         -5.62730        0.80670       -7.87260
H         -7.08570        0.55240       -8.83330
H         -0.17720       -1.23480       -1.86160
H          1.21720       -0.50900       -1.06210
H         -0.56230       -2.55780        0.35410
H          0.95280       -1.87060        0.92310
H          0.95120       -2.93870       -0.47840
H         -2.16750       -2.88500       -2.95080
H         -1.77250       -2.35490       -1.29630
H         -4.17150       -2.56630       -0.65760
H         -4.53360       -3.19390       -2.27070
H         -3.47100       -4.09850       -1.19520
H         -6.49720       -2.90360       -8.14160
H         -3.01900       -7.21930       -6.17470
H         -2.95490       -8.36250       -7.55240
H         -1.32250       -5.78550       -7.30080
H         -0.69540       -7.42240       -7.06930
H         -1.26350       -6.91780       -8.66450
H         -7.74590       -4.18730       -9.44390
H         -7.12350       -4.83760      -10.96100
H         -6.48340       -3.32020      -10.33100
