130

C          0.06350        3.16630       -5.21230
C          1.21650        3.81350       -5.54560
C          2.29450        4.15210       -4.58530
O          2.23980        4.15870       -3.37410
C          3.50000        4.35380       -5.41210
C          4.79710        4.56630       -4.95230
C          5.73850        4.64610       -5.95030
C          5.41700        4.52550       -7.30920
C          4.13980        4.32820       -7.77830
C          3.16850        4.23920       -6.77770
C          1.73510        3.99560       -6.88410
C          0.97920        4.03140       -8.02610
C         -0.42690        3.91680       -8.02690
N         -1.57270        3.86090       -8.07860
C          1.49820        4.24650       -9.31840
N          1.86630        4.41050      -10.39340
C          6.85540        4.65610       -7.74260
C          7.60110        3.36150       -8.15260
C          6.93390        2.22760       -7.41430
C          7.23820        2.34650       -6.12880
C          8.11690        3.56340       -5.97480
C          8.87700        3.51840       -7.30990
C          7.21290        4.79540       -6.22930
C         -0.44830        3.03820       -3.89740
C         -0.47670        3.95570       -2.85410
C         -0.15840        5.37050       -3.00450
C          0.51110        6.05430       -1.99230
C          0.83260        7.38740       -2.14810
C          0.49070        8.07650       -3.30510
C          0.80570        9.53660       -3.45060
C         -0.33730       10.38630       -2.89060
C         -0.19860        7.39610       -4.30290
C         -0.51980        6.06190       -4.15980
C         -0.94070        3.35770       -1.66830
S         -1.15700        3.95470       -0.03940
C         -1.62760        2.36620        0.45890
C         -1.97060        1.67230        1.62890
C         -2.19330        2.12540        2.94800
C         -2.55860        1.17380        3.95640
N         -2.77500        1.74030        5.13280
S         -2.53610        3.33470        4.98500
N         -2.14640        3.36310        3.41500
C         -2.57090       -0.19940        3.62410
C         -2.66410       -1.33630        4.43820
S         -2.83980       -1.74090        6.10970
C         -2.54150       -3.41850        5.71110
C         -2.41720       -4.57400        6.49140
C         -2.57740       -4.59080        7.94320
C         -1.92390       -3.63820        8.72160
C         -2.07630       -3.63860       10.09350
C         -2.88910       -4.57420       10.72260
C         -3.08860       -4.54020       12.20900
C         -4.26430       -3.62770       12.56610
C         -3.55590       -5.50910        9.93880
C         -3.40190       -5.52470        8.56720
C         -2.05420       -5.67700        5.71230
S         -2.02390       -5.28500        3.99200
C         -2.35880       -3.63110        4.33700
C         -2.43310       -2.44410        3.61150
N         -2.25040       -2.03840        2.31750
C         -2.31470       -0.65580        2.29730
C         -2.12690        0.30210        1.26760
N         -1.95290        0.19120       -0.10290
C         -1.64090        1.43320       -0.58280
C         -1.27190        2.00480       -1.80470
S         -1.08280        1.46380       -3.43070
C         -2.39140       -0.83930       -1.01880
C         -3.86340       -1.18510       -0.81210
C         -1.67760       -2.96360        1.36460
C         -0.19570       -2.68380        1.13120
C         -1.68900       -6.95370        6.16730
C         -0.96680       -7.91140        5.50470
C         -1.08720       -9.33290        5.90520
O         -1.61320       -9.76360        6.90560
C         -0.47980      -10.09730        4.78990
C         -0.41520      -11.46560        4.57560
Cl        -1.06430      -12.57240        5.71070
C          0.19100      -11.93840        3.41350
C          0.71240      -11.03760        2.50030
Br         1.51110      -11.70740        0.91720
C          0.67170       -9.66110        2.69690
C          0.07160       -9.20130        3.85350
C         -0.09040       -7.83880        4.36490
C          0.69460       -6.77110        4.00490
C          0.76120       -5.57560        4.75090
N          0.88990       -4.60990        5.35890
C          1.56890       -6.76260        2.90250
N          2.26370       -6.67910        1.99180
H         -0.46000        2.60540       -5.97940
H          5.00400        4.64620       -3.89660
H          3.90320        4.22770       -8.82490
H          7.08350        5.49190       -8.40090
H          7.72150        3.23070       -9.22460
H          6.28330        1.51040       -7.87970
H          6.89220        1.74910       -5.30570
H          8.70730        3.61660       -5.06380
H          9.54090        2.65880       -7.38730
H          9.43030        4.43140       -7.52550
H          7.67290        5.72410       -5.89730
H          0.81150        5.52690       -1.10090
H          1.36490        7.90150       -1.36070
H          0.95300        9.78130       -4.50450
H          1.72590        9.77210       -2.91210
H         -1.26120       10.17600       -3.42450
H         -0.49280       10.16350       -1.83750
H         -0.10950       11.44470       -2.99290
H         -0.48730        7.91930       -5.20360
H         -1.06990        5.55440       -4.93990
H         -1.27610       -2.91700        8.24720
H         -1.55370       -2.90250       10.68690
H         -2.18460       -4.16900       12.69550
H         -3.28890       -5.54730       12.57950
H         -5.17900       -3.98920       12.10170
H         -4.40890       -3.59960       13.64330
H         -4.07870       -2.61580       12.21310
H         -4.20240       -6.23530       10.40990
H         -3.94810       -6.24270        7.97260
H         -1.75360       -1.72150       -0.94380
H         -2.25680       -0.43540       -2.02530
H         -4.47920       -0.30610       -0.98800
H         -4.16180       -1.96140       -1.51150
H         -4.05170       -1.53260        0.20090
H         -2.24380       -2.95320        0.43410
H         -1.79030       -3.96150        1.79540
H         -0.04010       -1.67920        0.74520
H          0.35100       -2.77850        2.06690
H          0.21020       -3.40130        0.42340
H         -2.06320       -7.25000        7.14080
H          0.24930      -12.99950        3.23070
H          1.08790       -8.99230        1.96110
