
  xtb     02022209313D
 energy: -190.246362408769 gnorm: 0.000590533536 xtb: 6.4.1 (unknown)
104118  0     0  0            999 V2000
    6.3705    0.1385    1.5482 C   0  0  0  0  0  0  0  0  0  0  0  0
    6.7788   -0.0399    0.2512 C   0  0  0  0  0  0  0  0  0  0  0  0
    5.9104   -0.1830   -0.9203 C   0  0  0  0  0  0  0  0  0  0  0  0
    4.6926   -0.1083   -0.9558 O   0  0  0  0  0  0  0  0  0  0  0  0
    6.7973   -0.4371   -2.0667 C   0  0  0  0  0  0  0  0  0  0  0  0
    6.4166   -0.6707   -3.3865 C   0  0  0  0  0  0  0  0  0  0  0  0
    7.4702   -0.8851   -4.2421 C   0  0  0  0  0  0  0  0  0  0  0  0
    8.8049   -0.8698   -3.8160 C   0  0  0  0  0  0  0  0  0  0  0  0
    9.1937   -0.6429   -2.5170 C   0  0  0  0  0  0  0  0  0  0  0  0
    8.1371   -0.4200   -1.6288 C   0  0  0  0  0  0  0  0  0  0  0  0
    8.1552   -0.1543   -0.1909 C   0  0  0  0  0  0  0  0  0  0  0  0
    9.2858   -0.0211    0.5748 C   0  0  0  0  0  0  0  0  0  0  0  0
    9.3187    0.2484    1.9588 C   0  0  0  0  0  0  0  0  0  0  0  0
    9.4368    0.4671    3.0810 N   0  0  0  0  0  0  0  0  0  0  0  0
   10.6034   -0.1206    0.0805 C   0  0  0  0  0  0  0  0  0  0  0  0
   11.7032   -0.1901   -0.2421 N   0  0  0  0  0  0  0  0  0  0  0  0
    9.3340   -1.1538   -5.1996 C   0  0  0  0  0  0  0  0  0  0  0  0
    9.9246    0.0452   -5.9713 C   0  0  0  0  0  0  0  0  0  0  0  0
    9.9094   -0.4104   -7.4126 C   0  0  0  0  0  0  0  0  0  0  0  0
    8.6458   -0.4271   -7.8172 C   0  0  0  0  0  0  0  0  0  0  0  0
    7.7856    0.0176   -6.6562 C   0  0  0  0  0  0  0  0  0  0  0  0
    8.7386    1.0183   -5.9900 C   0  0  0  0  0  0  0  0  0  0  0  0
    7.8456   -1.1721   -5.6747 C   0  0  0  0  0  0  0  0  0  0  0  0
    5.0891    0.2589    2.0994 C   0  0  0  0  0  0  0  0  0  0  0  0
    4.8630    0.3941    3.4790 C   0  0  0  0  0  0  0  0  0  0  0  0
    5.9107    0.3721    4.5435 C   0  0  0  0  0  0  0  0  0  0  0  0
    6.2812   -1.0680    4.9096 C   0  0  0  0  0  0  0  0  0  0  0  0
    3.5064    0.4902    3.7624 C   0  0  0  0  0  0  0  0  0  0  0  0
    2.6789    0.4474    2.6282 C   0  0  0  0  0  0  0  0  0  0  0  0
    3.5872    0.2653    1.1740 S   0  0  0  0  0  0  0  0  0  0  0  0
    1.3301    0.5398    2.9880 C   0  0  0  0  0  0  0  0  0  0  0  0
    1.1515    0.6560    4.3712 C   0  0  0  0  0  0  0  0  0  0  0  0
    2.6274    0.6519    5.2717 S   0  0  0  0  0  0  0  0  0  0  0  0
   -0.2263    0.7574    4.5969 C   0  0  0  0  0  0  0  0  0  0  0  0
   -0.9468    0.9809    5.7909 C   0  0  0  0  0  0  0  0  0  0  0  0
   -0.4829    1.1208    7.0228 N   0  0  0  0  0  0  0  0  0  0  0  0
   -1.7310    1.4187    8.0093 S   0  0  0  0  0  0  0  0  0  0  0  0
   -2.9116    1.3772    6.9028 N   0  0  0  0  0  0  0  0  0  0  0  0
   -2.3690    1.1281    5.7214 C   0  0  0  0  0  0  0  0  0  0  0  0
   -3.0107    0.9498    4.4758 C   0  0  0  0  0  0  0  0  0  0  0  0
   -4.3725    0.9155    4.1538 C   0  0  0  0  0  0  0  0  0  0  0  0
   -5.9030    1.1128    4.9332 S   0  0  0  0  0  0  0  0  0  0  0  0
   -6.6907    0.7376    3.4168 C   0  0  0  0  0  0  0  0  0  0  0  0
   -8.0241    0.6404    3.0506 C   0  0  0  0  0  0  0  0  0  0  0  0
   -8.1842    0.3101    1.7129 C   0  0  0  0  0  0  0  0  0  0  0  0
   -6.6183    0.1257    0.9046 S   0  0  0  0  0  0  0  0  0  0  0  0
   -5.7848    0.4819    2.3661 C   0  0  0  0  0  0  0  0  0  0  0  0
   -4.4606    0.5863    2.7945 C   0  0  0  0  0  0  0  0  0  0  0  0
   -3.2054    0.4451    2.2649 N   0  0  0  0  0  0  0  0  0  0  0  0
   -3.0475   -0.1964    0.9787 C   0  0  0  0  0  0  0  0  0  0  0  0
   -2.5243   -1.6230    1.1265 C   0  0  0  0  0  0  0  0  0  0  0  0
   -2.2877    0.6659    3.2784 C   0  0  0  0  0  0  0  0  0  0  0  0
   -0.8673    0.6637    3.3244 C   0  0  0  0  0  0  0  0  0  0  0  0
    0.1160    0.5445    2.3561 N   0  0  0  0  0  0  0  0  0  0  0  0
    0.0676    0.7863    0.9305 C   0  0  0  0  0  0  0  0  0  0  0  0
   -0.4383    2.1932    0.6213 C   0  0  0  0  0  0  0  0  0  0  0  0
   -9.3114    0.1338    0.8944 C   0  0  0  0  0  0  0  0  0  0  0  0
  -10.6527    0.1173    1.1816 C   0  0  0  0  0  0  0  0  0  0  0  0
  -11.3111    0.1308    2.5067 C   0  0  0  0  0  0  0  0  0  0  0  0
  -10.8178    0.2928    3.6040 O   0  0  0  0  0  0  0  0  0  0  0  0
  -12.7426   -0.1199    2.2426 C   0  0  0  0  0  0  0  0  0  0  0  0
  -13.7701   -0.2511    3.1578 C   0  0  0  0  0  0  0  0  0  0  0  0
  -15.0490   -0.4958    2.6841 C   0  0  0  0  0  0  0  0  0  0  0  0
  -15.2516   -0.6008    1.3158 C   0  0  0  0  0  0  0  0  0  0  0  0
  -16.4956   -0.8439    0.8728 F   0  0  0  0  0  0  0  0  0  0  0  0
  -14.2357   -0.4699    0.3786 C   0  0  0  0  0  0  0  0  0  0  0  0
  -12.9600   -0.2238    0.8592 C   0  0  0  0  0  0  0  0  0  0  0  0
  -11.6842   -0.0307    0.1698 C   0  0  0  0  0  0  0  0  0  0  0  0
  -11.5375    0.0583   -1.1902 C   0  0  0  0  0  0  0  0  0  0  0  0
  -10.3392    0.3310   -1.8845 C   0  0  0  0  0  0  0  0  0  0  0  0
   -9.4209    0.5632   -2.5347 N   0  0  0  0  0  0  0  0  0  0  0  0
  -12.5991   -0.0777   -2.1108 C   0  0  0  0  0  0  0  0  0  0  0  0
  -13.4085   -0.1819   -2.9179 N   0  0  0  0  0  0  0  0  0  0  0  0
    7.1565    0.1850    2.2893 H   0  0  0  0  0  0  0  0  0  0  0  0
    5.3756   -0.6784   -3.6697 H   0  0  0  0  0  0  0  0  0  0  0  0
   10.2250   -0.6424   -2.2068 H   0  0  0  0  0  0  0  0  0  0  0  0
    9.9263   -2.0608   -5.3044 H   0  0  0  0  0  0  0  0  0  0  0  0
   10.8702    0.4143   -5.5840 H   0  0  0  0  0  0  0  0  0  0  0  0
   10.7850   -0.7168   -7.9541 H   0  0  0  0  0  0  0  0  0  0  0  0
    8.2549   -0.7505   -8.7641 H   0  0  0  0  0  0  0  0  0  0  0  0
    6.7827    0.3620   -6.8942 H   0  0  0  0  0  0  0  0  0  0  0  0
    8.4183    1.3470   -5.0029 H   0  0  0  0  0  0  0  0  0  0  0  0
    8.9288    1.8865   -6.6187 H   0  0  0  0  0  0  0  0  0  0  0  0
    7.4446   -2.0923   -6.0956 H   0  0  0  0  0  0  0  0  0  0  0  0
    5.5090    0.8716    5.4274 H   0  0  0  0  0  0  0  0  0  0  0  0
    6.8067    0.9076    4.2261 H   0  0  0  0  0  0  0  0  0  0  0  0
    5.4051   -1.6047    5.2662 H   0  0  0  0  0  0  0  0  0  0  0  0
    6.6829   -1.5938    4.0464 H   0  0  0  0  0  0  0  0  0  0  0  0
    7.0334   -1.0668    5.6931 H   0  0  0  0  0  0  0  0  0  0  0  0
   -8.8554    0.7924    3.7136 H   0  0  0  0  0  0  0  0  0  0  0  0
   -2.4113    0.4020    0.3275 H   0  0  0  0  0  0  0  0  0  0  0  0
   -4.0394   -0.2227    0.5209 H   0  0  0  0  0  0  0  0  0  0  0  0
   -2.3981   -2.0747    0.1464 H   0  0  0  0  0  0  0  0  0  0  0  0
   -1.5708   -1.6417    1.6492 H   0  0  0  0  0  0  0  0  0  0  0  0
   -3.2332   -2.2215    1.6941 H   0  0  0  0  0  0  0  0  0  0  0  0
    1.0921    0.6849    0.5647 H   0  0  0  0  0  0  0  0  0  0  0  0
   -0.5265    0.0231    0.4286 H   0  0  0  0  0  0  0  0  0  0  0  0
   -1.4287    2.3601    1.0391 H   0  0  0  0  0  0  0  0  0  0  0  0
    0.2370    2.9315    1.0475 H   0  0  0  0  0  0  0  0  0  0  0  0
   -0.4787    2.3435   -0.4540 H   0  0  0  0  0  0  0  0  0  0  0  0
   -9.0518   -0.0302   -0.1453 H   0  0  0  0  0  0  0  0  0  0  0  0
  -13.5682   -0.1637    4.2139 H   0  0  0  0  0  0  0  0  0  0  0  0
  -15.8876   -0.6074    3.3529 H   0  0  0  0  0  0  0  0  0  0  0  0
  -14.4659   -0.5664   -0.6693 H   0  0  0  0  0  0  0  0  0  0  0  0
  1  2  2  0  0  0  0
  2  3  1  0  0  0  0
  3  4  2  0  0  0  0
  3  5  1  0  0  0  0
  5  6  2  0  0  0  0
  6  7  1  0  0  0  0
  7  8  2  0  0  0  0
  8  9  1  0  0  0  0
  9 10  2  0  0  0  0
 10 11  1  0  0  0  0
 11 12  2  0  0  0  0
 12 13  1  0  0  0  0
 13 14  3  0  0  0  0
 12 15  1  0  0  0  0
 15 16  3  0  0  0  0
  8 17  1  0  0  0  0
 17 18  1  0  0  0  0
 18 19  1  0  0  0  0
 19 20  2  0  0  0  0
 20 21  1  0  0  0  0
 21 22  1  0  0  0  0
 21 23  1  0  0  0  0
  1 24  1  0  0  0  0
 24 25  2  0  0  0  0
 25 26  1  0  0  0  0
 26 27  1  0  0  0  0
 25 28  1  0  0  0  0
 28 29  2  0  0  0  0
 29 30  1  0  0  0  0
 29 31  1  0  0  0  0
 31 32  2  0  0  0  0
 32 33  1  0  0  0  0
 32 34  1  0  0  0  0
 34 35  1  0  0  0  0
 35 36  2  0  0  0  0
 36 37  1  0  0  0  0
 37 38  1  0  0  0  0
 38 39  2  0  0  0  0
 39 40  1  0  0  0  0
 40 41  1  0  0  0  0
 41 42  1  0  0  0  0
 42 43  1  0  0  0  0
 43 44  1  0  0  0  0
 44 45  2  0  0  0  0
 45 46  1  0  0  0  0
 46 47  1  0  0  0  0
 47 48  1  0  0  0  0
 48 49  1  0  0  0  0
 49 50  1  0  0  0  0
 50 51  1  0  0  0  0
 49 52  1  0  0  0  0
 52 53  1  0  0  0  0
 53 54  1  0  0  0  0
 54 55  1  0  0  0  0
 55 56  1  0  0  0  0
 45 57  1  0  0  0  0
 57 58  2  0  0  0  0
 58 59  1  0  0  0  0
 59 60  2  0  0  0  0
 59 61  1  0  0  0  0
 61 62  2  0  0  0  0
 62 63  1  0  0  0  0
 63 64  2  0  0  0  0
 64 65  1  0  0  0  0
 64 66  1  0  0  0  0
 66 67  2  0  0  0  0
 67 68  1  0  0  0  0
 68 69  2  0  0  0  0
 69 70  1  0  0  0  0
 70 71  3  0  0  0  0
 69 72  1  0  0  0  0
 72 73  3  0  0  0  0
 11  2  1  0  0  0  0
 23 17  1  0  0  0  0
 30 24  1  0  0  0  0
 54 31  1  0  0  0  0
 68 58  1  0  0  0  0
 10  5  1  0  0  0  0
 22 18  1  0  0  0  0
 33 28  1  0  0  0  0
 53 34  2  0  0  0  0
 67 61  1  0  0  0  0
 23  7  1  0  0  0  0
 39 35  1  0  0  0  0
 52 40  2  0  0  0  0
 48 41  2  0  0  0  0
 47 43  2  0  0  0  0
  1 74  1  0  0  0  0
  6 75  1  0  0  0  0
  9 76  1  0  0  0  0
 17 77  1  0  0  0  0
 18 78  1  0  0  0  0
 19 79  1  0  0  0  0
 20 80  1  0  0  0  0
 21 81  1  0  0  0  0
 22 82  1  0  0  0  0
 22 83  1  0  0  0  0
 23 84  1  0  0  0  0
 26 85  1  0  0  0  0
 26 86  1  0  0  0  0
 27 87  1  0  0  0  0
 27 88  1  0  0  0  0
 27 89  1  0  0  0  0
 44 90  1  0  0  0  0
 50 91  1  0  0  0  0
 50 92  1  0  0  0  0
 51 93  1  0  0  0  0
 51 94  1  0  0  0  0
 51 95  1  0  0  0  0
 55 96  1  0  0  0  0
 55 97  1  0  0  0  0
 56 98  1  0  0  0  0
 56 99  1  0  0  0  0
 56100  1  0  0  0  0
 57101  1  0  0  0  0
 62102  1  0  0  0  0
 63103  1  0  0  0  0
 66104  1  0  0  0  0
M  END
