104

C         -3.00380        2.84460        5.22060
C         -2.76650        1.80660        6.06770
C         -2.45610        2.06400        7.49860
O         -2.63820        3.09470        8.10670
C         -1.82180        0.82170        7.98400
C         -1.23010        0.60580        9.22720
C         -0.69530       -0.65080        9.38250
C         -0.74200       -1.62770        8.37810
C         -1.33020       -1.43430        7.15100
C         -1.87920       -0.16180        6.97320
C         -2.60720        0.38840        5.83470
C         -3.25570       -0.33810        4.86930
C         -3.11470       -1.72620        4.68580
N         -3.00950       -2.84780        4.46210
C         -4.19970        0.23730        3.99330
N         -5.00830        0.66840        3.30140
C          0.00240       -2.63820        9.21440
C          1.49330       -2.84970        8.87590
C          2.05850       -3.49700       10.11960
C          2.10130       -2.57330       11.07120
C          1.56590       -1.28610       10.48670
C          2.05380       -1.43090        9.03930
C          0.05260       -1.55050       10.33490
C         -2.87190        2.88260        3.81450
C         -3.39500        3.83960        2.95470
C         -4.34700        4.91340        3.35840
C         -5.77270        4.35870        3.41490
C         -3.00790        3.60380        1.63050
C         -2.17290        2.49240        1.46460
S         -1.85100        1.71910        2.96960
C         -1.82250        2.30380        0.12560
C         -2.37180        3.28490       -0.70500
S         -3.35050        4.43870        0.13170
C         -1.91630        3.01380       -2.00120
C         -2.09800        3.74560       -3.19450
N         -2.79710        4.85340       -3.38770
S         -2.62540        5.30220       -4.93330
N         -1.65180        4.10220       -5.41340
C         -1.42920        3.30580       -4.37940
C         -0.66820        2.11780       -4.32790
C          0.02470        1.45160       -5.34450
S          0.39310        1.64540       -7.02280
C          1.25740        0.12410       -6.97980
C          1.95570       -0.58810       -7.94170
C          2.49310       -1.76710       -7.44310
S          2.09960       -1.97830       -5.72840
C          1.24060       -0.48980       -5.70890
C          0.54090        0.27910       -4.77910
N          0.19180        0.20500       -3.45800
C          0.52740       -0.99510       -2.72760
C          1.97430       -0.97170       -2.23410
C         -0.53340        1.33800       -3.13670
C         -1.11330        1.83280       -1.93370
N         -1.06290        1.43760       -0.60790
C         -0.40230        0.36100        0.09270
C         -1.35650       -0.80400        0.35770
C          3.25380       -2.79950       -8.01250
C          3.78770       -2.96290       -9.26650
C          3.77360       -2.01790      -10.40160
O          3.21840       -0.94370      -10.49900
C          4.60900       -2.64410      -11.45090
C          4.93130       -2.13530      -12.69240
C          5.74620       -2.89440      -13.52320
Cl         6.19060       -2.32100      -15.08240
C          6.20750       -4.13560      -13.07840
F          6.99600       -4.86080      -13.88060
C          5.88430       -4.65250      -11.83350
C          5.07040       -3.89300      -11.00670
C          4.54900       -4.13580       -9.66340
C          4.73660       -5.29480       -8.95450
C          4.21220       -5.59700       -7.67960
N          3.82540       -5.93910       -6.65300
C          5.48920       -6.39300       -9.42440
N          6.08770       -7.32100       -9.73750
H         -3.23500        3.79050        5.70110
H         -1.21700        1.38070        9.97740
H         -1.36190       -2.18870        6.38170
H         -0.52500       -3.56890        9.41400
H          1.67850       -3.35700        7.93300
H          2.30820       -4.53910       10.19280
H          2.39410       -2.68960       12.09810
H          1.81780       -0.36830       11.01110
H          3.13990       -1.40670        8.96720
H          1.62700       -0.70270        8.35200
H         -0.44110       -1.75610       11.28260
H         -4.29840        5.71920        2.62330
H         -4.07290        5.31420        4.33600
H         -5.83230        3.53590        4.12280
H         -6.46500        5.13840        3.72080
H         -6.07160        3.98920        2.43790
H          2.08350       -0.28010       -8.96280
H         -0.17950       -1.14270       -1.91640
H          0.41090       -1.83570       -3.41990
H          2.18660       -0.07190       -1.65990
H          2.16640       -1.84230       -1.61350
H          2.65670       -0.99680       -3.07950
H          0.48350        0.04800       -0.45090
H         -0.07050        0.76510        1.05510
H         -2.16560       -0.48390        1.00960
H         -0.82530       -1.61600        0.84600
H         -1.80040       -1.17510       -0.56390
H          3.45740       -3.60000       -7.31100
H          4.55890       -1.17270      -13.00460
H          6.27680       -5.61650      -11.55480
