110

C          3.11710       -5.42120       -1.17930
C          3.50680       -5.96230        0.00870
C          2.73570       -5.82210        1.27010
O          1.57190       -5.50980        1.40250
C          3.72080       -6.02920        2.34890
C          3.50430       -5.85910        3.71490
C          4.62010       -6.07010        4.48850
C          5.86370       -6.42420        3.94710
C          6.09230       -6.59530        2.60250
C          4.96910       -6.38300        1.79700
C          4.83820       -6.42520        0.34560
C          5.76530       -6.88880       -0.54910
C          5.52760       -6.98170       -1.93710
N          5.38020       -7.09920       -3.06950
C          7.04040       -7.37390       -0.19490
N          8.09080       -7.77550        0.03650
C          6.53250       -6.45560        5.29890
C          6.78850       -7.84760        5.91370
C          6.99250       -7.56020        7.38390
C          5.81560       -7.22460        7.89670
C          4.79610       -7.27960        6.78180
C          5.37190       -8.43530        5.95360
C          5.14600       -6.06100        5.90200
C          1.79830       -4.98910       -1.47540
C          0.57750       -5.58860       -1.21820
C          0.39560       -6.98500       -0.72600
C         -0.37330       -7.83700       -1.73580
C         -0.48350       -4.74740       -1.59190
C         -0.08030       -3.51260       -2.11310
S          1.63380       -3.41180       -2.24850
C         -1.16430       -2.65840       -2.33090
C         -2.38620       -3.26320       -2.01320
S         -2.22050       -4.88590       -1.43870
C         -3.38910       -2.30070       -2.22200
C         -4.80090       -2.35670       -2.16910
N         -5.57470       -3.40100       -1.92240
S         -7.12090       -2.94010       -2.05190
N         -6.86440       -1.38480       -2.42000
C         -5.55990       -1.16950       -2.45740
C         -4.87630        0.05700       -2.63330
C         -5.32130        1.38590       -2.62460
S         -6.80950        2.26880       -2.54310
C         -5.88820        3.74900       -2.35800
C         -6.23820        5.06560       -2.13530
C         -5.12900        5.89950       -1.96110
S         -3.61880        5.00870       -2.11610
C         -4.49210        3.54940       -2.39050
C         -4.18010        2.20050       -2.56460
N         -3.05200        1.42420       -2.58800
C         -1.76610        1.98870       -2.24050
C         -1.16890        2.81230       -3.38040
C         -3.45210        0.10740       -2.63840
C         -2.72070       -1.10300       -2.59520
N         -1.36460       -1.35490       -2.70520
C         -0.41760       -0.69690       -3.58030
C         -0.22150       -1.48520       -4.87500
C         -5.25700        7.26050       -1.65950
C         -4.29810        8.19460       -1.34870
C         -2.85770        7.94320       -1.25810
O         -2.25710        6.92560       -1.55710
C         -2.25760        9.18510       -0.73380
C         -0.93560        9.42410       -0.41910
C         -0.61600       10.68280        0.08130
O          0.67020       11.06610        0.40540
C          1.55860       10.20900        0.95850
O          1.31520        9.07400        1.25310
C          2.87060       10.91060        1.17040
C         -1.59950       11.65930        0.23220
C         -2.92220       11.40920       -0.09330
C         -3.26230       10.15370       -0.57590
C         -4.54340        9.57560       -0.98120
C         -5.73690       10.24950       -1.01500
C         -6.97420        9.71480       -1.43030
N         -8.01700        9.36070       -1.75740
C         -5.88920       11.60310       -0.64770
N         -6.08310       12.69850       -0.36350
H          3.87180       -5.19040       -1.92310
H          2.53350       -5.57610        4.09050
H          7.05660       -6.84980        2.19440
H          7.37020       -5.77280        5.42780
H          7.55950       -8.42970        5.41670
H          7.94970       -7.57550        7.87100
H          5.59330       -6.90340        8.89730
H          3.75200       -7.34420        7.07600
H          4.91210       -8.55140        4.97390
H          5.33460       -9.38300        6.48800
H          5.05920       -5.11430        6.43220
H          1.37040       -7.43570       -0.53720
H         -0.15030       -6.94880        0.21960
H         -1.36920       -7.43640       -1.90540
H          0.15690       -7.86900       -2.68530
H         -0.47040       -8.85240       -1.36070
H         -7.24760        5.43040       -2.07530
H         -1.09970        1.18400       -1.92940
H         -1.91570        2.65110       -1.38060
H         -0.15850        3.11370       -3.12030
H         -1.13980        2.25200       -4.31260
H         -1.75970        3.70900       -3.54390
H          0.53870       -0.60200       -3.05600
H         -0.79620        0.28860       -3.83160
H          0.20660       -2.46370       -4.67660
H         -1.17430       -1.61730       -5.38360
H          0.45290       -0.94210       -5.53120
H         -6.28780        7.59300       -1.63800
H         -0.19510        8.65220       -0.55130
H          2.74190       11.69210        1.91620
H          3.19270       11.37750        0.24330
H          3.61310       10.19710        1.51370
H         -1.30750       12.62520        0.61380
H         -3.65790       12.18460        0.04160
