
  xtb     02022223043D
 energy: -179.302419025894 gnorm: 0.000811306004 xtb: 6.4.1 (unknown)
100113  0     0  0            999 V2000
   -4.6549    4.1150   -1.1980 C   0  0  0  0  0  0  0  0  0  0  0  0
   -4.2073    4.7713   -2.3178 C   0  0  0  0  0  0  0  0  0  0  0  0
   -2.9064    4.5786   -2.9462 C   0  0  0  0  0  0  0  0  0  0  0  0
   -2.0351    3.7817   -2.6117 O   0  0  0  0  0  0  0  0  0  0  0  0
   -2.8281    5.5258   -4.0648 C   0  0  0  0  0  0  0  0  0  0  0  0
   -1.7564    5.7187   -4.9349 C   0  0  0  0  0  0  0  0  0  0  0  0
   -1.9733    6.6924   -5.8800 C   0  0  0  0  0  0  0  0  0  0  0  0
   -3.1663    7.4238   -5.9519 C   0  0  0  0  0  0  0  0  0  0  0  0
   -4.2305    7.2440   -5.0994 C   0  0  0  0  0  0  0  0  0  0  0  0
   -4.0345    6.2542   -4.1323 C   0  0  0  0  0  0  0  0  0  0  0  0
   -4.9221    5.7884   -3.0663 C   0  0  0  0  0  0  0  0  0  0  0  0
   -6.1995    6.2342   -2.8482 C   0  0  0  0  0  0  0  0  0  0  0  0
   -7.0688    5.7822   -1.8327 C   0  0  0  0  0  0  0  0  0  0  0  0
   -7.8406    5.4749   -1.0393 N   0  0  0  0  0  0  0  0  0  0  0  0
   -6.8478    7.2169   -3.6265 C   0  0  0  0  0  0  0  0  0  0  0  0
   -7.4423    8.0030   -4.2150 N   0  0  0  0  0  0  0  0  0  0  0  0
   -2.6946    8.2308   -7.1353 C   0  0  0  0  0  0  0  0  0  0  0  0
   -3.2615    7.8293   -8.5135 C   0  0  0  0  0  0  0  0  0  0  0  0
   -2.2890    8.4410   -9.4960 C   0  0  0  0  0  0  0  0  0  0  0  0
   -1.1591    7.7484   -9.4295 C   0  0  0  0  0  0  0  0  0  0  0  0
   -1.3490    6.6566   -8.4010 C   0  0  0  0  0  0  0  0  0  0  0  0
   -2.8395    6.3572   -8.6066 C   0  0  0  0  0  0  0  0  0  0  0  0
   -1.3645    7.4145   -7.0563 C   0  0  0  0  0  0  0  0  0  0  0  0
   -4.0390    3.1338   -0.4080 C   0  0  0  0  0  0  0  0  0  0  0  0
   -4.6852    2.6123    0.7154 C   0  0  0  0  0  0  0  0  0  0  0  0
   -3.9728    1.6534    1.4108 C   0  0  0  0  0  0  0  0  0  0  0  0
   -4.3924    0.7339    2.8463 S   0  0  0  0  0  0  0  0  0  0  0  0
   -2.8644   -0.0673    2.7417 C   0  0  0  0  0  0  0  0  0  0  0  0
   -2.1417   -1.0751    3.3944 C   0  0  0  0  0  0  0  0  0  0  0  0
   -2.5026   -1.9279    4.4605 C   0  0  0  0  0  0  0  0  0  0  0  0
   -1.5942   -2.9635    4.8536 C   0  0  0  0  0  0  0  0  0  0  0  0
   -2.0807   -3.7240    5.8219 N   0  0  0  0  0  0  0  0  0  0  0  0
   -3.5547   -3.1791    6.2089 S   0  0  0  0  0  0  0  0  0  0  0  0
   -3.6288   -1.9532    5.1558 N   0  0  0  0  0  0  0  0  0  0  0  0
   -0.3208   -3.0191    4.2450 C   0  0  0  0  0  0  0  0  0  0  0  0
    0.7918   -3.8206    4.5304 C   0  0  0  0  0  0  0  0  0  0  0  0
    1.8447   -3.3607    3.7307 C   0  0  0  0  0  0  0  0  0  0  0  0
    1.4148   -2.3230    2.9442 N   0  0  0  0  0  0  0  0  0  0  0  0
    2.3917   -1.4639    2.3122 C   0  0  0  0  0  0  0  0  0  0  0  0
    2.3376   -0.0358    2.8436 C   0  0  0  0  0  0  0  0  0  0  0  0
    0.0752   -2.1024    3.2275 C   0  0  0  0  0  0  0  0  0  0  0  0
   -0.8940   -1.2025    2.7125 C   0  0  0  0  0  0  0  0  0  0  0  0
   -0.8877   -0.3118    1.6511 N   0  0  0  0  0  0  0  0  0  0  0  0
   -2.0802    0.3652    1.6673 C   0  0  0  0  0  0  0  0  0  0  0  0
   -2.7016    1.3424    0.8860 C   0  0  0  0  0  0  0  0  0  0  0  0
   -2.3290    2.3415   -0.6460 Se  0  0  0  0  0  2  0  0  0  0  0  0
   -0.1592   -0.3385    0.4031 C   0  0  0  0  0  0  0  0  0  0  0  0
   -0.8057   -1.3039   -0.5875 C   0  0  0  0  0  0  0  0  0  0  0  0
    3.0342   -4.0586    3.9643 C   0  0  0  0  0  0  0  0  0  0  0  0
    2.8533   -5.0592    4.9394 C   0  0  0  0  0  0  0  0  0  0  0  0
    1.2254   -5.1237    5.5767 S   0  0  0  0  0  0  0  0  0  0  0  0
    3.9694   -5.8328    5.2429 C   0  0  0  0  0  0  0  0  0  0  0  0
    5.1096   -5.5060    4.5313 C   0  0  0  0  0  0  0  0  0  0  0  0
    4.7979   -4.0343    3.3587 Se  0  0  0  0  0  2  0  0  0  0  0  0
    6.4218   -6.0051    4.6382 C   0  0  0  0  0  0  0  0  0  0  0  0
    6.9062   -7.1720    5.1753 C   0  0  0  0  0  0  0  0  0  0  0  0
    8.3651   -7.1237    5.4617 C   0  0  0  0  0  0  0  0  0  0  0  0
    9.0902   -6.2600    5.0072 O   0  0  0  0  0  0  0  0  0  0  0  0
    8.8525   -8.0670    6.3361 N   0  0  0  0  0  0  0  0  0  0  0  0
   10.2548   -7.9622    6.7265 C   0  0  0  0  0  0  0  0  0  0  0  0
   11.1506   -8.7290    5.7629 C   0  0  0  0  0  0  0  0  0  0  0  0
    8.1330   -9.1428    6.8419 C   0  0  0  0  0  0  0  0  0  0  0  0
    8.6153   -9.8880    7.6666 O   0  0  0  0  0  0  0  0  0  0  0  0
    6.8030   -9.3215    6.2519 C   0  0  0  0  0  0  0  0  0  0  0  0
    6.2093   -8.3906    5.4456 C   0  0  0  0  0  0  0  0  0  0  0  0
    4.9227   -8.7408    4.7621 C   0  0  0  0  0  0  0  0  0  0  0  0
    6.1550  -10.5428    6.5277 C   0  0  0  0  0  0  0  0  0  0  0  0
    5.6029  -11.5263    6.7365 N   0  0  0  0  0  0  0  0  0  0  0  0
   -5.6407    4.3871   -0.8382 H   0  0  0  0  0  0  0  0  0  0  0  0
   -0.8525    5.1381   -4.8384 H   0  0  0  0  0  0  0  0  0  0  0  0
   -5.1370    7.8215   -5.1663 H   0  0  0  0  0  0  0  0  0  0  0  0
   -2.6548    9.3084   -6.9890 H   0  0  0  0  0  0  0  0  0  0  0  0
   -4.3134    8.0598   -8.6572 H   0  0  0  0  0  0  0  0  0  0  0  0
   -2.4974    9.3191  -10.0784 H   0  0  0  0  0  0  0  0  0  0  0  0
   -0.2349    7.9325   -9.9451 H   0  0  0  0  0  0  0  0  0  0  0  0
   -0.6585    5.8186   -8.4440 H   0  0  0  0  0  0  0  0  0  0  0  0
   -3.0421    5.9328   -9.5885 H   0  0  0  0  0  0  0  0  0  0  0  0
   -3.2749    5.7209   -7.8383 H   0  0  0  0  0  0  0  0  0  0  0  0
   -0.4368    7.9479   -6.8575 H   0  0  0  0  0  0  0  0  0  0  0  0
   -5.6686    2.9419    1.0058 H   0  0  0  0  0  0  0  0  0  0  0  0
    2.2934   -1.4972    1.2229 H   0  0  0  0  0  0  0  0  0  0  0  0
    3.3743   -1.8902    2.5459 H   0  0  0  0  0  0  0  0  0  0  0  0
    2.5137   -0.0345    3.9166 H   0  0  0  0  0  0  0  0  0  0  0  0
    3.1086    0.5615    2.3650 H   0  0  0  0  0  0  0  0  0  0  0  0
    1.3728    0.4264    2.6555 H   0  0  0  0  0  0  0  0  0  0  0  0
    0.8761   -0.6135    0.5654 H   0  0  0  0  0  0  0  0  0  0  0  0
   -0.1854    0.6799   -0.0060 H   0  0  0  0  0  0  0  0  0  0  0  0
   -0.2450   -1.3083   -1.5177 H   0  0  0  0  0  0  0  0  0  0  0  0
   -0.8225   -2.3127   -0.1801 H   0  0  0  0  0  0  0  0  0  0  0  0
   -1.8274   -0.9976   -0.8025 H   0  0  0  0  0  0  0  0  0  0  0  0
    3.9628   -6.5834    6.0117 H   0  0  0  0  0  0  0  0  0  0  0  0
    7.2031   -5.3213    4.3103 H   0  0  0  0  0  0  0  0  0  0  0  0
   10.5155   -6.9022    6.7258 H   0  0  0  0  0  0  0  0  0  0  0  0
   10.3391   -8.3720    7.7346 H   0  0  0  0  0  0  0  0  0  0  0  0
   12.1868   -8.6367    6.0756 H   0  0  0  0  0  0  0  0  0  0  0  0
   11.0508   -8.3265    4.7574 H   0  0  0  0  0  0  0  0  0  0  0  0
   10.8801   -9.7825    5.7554 H   0  0  0  0  0  0  0  0  0  0  0  0
    5.0237   -9.7237    4.3017 H   0  0  0  0  0  0  0  0  0  0  0  0
    4.1040   -8.8165    5.4766 H   0  0  0  0  0  0  0  0  0  0  0  0
    4.6640   -8.0176    3.9957 H   0  0  0  0  0  0  0  0  0  0  0  0
  1  2  2  0  0  0  0
  2  3  1  0  0  0  0
  3  4  2  0  0  0  0
  3  5  1  0  0  0  0
  5  6  2  0  0  0  0
  6  7  1  0  0  0  0
  7  8  2  0  0  0  0
  8  9  1  0  0  0  0
  9 10  2  0  0  0  0
 10 11  1  0  0  0  0
 11 12  2  0  0  0  0
 12 13  1  0  0  0  0
 13 14  3  0  0  0  0
 12 15  1  0  0  0  0
 15 16  3  0  0  0  0
  8 17  1  0  0  0  0
 17 18  1  0  0  0  0
 18 19  1  0  0  0  0
 19 20  2  0  0  0  0
 20 21  1  0  0  0  0
 21 22  1  0  0  0  0
 21 23  1  0  0  0  0
  1 24  1  0  0  0  0
 24 25  2  0  0  0  0
 25 26  1  0  0  0  0
 26 27  1  0  0  0  0
 27 28  1  0  0  0  0
 28 29  1  0  0  0  0
 29 30  1  0  0  0  0
 30 31  1  0  0  0  0
 31 32  2  0  0  0  0
 32 33  1  0  0  0  0
 33 34  1  0  0  0  0
 31 35  1  0  0  0  0
 35 36  1  0  0  0  0
 36 37  2  0  0  0  0
 37 38  1  0  0  0  0
 38 39  1  0  0  0  0
 39 40  1  0  0  0  0
 38 41  1  0  0  0  0
 41 42  1  0  0  0  0
 42 43  1  0  0  0  0
 43 44  1  0  0  0  0
 44 45  1  0  0  0  0
 45 46  1  0  0  0  0
 43 47  1  0  0  0  0
 47 48  1  0  0  0  0
 37 49  1  0  0  0  0
 49 50  2  0  0  0  0
 50 51  1  0  0  0  0
 50 52  1  0  0  0  0
 52 53  2  0  0  0  0
 53 54  1  0  0  0  0
 53 55  1  0  0  0  0
 55 56  2  0  0  0  0
 56 57  1  0  0  0  0
 57 58  2  0  0  0  0
 57 59  1  0  0  0  0
 59 60  1  0  0  0  0
 60 61  1  0  0  0  0
 59 62  1  0  0  0  0
 62 63  2  0  0  0  0
 62 64  1  0  0  0  0
 64 65  2  0  0  0  0
 65 66  1  0  0  0  0
 64 67  1  0  0  0  0
 67 68  3  0  0  0  0
 11  2  1  0  0  0  0
 23 17  1  0  0  0  0
 46 24  1  0  0  0  0
 54 49  1  0  0  0  0
 65 56  1  0  0  0  0
 10  5  1  0  0  0  0
 22 18  1  0  0  0  0
 45 26  2  0  0  0  0
 23  7  1  0  0  0  0
 44 28  2  0  0  0  0
 42 29  2  0  0  0  0
 34 30  2  0  0  0  0
 41 35  2  0  0  0  0
 51 36  1  0  0  0  0
  1 69  1  0  0  0  0
  6 70  1  0  0  0  0
  9 71  1  0  0  0  0
 17 72  1  0  0  0  0
 18 73  1  0  0  0  0
 19 74  1  0  0  0  0
 20 75  1  0  0  0  0
 21 76  1  0  0  0  0
 22 77  1  0  0  0  0
 22 78  1  0  0  0  0
 23 79  1  0  0  0  0
 25 80  1  0  0  0  0
 39 81  1  0  0  0  0
 39 82  1  0  0  0  0
 40 83  1  0  0  0  0
 40 84  1  0  0  0  0
 40 85  1  0  0  0  0
 47 86  1  0  0  0  0
 47 87  1  0  0  0  0
 48 88  1  0  0  0  0
 48 89  1  0  0  0  0
 48 90  1  0  0  0  0
 52 91  1  0  0  0  0
 55 92  1  0  0  0  0
 60 93  1  0  0  0  0
 60 94  1  0  0  0  0
 61 95  1  0  0  0  0
 61 96  1  0  0  0  0
 61 97  1  0  0  0  0
 66 98  1  0  0  0  0
 66 99  1  0  0  0  0
 66100  1  0  0  0  0
M  END
