
  xtb     02112204153D
 energy: -199.442931624218 gnorm: 0.000251032336 xtb: 6.4.1 (unknown)
114128  0     0  0            999 V2000
   -6.5235   -0.8591    2.2287 C   0  0  0  0  0  0  0  0  0  0  0  0
   -6.8620   -1.6752    1.1776 C   0  0  0  0  0  0  0  0  0  0  0  0
   -6.0090   -2.0236    0.0394 C   0  0  0  0  0  0  0  0  0  0  0  0
   -4.8817   -1.6194   -0.1979 O   0  0  0  0  0  0  0  0  0  0  0  0
   -6.7789   -2.9718   -0.7825 C   0  0  0  0  0  0  0  0  0  0  0  0
   -6.3616   -3.5954   -1.9554 C   0  0  0  0  0  0  0  0  0  0  0  0
   -7.2914   -4.4521   -2.4939 C   0  0  0  0  0  0  0  0  0  0  0  0
   -8.5461   -4.6687   -1.9098 C   0  0  0  0  0  0  0  0  0  0  0  0
   -8.9729   -4.0525   -0.7571 C   0  0  0  0  0  0  0  0  0  0  0  0
   -8.0408   -3.1795   -0.1901 C   0  0  0  0  0  0  0  0  0  0  0  0
   -8.1258   -2.3666    1.0232 C   0  0  0  0  0  0  0  0  0  0  0  0
   -9.2235   -2.2841    1.8434 C   0  0  0  0  0  0  0  0  0  0  0  0
   -9.3264   -1.4990    3.0100 C   0  0  0  0  0  0  0  0  0  0  0  0
   -9.4954   -0.8909    3.9710 N   0  0  0  0  0  0  0  0  0  0  0  0
  -10.4336   -2.9770    1.6323 C   0  0  0  0  0  0  0  0  0  0  0  0
  -11.4484   -3.5050    1.5304 N   0  0  0  0  0  0  0  0  0  0  0  0
   -8.9543   -5.6654   -2.9651 C   0  0  0  0  0  0  0  0  0  0  0  0
   -8.9021   -7.1681   -2.5929 C   0  0  0  0  0  0  0  0  0  0  0  0
   -7.8576   -7.3077   -1.5135 C   0  0  0  0  0  0  0  0  0  0  0  0
   -6.6709   -7.1021   -2.0691 C   0  0  0  0  0  0  0  0  0  0  0  0
   -6.8918   -6.8188   -3.5345 C   0  0  0  0  0  0  0  0  0  0  0  0
   -8.1176   -7.7073   -3.7998 C   0  0  0  0  0  0  0  0  0  0  0  0
   -7.5569   -5.4224   -3.6177 C   0  0  0  0  0  0  0  0  0  0  0  0
   -5.3434   -0.1615    2.5051 C   0  0  0  0  0  0  0  0  0  0  0  0
   -5.1549    0.5905    3.6765 C   0  0  0  0  0  0  0  0  0  0  0  0
   -6.1362    0.7306    4.7944 C   0  0  0  0  0  0  0  0  0  0  0  0
   -6.0398   -0.4580    5.7536 C   0  0  0  0  0  0  0  0  0  0  0  0
   -3.8897    1.1602    3.7238 C   0  0  0  0  0  0  0  0  0  0  0  0
   -3.0105    2.2242    5.0291 Se  0  0  0  0  0  2  0  0  0  0  0  0
   -1.5779    2.1770    3.8436 C   0  0  0  0  0  0  0  0  0  0  0  0
   -0.2534    2.6217    3.7763 C   0  0  0  0  0  0  0  0  0  0  0  0
    0.5364    3.2658    4.7526 C   0  0  0  0  0  0  0  0  0  0  0  0
    1.9261    3.4724    4.4848 C   0  0  0  0  0  0  0  0  0  0  0  0
    2.5650    4.0263    5.5025 N   0  0  0  0  0  0  0  0  0  0  0  0
    1.4984    4.2697    6.7004 S   0  0  0  0  0  0  0  0  0  0  0  0
    0.1834    3.6745    5.9606 N   0  0  0  0  0  0  0  0  0  0  0  0
    2.4247    3.1441    3.2060 C   0  0  0  0  0  0  0  0  0  0  0  0
    3.6819    3.3828    2.6430 C   0  0  0  0  0  0  0  0  0  0  0  0
    5.3338    4.0691    3.1529 Se  0  0  0  0  0  2  0  0  0  0  0  0
    5.8006    3.8052    1.3306 C   0  0  0  0  0  0  0  0  0  0  0  0
    6.9663    4.0521    0.6188 C   0  0  0  0  0  0  0  0  0  0  0  0
    8.2054    4.5663    1.2760 C   0  0  0  0  0  0  0  0  0  0  0  0
    9.1204    3.4111    1.6883 C   0  0  0  0  0  0  0  0  0  0  0  0
    6.8316    3.7048   -0.7362 C   0  0  0  0  0  0  0  0  0  0  0  0
    5.2236    3.0816   -1.0979 S   0  0  0  0  0  0  0  0  0  0  0  0
    4.7607    3.2649    0.5539 C   0  0  0  0  0  0  0  0  0  0  0  0
    3.5957    3.0218    1.2916 C   0  0  0  0  0  0  0  0  0  0  0  0
    2.3384    2.5499    1.0199 N   0  0  0  0  0  0  0  0  0  0  0  0
    1.6004    2.5871    2.1852 C   0  0  0  0  0  0  0  0  0  0  0  0
    0.2733    2.2022    2.5211 C   0  0  0  0  0  0  0  0  0  0  0  0
   -0.7106    1.4851    1.8626 N   0  0  0  0  0  0  0  0  0  0  0  0
   -1.8228    1.4594    2.6661 C   0  0  0  0  0  0  0  0  0  0  0  0
   -3.0961    0.8809    2.5976 C   0  0  0  0  0  0  0  0  0  0  0  0
   -3.9217   -0.1222    1.4639 S   0  0  0  0  0  0  0  0  0  0  0  0
   -0.5834    0.4706    0.8388 C   0  0  0  0  0  0  0  0  0  0  0  0
    0.0022   -0.8149    1.4197 C   0  0  0  0  0  0  0  0  0  0  0  0
    1.9171    2.3763   -0.3516 C   0  0  0  0  0  0  0  0  0  0  0  0
    2.3782    1.0417   -0.9359 C   0  0  0  0  0  0  0  0  0  0  0  0
    7.8718    3.8290   -1.6628 C   0  0  0  0  0  0  0  0  0  0  0  0
    7.9147    3.5659   -3.0101 C   0  0  0  0  0  0  0  0  0  0  0  0
    6.7854    3.1340   -3.8450 C   0  0  0  0  0  0  0  0  0  0  0  0
    5.6595    2.8584   -3.4673 O   0  0  0  0  0  0  0  0  0  0  0  0
    7.2886    3.1115   -5.2254 C   0  0  0  0  0  0  0  0  0  0  0  0
    6.6018    2.8105   -6.4046 C   0  0  0  0  0  0  0  0  0  0  0  0
    5.3031    2.4841   -6.3043 O   0  0  0  0  0  0  0  0  0  0  0  0
    4.5758    2.1890   -7.4733 C   0  0  0  0  0  0  0  0  0  0  0  0
    7.3273    2.8777   -7.6006 C   0  0  0  0  0  0  0  0  0  0  0  0
    8.6646    3.2294   -7.5990 C   0  0  0  0  0  0  0  0  0  0  0  0
    9.3473    3.5288   -6.4271 C   0  0  0  0  0  0  0  0  0  0  0  0
    8.6481    3.4672   -5.2345 C   0  0  0  0  0  0  0  0  0  0  0  0
    9.0739    3.7269   -3.8579 C   0  0  0  0  0  0  0  0  0  0  0  0
   10.3561    4.0297   -3.4729 C   0  0  0  0  0  0  0  0  0  0  0  0
   10.7894    4.2398   -2.1478 C   0  0  0  0  0  0  0  0  0  0  0  0
   11.2266    4.4157   -1.0993 N   0  0  0  0  0  0  0  0  0  0  0  0
   11.4468    4.1534   -4.3583 C   0  0  0  0  0  0  0  0  0  0  0  0
   12.3825    4.2708   -5.0137 N   0  0  0  0  0  0  0  0  0  0  0  0
   -7.2788   -0.7343    2.9922 H   0  0  0  0  0  0  0  0  0  0  0  0
   -5.3850   -3.3996   -2.3700 H   0  0  0  0  0  0  0  0  0  0  0  0
   -9.9425   -4.2314   -0.3237 H   0  0  0  0  0  0  0  0  0  0  0  0
   -9.8397   -5.4126   -3.5449 H   0  0  0  0  0  0  0  0  0  0  0  0
   -9.8703   -7.6148   -2.3840 H   0  0  0  0  0  0  0  0  0  0  0  0
   -8.0860   -7.4793   -0.4779 H   0  0  0  0  0  0  0  0  0  0  0  0
   -5.7098   -7.0672   -1.5903 H   0  0  0  0  0  0  0  0  0  0  0  0
   -6.0298   -6.9481   -4.1839 H   0  0  0  0  0  0  0  0  0  0  0  0
   -7.8936   -8.7697   -3.7159 H   0  0  0  0  0  0  0  0  0  0  0  0
   -8.6001   -7.5072   -4.7555 H   0  0  0  0  0  0  0  0  0  0  0  0
   -7.5297   -5.0085   -4.6239 H   0  0  0  0  0  0  0  0  0  0  0  0
   -7.1570    0.8149    4.4188 H   0  0  0  0  0  0  0  0  0  0  0  0
   -5.8945    1.6481    5.3403 H   0  0  0  0  0  0  0  0  0  0  0  0
   -6.7450   -0.3322    6.5701 H   0  0  0  0  0  0  0  0  0  0  0  0
   -6.2706   -1.3879    5.2389 H   0  0  0  0  0  0  0  0  0  0  0  0
   -5.0348   -0.5278    6.1651 H   0  0  0  0  0  0  0  0  0  0  0  0
    7.9042    5.1191    2.1720 H   0  0  0  0  0  0  0  0  0  0  0  0
    8.7501    5.2474    0.6210 H   0  0  0  0  0  0  0  0  0  0  0  0
    9.4488    2.8502    0.8167 H   0  0  0  0  0  0  0  0  0  0  0  0
    8.5939    2.7373    2.3613 H   0  0  0  0  0  0  0  0  0  0  0  0
    9.9988    3.7990    2.1959 H   0  0  0  0  0  0  0  0  0  0  0  0
    0.0281    0.8209    0.0150 H   0  0  0  0  0  0  0  0  0  0  0  0
   -1.5879    0.2746    0.4558 H   0  0  0  0  0  0  0  0  0  0  0  0
    0.0813   -1.5687    0.6415 H   0  0  0  0  0  0  0  0  0  0  0  0
   -0.6405   -1.1991    2.2082 H   0  0  0  0  0  0  0  0  0  0  0  0
    0.9900   -0.6316    1.8388 H   0  0  0  0  0  0  0  0  0  0  0  0
    0.8344    2.5029   -0.4043 H   0  0  0  0  0  0  0  0  0  0  0  0
    2.3701    3.1827   -0.9383 H   0  0  0  0  0  0  0  0  0  0  0  0
    3.4587    1.0419   -1.0482 H   0  0  0  0  0  0  0  0  0  0  0  0
    1.9374    0.8998   -1.9186 H   0  0  0  0  0  0  0  0  0  0  0  0
    2.1015    0.2072   -0.2971 H   0  0  0  0  0  0  0  0  0  0  0  0
    8.7878    4.2039   -1.2263 H   0  0  0  0  0  0  0  0  0  0  0  0
    4.5513    3.0429   -8.1576 H   0  0  0  0  0  0  0  0  0  0  0  0
    4.9846    1.3160   -7.9917 H   0  0  0  0  0  0  0  0  0  0  0  0
    3.5642    1.9674   -7.1379 H   0  0  0  0  0  0  0  0  0  0  0  0
    6.8483    2.6558   -8.5410 H   0  0  0  0  0  0  0  0  0  0  0  0
    9.1930    3.2735   -8.5394 H   0  0  0  0  0  0  0  0  0  0  0  0
   10.3876    3.8025   -6.4650 H   0  0  0  0  0  0  0  0  0  0  0  0
  1  2  2  0  0  0  0
  2  3  1  0  0  0  0
  3  4  2  0  0  0  0
  3  5  1  0  0  0  0
  5  6  2  0  0  0  0
  6  7  1  0  0  0  0
  7  8  2  0  0  0  0
  8  9  1  0  0  0  0
  9 10  2  0  0  0  0
 10 11  1  0  0  0  0
 11 12  2  0  0  0  0
 12 13  1  0  0  0  0
 13 14  3  0  0  0  0
 12 15  1  0  0  0  0
 15 16  3  0  0  0  0
  8 17  1  0  0  0  0
 17 18  1  0  0  0  0
 18 19  1  0  0  0  0
 19 20  2  0  0  0  0
 20 21  1  0  0  0  0
 21 22  1  0  0  0  0
 21 23  1  0  0  0  0
  1 24  1  0  0  0  0
 24 25  2  0  0  0  0
 25 26  1  0  0  0  0
 26 27  1  0  0  0  0
 25 28  1  0  0  0  0
 28 29  1  0  0  0  0
 29 30  1  0  0  0  0
 30 31  1  0  0  0  0
 31 32  1  0  0  0  0
 32 33  1  0  0  0  0
 33 34  2  0  0  0  0
 34 35  1  0  0  0  0
 35 36  1  0  0  0  0
 33 37  1  0  0  0  0
 37 38  1  0  0  0  0
 38 39  1  0  0  0  0
 39 40  1  0  0  0  0
 40 41  1  0  0  0  0
 41 42  1  0  0  0  0
 42 43  1  0  0  0  0
 41 44  2  0  0  0  0
 44 45  1  0  0  0  0
 45 46  1  0  0  0  0
 46 47  1  0  0  0  0
 47 48  1  0  0  0  0
 48 49  1  0  0  0  0
 49 50  1  0  0  0  0
 50 51  1  0  0  0  0
 51 52  1  0  0  0  0
 52 53  1  0  0  0  0
 53 54  1  0  0  0  0
 51 55  1  0  0  0  0
 55 56  1  0  0  0  0
 48 57  1  0  0  0  0
 57 58  1  0  0  0  0
 44 59  1  0  0  0  0
 59 60  2  0  0  0  0
 60 61  1  0  0  0  0
 61 62  2  0  0  0  0
 61 63  1  0  0  0  0
 63 64  2  0  0  0  0
 64 65  1  0  0  0  0
 65 66  1  0  0  0  0
 64 67  1  0  0  0  0
 67 68  2  0  0  0  0
 68 69  1  0  0  0  0
 69 70  2  0  0  0  0
 70 71  1  0  0  0  0
 71 72  2  0  0  0  0
 72 73  1  0  0  0  0
 73 74  3  0  0  0  0
 72 75  1  0  0  0  0
 75 76  3  0  0  0  0
 11  2  1  0  0  0  0
 23 17  1  0  0  0  0
 54 24  1  0  0  0  0
 71 60  1  0  0  0  0
 10  5  1  0  0  0  0
 22 18  1  0  0  0  0
 53 28  2  0  0  0  0
 70 63  1  0  0  0  0
 23  7  1  0  0  0  0
 52 30  2  0  0  0  0
 50 31  2  0  0  0  0
 36 32  2  0  0  0  0
 49 37  2  0  0  0  0
 47 38  2  0  0  0  0
 46 40  2  0  0  0  0
  1 77  1  0  0  0  0
  6 78  1  0  0  0  0
  9 79  1  0  0  0  0
 17 80  1  0  0  0  0
 18 81  1  0  0  0  0
 19 82  1  0  0  0  0
 20 83  1  0  0  0  0
 21 84  1  0  0  0  0
 22 85  1  0  0  0  0
 22 86  1  0  0  0  0
 23 87  1  0  0  0  0
 26 88  1  0  0  0  0
 26 89  1  0  0  0  0
 27 90  1  0  0  0  0
 27 91  1  0  0  0  0
 27 92  1  0  0  0  0
 42 93  1  0  0  0  0
 42 94  1  0  0  0  0
 43 95  1  0  0  0  0
 43 96  1  0  0  0  0
 43 97  1  0  0  0  0
 55 98  1  0  0  0  0
 55 99  1  0  0  0  0
 56100  1  0  0  0  0
 56101  1  0  0  0  0
 56102  1  0  0  0  0
 57103  1  0  0  0  0
 57104  1  0  0  0  0
 58105  1  0  0  0  0
 58106  1  0  0  0  0
 58107  1  0  0  0  0
 59108  1  0  0  0  0
 66109  1  0  0  0  0
 66110  1  0  0  0  0
 66111  1  0  0  0  0
 67112  1  0  0  0  0
 68113  1  0  0  0  0
 69114  1  0  0  0  0
M  END
