107

C         -3.84490        4.76790       -2.38330
C         -4.27210        4.02460       -3.45500
C         -3.86750        2.65410       -3.77660
O         -3.10540        1.93700       -3.14780
C         -4.56280        2.29620       -5.02320
C         -4.47950        1.08930       -5.71310
C         -5.25100        1.04080       -6.84920
C         -6.04410        2.11630       -7.26990
C         -6.13140        3.31400       -6.60020
C         -5.35790        3.38360       -5.43850
C         -5.19940        4.47260       -4.47490
C         -5.83590        5.68670       -4.54280
C         -6.73760        6.06190       -5.56050
N         -7.47970        6.44200       -6.35020
C         -5.70090        6.74350       -3.61900
N         -5.64960        7.65170       -2.91600
C         -6.55820        1.36980       -8.47480
C         -7.99150        0.78720       -8.40280
C         -8.28250        0.54130       -6.94310
C         -7.53170       -0.47740       -6.54630
C         -6.71850       -0.93850       -7.73070
C         -7.71060       -0.65040       -8.86870
C         -5.67380        0.17130       -8.00670
C         -2.97220        4.45100       -1.33640
C         -2.63310        5.36000       -0.32070
C         -3.07890        6.78320       -0.23440
C         -2.18870        7.68100       -1.09700
C         -1.75570        4.80000        0.59860
Se        -0.92480        5.48820        2.16280
C         -0.15730        3.79780        2.28100
C          0.70250        3.08890        3.12320
C          1.30550        3.50360        4.32860
C          2.10980        2.56860        5.04580
N          2.60060        3.06930        6.16860
S          2.08350        4.60070        6.30700
N          1.21860        4.67600        4.93690
C          2.31160        1.28800        4.49120
C          3.10710        0.24210        4.96660
Se         4.17550       -0.15270        6.43470
C          4.46350       -1.80850        5.56080
C          5.19940       -2.94510        5.90340
C          5.99390       -3.04090        7.16410
C          7.37650       -2.41410        6.96980
C          5.09650       -3.93960        4.93690
S          4.11150       -3.42020        3.57070
C          3.79820       -1.90520        4.33030
C          3.03420       -0.77840        4.01210
N          2.21840       -0.39530        2.98270
C          1.73380        0.87170        3.25410
C          0.86210        1.77730        2.58020
N          0.07320        1.70530        1.44780
C         -0.52710        2.92000        1.25600
C         -1.41460        3.46560        0.31970
S         -2.18170        2.89240       -1.11450
C         -0.25240        0.62480        0.54640
C          0.59840        0.66860       -0.72280
C          1.99670       -1.32990        1.90440
C          0.92000       -2.35410        2.26410
C          5.76800       -5.17880        4.92410
C          5.52820       -6.28250        4.16020
C          6.62240       -7.26980        3.93580
O          7.67290       -7.33630        4.53090
C          6.15230       -8.09220        2.80510
C          6.63710       -9.14680        2.01640
C          5.70030       -9.53390        1.09790
Cl         5.86710      -10.77430       -0.05740
S          4.20740       -8.62970        1.18870
C          4.86450       -7.69990        2.47130
C          4.38410       -6.67310        3.35770
C          3.05940       -6.35890        3.54120
C          2.56080       -5.62260        4.63250
N          2.10210       -5.08070        5.53540
C          2.06560       -6.84580        2.67050
N          1.24750       -7.20530        1.94980
H         -4.23530        5.77410       -2.31980
H         -3.85400        0.28730       -5.35320
H         -6.74490        4.13060       -6.94150
H         -6.34070        1.81750       -9.44250
H         -8.73740        1.35570       -8.95150
H         -8.94140        1.15120       -6.35320
H         -7.43760       -0.88900       -5.55840
H         -6.30560       -1.94200       -7.66840
H         -7.26240       -0.70560       -9.85980
H         -8.59370       -1.28630       -8.82830
H         -4.87730       -0.16340       -8.66870
H         -4.11890        6.89490       -0.54430
H         -2.99650        7.09850        0.81070
H         -2.51170        8.71450       -1.01090
H         -1.15320        7.60820       -0.77030
H         -2.24530        7.38800       -2.14280
H          6.09260       -4.07970        7.47810
H          5.46020       -2.49190        7.94550
H          7.27660       -1.36900        6.68190
H          7.94310       -2.46670        7.89540
H          7.93000       -2.93670        6.19290
H         -1.30170        0.74910        0.26130
H         -0.16700       -0.32590        1.06580
H          0.34620        1.55000       -1.30610
H          1.66140        0.70880       -0.49160
H          0.39840       -0.20940       -1.33030
H          1.76060       -0.79540        0.98940
H          2.94210       -1.85730        1.73980
H         -0.01870       -1.86920        2.52470
H          0.75060       -3.02520        1.42680
H          1.23590       -2.94640        3.11960
H          6.65870       -5.24080        5.54120
H          7.60680       -9.59660        2.11690
