
  xtb     02022208073D
 energy: -199.448021257588 gnorm: 0.000956498059 xtb: 6.4.1 (unknown)
114128  0     0  0            999 V2000
   -0.8107    1.6297   -7.0262 C   0  0  0  0  0  0  0  0  0  0  0  0
   -0.1388    2.8188   -6.8873 C   0  0  0  0  0  0  0  0  0  0  0  0
    0.4129    3.3655   -5.6456 C   0  0  0  0  0  0  0  0  0  0  0  0
    0.3126    2.9047   -4.5196 O   0  0  0  0  0  0  0  0  0  0  0  0
    1.1256    4.5998   -6.0158 C   0  0  0  0  0  0  0  0  0  0  0  0
    1.8435    5.4410   -5.1685 C   0  0  0  0  0  0  0  0  0  0  0  0
    2.4254    6.5110   -5.8049 C   0  0  0  0  0  0  0  0  0  0  0  0
    2.3062    6.7257   -7.1842 C   0  0  0  0  0  0  0  0  0  0  0  0
    1.5991    5.9047   -8.0307 C   0  0  0  0  0  0  0  0  0  0  0  0
    0.9931    4.8125   -7.4027 C   0  0  0  0  0  0  0  0  0  0  0  0
    0.1810    3.7335   -7.9647 C   0  0  0  0  0  0  0  0  0  0  0  0
   -0.2128    3.6419   -9.2763 C   0  0  0  0  0  0  0  0  0  0  0  0
    0.1091    4.5843  -10.2751 C   0  0  0  0  0  0  0  0  0  0  0  0
    0.3248    5.3073  -11.1409 N   0  0  0  0  0  0  0  0  0  0  0  0
   -1.0063    2.6164   -9.8302 C   0  0  0  0  0  0  0  0  0  0  0  0
   -1.6480    1.8241  -10.3614 N   0  0  0  0  0  0  0  0  0  0  0  0
    3.1487    7.9764   -7.1439 C   0  0  0  0  0  0  0  0  0  0  0  0
    2.3947    9.3205   -7.2214 C   0  0  0  0  0  0  0  0  0  0  0  0
    3.3890   10.3241   -6.6833 C   0  0  0  0  0  0  0  0  0  0  0  0
    3.4980   10.1230   -5.3763 C   0  0  0  0  0  0  0  0  0  0  0  0
    2.5795    8.9797   -5.0090 C   0  0  0  0  0  0  0  0  0  0  0  0
    1.4485    9.2152   -6.0184 C   0  0  0  0  0  0  0  0  0  0  0  0
    3.2785    7.7392   -5.6050 C   0  0  0  0  0  0  0  0  0  0  0  0
   -1.1555    0.6551   -6.0840 C   0  0  0  0  0  0  0  0  0  0  0  0
   -1.7998   -0.5454   -6.4252 C   0  0  0  0  0  0  0  0  0  0  0  0
   -2.1799   -0.9745   -7.8049 C   0  0  0  0  0  0  0  0  0  0  0  0
   -0.9931   -1.6274   -8.5171 C   0  0  0  0  0  0  0  0  0  0  0  0
   -2.0022   -1.3539   -5.3146 C   0  0  0  0  0  0  0  0  0  0  0  0
   -2.7795   -3.0746   -5.1058 Se  0  0  0  0  0  2  0  0  0  0  0  0
   -2.3780   -2.8405   -3.3049 C   0  0  0  0  0  0  0  0  0  0  0  0
   -2.5407   -3.5213   -2.0937 C   0  0  0  0  0  0  0  0  0  0  0  0
   -3.2021   -4.7380   -1.8232 C   0  0  0  0  0  0  0  0  0  0  0  0
   -3.3298   -5.1627   -0.4640 C   0  0  0  0  0  0  0  0  0  0  0  0
   -4.0129   -6.2896   -0.3433 N   0  0  0  0  0  0  0  0  0  0  0  0
   -4.4570   -6.7755   -1.8258 S   0  0  0  0  0  0  0  0  0  0  0  0
   -3.7920   -5.5631   -2.6732 N   0  0  0  0  0  0  0  0  0  0  0  0
   -2.6933   -4.4068    0.5431 C   0  0  0  0  0  0  0  0  0  0  0  0
   -2.5480   -4.6745    1.9075 C   0  0  0  0  0  0  0  0  0  0  0  0
   -3.0833   -5.9557    3.1454 Se  0  0  0  0  0  2  0  0  0  0  0  0
   -2.0209   -4.9587    4.3639 C   0  0  0  0  0  0  0  0  0  0  0  0
   -1.7419   -5.1226    5.7139 C   0  0  0  0  0  0  0  0  0  0  0  0
   -2.2618   -6.2803    6.5019 C   0  0  0  0  0  0  0  0  0  0  0  0
   -1.2339   -7.4133    6.5457 C   0  0  0  0  0  0  0  0  0  0  0  0
   -0.8874   -4.1162    6.1946 C   0  0  0  0  0  0  0  0  0  0  0  0
   -0.4490   -2.9693    4.9301 S   0  0  0  0  0  0  0  0  0  0  0  0
   -1.3992   -3.8388    3.7839 C   0  0  0  0  0  0  0  0  0  0  0  0
   -1.7023   -3.6850    2.4258 C   0  0  0  0  0  0  0  0  0  0  0  0
   -1.3415   -2.8179    1.4282 N   0  0  0  0  0  0  0  0  0  0  0  0
   -1.9554   -3.2203    0.2594 C   0  0  0  0  0  0  0  0  0  0  0  0
   -1.9755   -2.7101   -1.0681 C   0  0  0  0  0  0  0  0  0  0  0  0
   -1.5072   -1.5458   -1.6545 N   0  0  0  0  0  0  0  0  0  0  0  0
   -1.7541   -1.6243   -3.0028 C   0  0  0  0  0  0  0  0  0  0  0  0
   -1.5434   -0.7932   -4.1099 C   0  0  0  0  0  0  0  0  0  0  0  0
   -0.8327    0.7587   -4.3543 S   0  0  0  0  0  0  0  0  0  0  0  0
   -1.3204   -0.2300   -1.0812 C   0  0  0  0  0  0  0  0  0  0  0  0
   -2.6677    0.4438   -0.8261 C   0  0  0  0  0  0  0  0  0  0  0  0
   -0.2709   -1.8743    1.6542 C   0  0  0  0  0  0  0  0  0  0  0  0
   -0.7573   -0.6048    2.3526 C   0  0  0  0  0  0  0  0  0  0  0  0
   -0.4539   -4.0524    7.5225 C   0  0  0  0  0  0  0  0  0  0  0  0
    0.3557   -3.1476    8.1644 C   0  0  0  0  0  0  0  0  0  0  0  0
    0.9729   -1.9615    7.5704 C   0  0  0  0  0  0  0  0  0  0  0  0
    0.9048   -1.5802    6.4128 O   0  0  0  0  0  0  0  0  0  0  0  0
    1.7038   -1.2912    8.6623 C   0  0  0  0  0  0  0  0  0  0  0  0
    2.4351   -0.1231    8.6007 C   0  0  0  0  0  0  0  0  0  0  0  0
    3.0421    0.3313    9.7730 C   0  0  0  0  0  0  0  0  0  0  0  0
    3.7856    1.4549    9.8704 O   0  0  0  0  0  0  0  0  0  0  0  0
    3.9758    2.2456    8.7189 C   0  0  0  0  0  0  0  0  0  0  0  0
    2.8922   -0.4032   10.9579 C   0  0  0  0  0  0  0  0  0  0  0  0
    2.1578   -1.5713   11.0079 C   0  0  0  0  0  0  0  0  0  0  0  0
    1.5491   -2.0307    9.8456 C   0  0  0  0  0  0  0  0  0  0  0  0
    0.7202   -3.1975    9.5690 C   0  0  0  0  0  0  0  0  0  0  0  0
    0.3686   -4.1539   10.4890 C   0  0  0  0  0  0  0  0  0  0  0  0
   -0.4217   -5.2937   10.2386 C   0  0  0  0  0  0  0  0  0  0  0  0
   -1.0559   -6.2455   10.1189 N   0  0  0  0  0  0  0  0  0  0  0  0
    0.7663   -4.1289   11.8419 C   0  0  0  0  0  0  0  0  0  0  0  0
    1.0529   -4.1738   12.9531 N   0  0  0  0  0  0  0  0  0  0  0  0
   -1.1167    1.3749   -8.0315 H   0  0  0  0  0  0  0  0  0  0  0  0
    1.9177    5.2318   -4.1127 H   0  0  0  0  0  0  0  0  0  0  0  0
    1.5247    6.0821   -9.0904 H   0  0  0  0  0  0  0  0  0  0  0  0
    4.0515    7.9588   -7.7514 H   0  0  0  0  0  0  0  0  0  0  0  0
    1.9530    9.5393   -8.1896 H   0  0  0  0  0  0  0  0  0  0  0  0
    3.9342   11.0168   -7.2970 H   0  0  0  0  0  0  0  0  0  0  0  0
    4.1527   10.6140   -4.6803 H   0  0  0  0  0  0  0  0  0  0  0  0
    2.3056    8.8894   -3.9612 H   0  0  0  0  0  0  0  0  0  0  0  0
    0.9166   10.1463   -5.8305 H   0  0  0  0  0  0  0  0  0  0  0  0
    0.7354    8.3956   -6.0854 H   0  0  0  0  0  0  0  0  0  0  0  0
    4.2684    7.5667   -5.1863 H   0  0  0  0  0  0  0  0  0  0  0  0
   -2.9884   -1.7074   -7.7175 H   0  0  0  0  0  0  0  0  0  0  0  0
   -2.5438   -0.1333   -8.3966 H   0  0  0  0  0  0  0  0  0  0  0  0
   -0.6472   -2.4923   -7.9546 H   0  0  0  0  0  0  0  0  0  0  0  0
   -1.2909   -1.9515   -9.5102 H   0  0  0  0  0  0  0  0  0  0  0  0
   -0.1691   -0.9245   -8.6160 H   0  0  0  0  0  0  0  0  0  0  0  0
   -3.1694   -6.6418    6.0078 H   0  0  0  0  0  0  0  0  0  0  0  0
   -2.5208   -5.9846    7.5194 H   0  0  0  0  0  0  0  0  0  0  0  0
   -0.9923   -7.7409    5.5365 H   0  0  0  0  0  0  0  0  0  0  0  0
   -1.6366   -8.2554    7.1011 H   0  0  0  0  0  0  0  0  0  0  0  0
   -0.3197   -7.0852    7.0346 H   0  0  0  0  0  0  0  0  0  0  0  0
   -0.7502   -0.2802   -0.1612 H   0  0  0  0  0  0  0  0  0  0  0  0
   -0.7480    0.3562   -1.8047 H   0  0  0  0  0  0  0  0  0  0  0  0
   -3.2231    0.5413   -1.7558 H   0  0  0  0  0  0  0  0  0  0  0  0
   -2.5117    1.4359   -0.4116 H   0  0  0  0  0  0  0  0  0  0  0  0
   -3.2636   -0.1426   -0.1288 H   0  0  0  0  0  0  0  0  0  0  0  0
    0.4646   -2.3631    2.3020 H   0  0  0  0  0  0  0  0  0  0  0  0
    0.2212   -1.6659    0.7027 H   0  0  0  0  0  0  0  0  0  0  0  0
   -1.6107   -0.1679    1.8407 H   0  0  0  0  0  0  0  0  0  0  0  0
   -1.0530   -0.8354    3.3721 H   0  0  0  0  0  0  0  0  0  0  0  0
    0.0466    0.1248    2.3910 H   0  0  0  0  0  0  0  0  0  0  0  0
   -0.8368   -4.8584    8.1332 H   0  0  0  0  0  0  0  0  0  0  0  0
    2.5150    0.3989    7.6606 H   0  0  0  0  0  0  0  0  0  0  0  0
    4.5956    3.0820    9.0365 H   0  0  0  0  0  0  0  0  0  0  0  0
    3.0249    2.6248    8.3326 H   0  0  0  0  0  0  0  0  0  0  0  0
    4.4937    1.6886    7.9324 H   0  0  0  0  0  0  0  0  0  0  0  0
    3.3736   -0.0231   11.8449 H   0  0  0  0  0  0  0  0  0  0  0  0
    2.0687   -2.1030   11.9406 H   0  0  0  0  0  0  0  0  0  0  0  0
  1  2  2  0  0  0  0
  2  3  1  0  0  0  0
  3  4  2  0  0  0  0
  3  5  1  0  0  0  0
  5  6  2  0  0  0  0
  6  7  1  0  0  0  0
  7  8  2  0  0  0  0
  8  9  1  0  0  0  0
  9 10  2  0  0  0  0
 10 11  1  0  0  0  0
 11 12  2  0  0  0  0
 12 13  1  0  0  0  0
 13 14  3  0  0  0  0
 12 15  1  0  0  0  0
 15 16  3  0  0  0  0
  8 17  1  0  0  0  0
 17 18  1  0  0  0  0
 18 19  1  0  0  0  0
 19 20  2  0  0  0  0
 20 21  1  0  0  0  0
 21 22  1  0  0  0  0
 21 23  1  0  0  0  0
  1 24  1  0  0  0  0
 24 25  2  0  0  0  0
 25 26  1  0  0  0  0
 26 27  1  0  0  0  0
 25 28  1  0  0  0  0
 28 29  1  0  0  0  0
 29 30  1  0  0  0  0
 30 31  1  0  0  0  0
 31 32  1  0  0  0  0
 32 33  1  0  0  0  0
 33 34  2  0  0  0  0
 34 35  1  0  0  0  0
 35 36  1  0  0  0  0
 33 37  1  0  0  0  0
 37 38  1  0  0  0  0
 38 39  1  0  0  0  0
 39 40  1  0  0  0  0
 40 41  1  0  0  0  0
 41 42  1  0  0  0  0
 42 43  1  0  0  0  0
 41 44  2  0  0  0  0
 44 45  1  0  0  0  0
 45 46  1  0  0  0  0
 46 47  1  0  0  0  0
 47 48  1  0  0  0  0
 48 49  1  0  0  0  0
 49 50  1  0  0  0  0
 50 51  1  0  0  0  0
 51 52  1  0  0  0  0
 52 53  1  0  0  0  0
 53 54  1  0  0  0  0
 51 55  1  0  0  0  0
 55 56  1  0  0  0  0
 48 57  1  0  0  0  0
 57 58  1  0  0  0  0
 44 59  1  0  0  0  0
 59 60  2  0  0  0  0
 60 61  1  0  0  0  0
 61 62  2  0  0  0  0
 61 63  1  0  0  0  0
 63 64  2  0  0  0  0
 64 65  1  0  0  0  0
 65 66  1  0  0  0  0
 66 67  1  0  0  0  0
 65 68  2  0  0  0  0
 68 69  1  0  0  0  0
 69 70  2  0  0  0  0
 70 71  1  0  0  0  0
 71 72  2  0  0  0  0
 72 73  1  0  0  0  0
 73 74  3  0  0  0  0
 72 75  1  0  0  0  0
 75 76  3  0  0  0  0
 11  2  1  0  0  0  0
 23 17  1  0  0  0  0
 54 24  1  0  0  0  0
 71 60  1  0  0  0  0
 10  5  1  0  0  0  0
 22 18  1  0  0  0  0
 53 28  2  0  0  0  0
 70 63  1  0  0  0  0
 23  7  1  0  0  0  0
 52 30  2  0  0  0  0
 50 31  2  0  0  0  0
 36 32  2  0  0  0  0
 49 37  2  0  0  0  0
 47 38  2  0  0  0  0
 46 40  2  0  0  0  0
  1 77  1  0  0  0  0
  6 78  1  0  0  0  0
  9 79  1  0  0  0  0
 17 80  1  0  0  0  0
 18 81  1  0  0  0  0
 19 82  1  0  0  0  0
 20 83  1  0  0  0  0
 21 84  1  0  0  0  0
 22 85  1  0  0  0  0
 22 86  1  0  0  0  0
 23 87  1  0  0  0  0
 26 88  1  0  0  0  0
 26 89  1  0  0  0  0
 27 90  1  0  0  0  0
 27 91  1  0  0  0  0
 27 92  1  0  0  0  0
 42 93  1  0  0  0  0
 42 94  1  0  0  0  0
 43 95  1  0  0  0  0
 43 96  1  0  0  0  0
 43 97  1  0  0  0  0
 55 98  1  0  0  0  0
 55 99  1  0  0  0  0
 56100  1  0  0  0  0
 56101  1  0  0  0  0
 56102  1  0  0  0  0
 57103  1  0  0  0  0
 57104  1  0  0  0  0
 58105  1  0  0  0  0
 58106  1  0  0  0  0
 58107  1  0  0  0  0
 59108  1  0  0  0  0
 64109  1  0  0  0  0
 67110  1  0  0  0  0
 67111  1  0  0  0  0
 67112  1  0  0  0  0
 68113  1  0  0  0  0
 69114  1  0  0  0  0
M  END
