104

C          2.96950        5.95010        1.29670
C          2.34350        6.70850        0.34340
C          1.06170        6.41240       -0.33460
O          0.44670        5.36380       -0.37740
C          0.61760        7.68930       -0.92370
C         -0.58030        7.92180       -1.59570
C         -0.73370        9.21440       -2.03490
C          0.22950       10.20810       -1.81390
C          1.41340        9.99340       -1.14890
C          1.59270        8.68150       -0.70190
C          2.70450        8.07770        0.02540
C          3.91100        8.67510        0.28290
C          5.01980        8.03390        0.87530
N          5.97420        7.57720        1.32170
C          4.23020       10.00520       -0.05970
N          4.55310       11.07960       -0.30470
C         -0.57960       11.26260       -2.52620
C         -0.14960       11.65130       -3.96240
C          0.55470       10.44870       -4.53980
C         -0.35660        9.50840       -4.75090
C         -1.69380       10.05820       -4.31930
C         -1.50540       11.54070       -4.67830
C         -1.65210       10.15520       -2.77410
C          2.72500        4.61310        1.66570
Se         3.25920        4.05230        3.42540
C          2.49600        2.43410        2.98640
C          2.21420        1.18330        3.55200
C          2.37420        0.69940        4.86810
C          1.88060       -0.60720        5.19600
N          2.04140       -0.89820        6.47690
S          2.75590        0.35900        7.20550
N          2.88800        1.32730        5.91290
C          1.37900       -1.42470        4.15630
C          1.01900       -2.77780        4.12950
S          0.85280       -4.09910        5.23100
C          0.49310       -5.14340        3.86950
C          0.20230       -6.49840        3.79000
C          0.17190       -7.38990        4.98830
C          1.52200       -8.08420        5.18770
C          0.00190       -6.90120        2.45840
S          0.16900       -5.55830        1.32670
C          0.50460       -4.48040        2.62950
C          0.79150       -3.12110        2.78860
N          0.96350       -2.01780        1.99340
C          1.30310       -0.95820        2.81120
C          1.58720        0.40380        2.54260
N          1.43460        1.18340        1.41210
C          1.99360        2.41230        1.67170
C          2.12650        3.59320        0.94590
C          0.41680        1.05250        0.38950
C         -0.72700        2.04580        0.59700
C          1.14030       -2.15920        0.56310
C         -0.17420       -2.42640       -0.16960
C         -0.29280       -8.22020        2.09860
C         -0.50420       -8.79350        0.86880
C         -0.47220       -8.10760       -0.42530
O         -0.27240       -6.92230       -0.63630
C         -0.73920       -9.13970       -1.44250
C         -0.81030       -9.00340       -2.81160
C         -1.07670      -10.13050       -3.58950
C         -1.15360      -10.00700       -5.07790
C         -1.26210      -11.35610       -2.95780
C         -1.19290      -11.49920       -1.57850
C         -0.92890      -10.37980       -0.80630
C         -0.79640      -10.19540        0.63690
C         -0.93650      -11.18610        1.57560
C         -0.82570      -11.02600        2.97190
N         -0.75420      -10.98330        4.11840
C         -1.22260      -12.53210        1.26610
N         -1.45280      -13.64310        1.08900
H          3.71200        6.45220        1.90940
H         -1.29850        7.12930       -1.73830
H          2.13990       10.77020       -0.97720
H         -0.86690       12.12710       -1.93110
H          0.37980       12.59750       -4.03420
H          1.61840       10.38690       -4.67670
H         -0.20650        8.50340       -5.09970
H         -2.57120        9.55450       -4.71670
H         -1.42970       11.70780       -5.75170
H         -2.27230       12.18990       -4.25800
H         -2.64020       10.29630       -2.34000
H         -0.61220       -8.14300        4.89780
H         -0.04410       -6.77470        5.86420
H          1.76480       -8.70840        4.33090
H          2.31120       -7.34710        5.31640
H          1.48370       -8.71410        6.07170
H          1.82690        3.71400       -0.07790
H          0.87620        1.21220       -0.59120
H          0.00790        0.04890        0.43660
H         -1.14260        1.93480        1.59670
H         -1.51030        1.84360       -0.12910
H         -0.39740        3.07250        0.46810
H          1.80810       -3.01120        0.39320
H          1.63880       -1.26620        0.18440
H         -0.94990       -1.72150        0.12130
H         -0.53150       -3.42850        0.04820
H         -0.01400       -2.34890       -1.24110
H         -0.35530       -8.88800        2.94680
H         -0.66090       -8.03550       -3.26670
H         -0.18960       -9.69440       -5.47810
H         -1.88670       -9.25180       -5.35720
H         -1.43050      -10.95190       -5.53730
H         -1.46760      -12.22970       -3.55930
H         -1.34380      -12.46980       -1.13550
