125

C         -2.51600        6.20770       -0.84200
C         -3.58870        6.71780       -0.17720
C         -4.34110        6.04840        0.91680
O         -4.03700        5.06300        1.55430
C         -5.61840        6.78150        1.02290
C         -6.68420        6.46890        1.86350
C         -7.76130        7.31230        1.73880
C         -7.78280        8.38440        0.83620
C         -6.74010        8.70180       -0.00080
C         -5.62980        7.85980        0.11690
C         -4.35850        7.87610       -0.59760
C         -3.93300        8.85670       -1.45530
C         -2.66350        8.89750       -2.06970
N         -1.64950        9.01900       -2.59580
C         -4.69420        9.98750       -1.81590
N         -5.25850       10.92710       -2.15880
C         -9.17500        8.80020        1.24100
C         -9.31880       10.03110        2.16940
C         -8.03710       10.12430        2.95970
C         -8.01500        9.11170        3.81600
C         -9.28130        8.31530        3.62010
C        -10.25380        9.44260        3.23810
C         -9.14940        7.60790        2.24860
C         -1.69070        5.10090       -0.45440
C         -1.37880        4.83150        0.89420
C         -0.63570        3.73760        1.25500
C         -0.19000        2.85490        0.26680
C          0.51120        1.63080        0.23070
C          0.66300        1.26350       -1.10950
N          0.07920        2.18620       -1.92610
C         -0.44780        3.16340       -1.11270
C         -1.16690        4.28590       -1.46490
C          0.12440        2.19690       -3.36500
C          1.21330        3.13500       -3.88350
C          1.35850        0.04840       -1.13000
C          1.82850       -0.73870       -2.19840
C          2.55710       -1.92280       -1.92800
N          2.90620       -2.46200       -3.09930
N          2.41310       -1.63580       -3.99250
C          2.53970       -1.87860       -5.39960
C          1.40010       -2.76050       -5.90270
N          1.75850       -0.59860       -3.52540
C          2.74270       -2.33480       -0.59410
C          2.23390       -1.56760        0.50480
C          1.59530       -0.32140        0.23490
N          1.08610        0.68600        1.04190
C          1.17580        0.96190        2.45470
C         -0.15010        0.69290        3.16940
N          2.47290       -2.28190        1.66970
C          2.07160       -2.10120        3.04250
C          3.23330       -1.61110        3.90880
C          3.12530       -3.44100        1.33290
C          3.30890       -3.49760       -0.05680
N          3.89870       -4.67010       -0.41040
C          4.31790       -5.05430       -1.73450
C          5.81570       -4.83230       -1.93370
C          4.10520       -5.38230        0.75070
C          3.62210       -4.63450        1.88170
C          3.72840       -5.20440        3.15860
C          4.27100       -6.45180        3.28830
C          4.72870       -7.20640        2.17190
C          4.63950       -6.64170        0.89000
C          5.20950       -8.51330        2.45120
C          5.73220       -9.53230        1.69390
C          6.11260       -9.58790        0.27170
O          5.88170       -8.80100       -0.62250
C          6.89810      -10.83950        0.11510
C          7.58830      -11.28950       -0.99640
Cl         7.49470      -10.48260       -2.49730
C          8.38640      -12.43440       -0.86250
Cl         9.23070      -13.04920       -2.21700
C          8.52980      -13.04580        0.38150
Cl         9.59170      -14.37770        0.54300
C          7.83060      -12.58090        1.50670
Cl         8.19740      -13.26630        3.03610
C          6.95260      -11.51670        1.34750
C          6.05750      -10.83040        2.27320
C          5.44150      -11.40080        3.35650
C          4.53450      -10.74710        4.22060
N          3.79570      -10.30900        4.98340
C          5.46360      -12.77650        3.67520
N          5.33140      -13.88100        3.95740
H         -2.28450        6.63180       -1.81300
H         -6.62840        5.62880        2.53820
H         -6.77460        9.52250       -0.69790
H         -9.92510        8.78510        0.45260
H         -9.64000       10.93970        1.66740
H         -7.27550       10.86020        2.77990
H         -7.23090        8.83230        4.49520
H         -9.56940        7.66170        4.43940
H        -11.19970        9.08200        2.83610
H        -10.44230       10.13260        4.05920
H         -9.88370        6.81490        2.11890
H         -1.71060        5.52090        1.65190
H         -0.40760        3.56590        2.29560
H         -1.37800        4.51330       -2.49930
H         -0.85380        2.50380       -3.74790
H          0.33730        1.17700       -3.69310
H          1.21100        3.14120       -4.96980
H          1.05140        4.14940       -3.52640
H          2.18740        2.79650       -3.53940
H          3.50130       -2.36880       -5.56550
H          2.52290       -0.90880       -5.90100
H          0.44330       -2.27550       -5.72510
H          1.51170       -2.93660       -6.96870
H          1.41060       -3.71680       -5.38560
H          1.41930        2.02540        2.55670
H          1.99580        0.40180        2.89420
H         -0.04220        0.87790        4.23500
H         -0.92390        1.34740        2.77710
H         -0.48460       -0.33220        3.02230
H          1.21630       -1.43620        3.09940
H          1.74580       -3.08040        3.41020
H          2.89770       -1.45880        4.93120
H          3.64590       -0.67750        3.53140
H          4.03300       -2.34740        3.90860
H          4.07500       -6.10920       -1.88890
H          3.75640       -4.44180       -2.44400
H          6.09760       -5.11890       -2.94260
H          6.06210       -3.78320       -1.78690
H          6.38890       -5.43090       -1.23010
H          3.38190       -4.67340        4.03220
H          4.34460       -6.89480        4.27040
H          4.97440       -7.19670        0.03210
H          5.15690       -8.74700        3.50890
