134

C         -4.40900       -1.51840       -4.45040
C         -5.64810       -1.36450       -5.00960
C         -6.72510       -0.46830       -4.54050
O         -6.65700        0.36600       -3.66240
C         -7.84990       -0.66250       -5.47330
C         -9.10750       -0.06920       -5.39880
C         -9.95040       -0.41460       -6.42750
C         -9.56770       -1.28330       -7.45850
C         -8.32980       -1.87340       -7.54460
C         -7.45590       -1.53560       -6.50550
C         -6.08410       -1.97070       -6.25160
C         -5.37920       -2.85970       -7.02470
C         -4.09390       -3.36440       -6.73870
N         -3.06310       -3.84680       -6.57870
C         -5.84850       -3.41810       -8.23160
N         -6.15490       -3.90800       -9.22430
C        -10.90160       -1.17420       -8.15500
C        -10.95450       -0.26880       -9.40370
C        -12.42710        0.02660       -9.57490
C        -12.78950        0.84970       -8.59920
C        -11.56770        1.12450       -7.75240
C        -10.48080        1.07470       -8.83390
C        -11.32820       -0.20540       -7.00590
C         -3.94300       -1.25150       -3.14540
C         -4.57670       -1.18970       -1.90000
C         -6.02380       -1.36840       -1.74580
C         -6.58130       -2.49710       -2.34600
C         -7.94430       -2.70770       -2.34790
C         -8.77360       -1.77920       -1.74150
C         -8.22350       -0.67900       -1.11390
C         -6.85140       -0.44640       -1.09250
C         -6.34150        0.76760       -0.36620
C         -5.60380        1.77540       -1.24490
C         -3.63960       -1.08930       -0.85980
S         -3.78240       -1.08800        0.88730
C         -2.06200       -0.97740        1.01620
C         -1.06760       -0.90940        2.00510
C         -1.13080       -0.99620        3.41390
C          0.09100       -0.96920        4.16790
N         -0.11510       -1.11350        5.46710
S         -1.70620       -1.26530        5.72240
N         -2.19610       -1.15210        4.18350
C          1.30730       -0.72080        3.49220
C          2.59280       -0.43240        3.97000
S          3.42730       -0.31810        5.48180
C          4.83700        0.26120        4.61620
C          6.09980        0.65350        5.04030
C          6.51560        0.69180        6.45030
C          7.47010       -0.18760        6.96690
C          8.05170       -1.29600        6.13580
C          7.11380       -2.50540        6.14670
C          7.81320       -0.07760        8.30740
C          7.23200        0.87550        9.12230
C          6.27290        1.73110        8.60850
C          5.91470        1.63530        7.27820
C          6.90600        1.06130        3.96350
S          6.07120        0.92030        2.41970
C          4.65850        0.33930        3.22360
C          3.37100       -0.06770        2.86210
N          2.61970       -0.15030        1.71940
C          1.35360       -0.56620        2.07610
C          0.17710       -0.80310        1.32290
N         -0.05270       -0.86840       -0.04150
C         -1.41000       -0.96130       -0.22070
C         -2.30430       -1.04730       -1.28960
S         -2.18510       -1.15950       -3.00020
C          0.81720       -1.39310       -1.07360
C          0.62840       -2.90120       -1.23740
C          3.07840        0.47860        0.49990
C          4.14000       -0.35390       -0.21960
C          8.20580        1.54390        4.15680
C          9.14060        1.97420        3.24880
C          8.95370        2.05970        1.79530
O          7.96780        1.72990        1.15360
C         10.19260        2.63040        1.25820
C         10.52530        2.92730       -0.04800
C         11.76900        3.47520       -0.31820
C         12.67020        3.72370        0.71880
O         13.89930        4.25640        0.55550
C         14.33860        4.59710       -0.73920
C         12.33090        3.41890        2.04730
C         11.09490        2.87230        2.31310
C         10.47170        2.44640        3.56820
C         11.07760        2.46790        4.79760
C         10.52140        1.99950        6.00650
N         10.16200        1.62980        7.03360
C         12.38450        2.94830        5.02730
N         13.43560        3.32580        5.29350
H         -3.63970       -1.93630       -5.09100
H         -9.35830        0.59130       -4.58350
H         -8.05310       -2.53870       -8.34510
H        -11.44930       -2.10620       -8.28140
H        -10.42920       -0.65900      -10.27110
H        -13.04540       -0.42270      -10.32970
H        -13.77110        1.22510       -8.37630
H        -11.60130        2.00480       -7.11600
H        -10.57930        1.88510       -9.55440
H         -9.46550        1.05720       -8.44200
H        -12.16180       -0.49050       -6.36670
H         -5.92600       -3.21830       -2.81490
H         -8.35610       -3.58650       -2.82190
H         -9.84460       -1.91770       -1.75300
H         -8.87720        0.03230       -0.62960
H         -7.19470        1.27150        0.09300
H         -5.68260        0.44770        0.44430
H         -5.32340        2.64340       -0.65150
H         -4.70330        1.34290       -1.67100
H         -6.24060        2.09390       -2.06370
H          8.20540       -0.97280        5.10500
H          9.02100       -1.58350        6.54650
H          7.53370       -3.31740        5.55750
H          6.96120       -2.85610        7.16470
H          6.14490       -2.23860        5.72980
H          8.55560       -0.74850        8.71300
H          7.52440        0.94890       10.15880
H          5.80660        2.47290        9.23930
H          5.17260        2.30220        6.86320
H          0.57300       -0.88400       -2.01080
H          1.85150       -1.19820       -0.81840
H          1.30700       -3.27230       -2.00030
H         -0.38850       -3.13680       -1.53890
H          0.84080       -3.41140       -0.30000
H          3.52370        1.44220        0.77140
H          2.21590        0.68160       -0.13640
H          4.32780        0.06510       -1.20410
H          5.07110       -0.33680        0.33940
H          3.83290       -1.39180       -0.32950
H          8.48910        1.57420        5.20270
H          9.82170        2.73230       -0.84270
H         12.02940        3.70670       -1.33850
H         14.38390        3.71940       -1.39120
H         13.69710        5.35850       -1.19310
H         15.34090        5.00140       -0.61010
H         13.05840        3.62870        2.81310
