139

C         -6.10530        1.91040       -2.59430
C         -7.41660        1.76940       -2.24200
C         -7.90700        0.85100       -1.18670
O         -7.24410        0.12660       -0.47440
C         -9.37810        0.87290       -1.29270
C        -10.28290        0.17190       -0.49780
C        -11.59930        0.37640       -0.83440
C        -11.98960        1.21130       -1.89040
C        -11.10890        1.90400       -2.68580
C         -9.76290        1.71250       -2.35760
C         -8.56240        2.28150       -2.96250
C         -8.53110        3.20510       -3.97630
C         -7.35970        3.81280       -4.47410
N         -6.45490        4.36760       -4.91370
C         -9.66920        3.69400       -4.64930
N        -10.55020        4.12600       -5.24590
C        -13.45660        0.94000       -1.66960
C        -14.13030       -0.04280       -2.65040
C        -15.38270       -0.47660       -1.92370
C        -15.01510       -1.26550       -0.92210
C        -13.50800       -1.37890       -0.95550
C        -13.27120       -1.30090       -2.46930
C        -13.02230        0.01070       -0.49110
C         -4.97240        1.63470       -1.79270
C         -4.72660        1.87160       -0.44620
C         -5.65680        2.52150        0.52620
C         -5.93570        1.63400        1.73930
C         -3.39240        1.58660       -0.12040
S         -2.49080        1.72630        1.37340
C         -1.08200        1.17300        0.54460
C          0.27580        0.94780        0.80200
C          0.98670        1.17730        2.00520
N          0.38280        1.68590        3.07800
C          1.10570        1.90120        4.16510
C          0.43110        2.61890        5.21810
C          0.91410        3.53490        6.11400
C         -0.09360        4.09710        6.91630
C         -1.34090        3.62380        6.63050
C         -2.62580        3.95150        7.30990
C         -3.07930        2.80300        8.21380
S         -1.29480        2.47490        5.33790
C          2.46850        1.47320        4.22620
C          3.26110        1.39980        5.43160
C          4.62990        1.40940        5.48380
C          5.13540        1.22400        6.78210
C          4.16260        1.04710        7.72060
C          4.32040        0.77650        9.17690
C          4.08070       -0.70170        9.49250
S          2.58470        1.11950        7.00820
N          3.08480        1.05140        3.13240
C          2.37700        0.93880        2.00920
C          2.97590        0.49310        0.80430
C          4.31710        0.17710        0.56790
S          5.82490        0.17970        1.41070
C          6.59600       -0.44210       -0.03870
C          7.91120       -0.75960       -0.33310
C          9.01160       -0.66890        0.67240
C          9.25660       -2.02810        1.33380
C          8.04560       -1.22050       -1.65950
S          6.49880       -1.24160       -2.51370
C          5.70240       -0.64040       -1.11060
C          4.40330       -0.28070       -0.75170
N          3.16300       -0.26340       -1.33100
C          3.02230       -0.77990       -2.67210
C          3.38230        0.26980       -3.72330
C          2.26240        0.23220       -0.40740
C          0.87080        0.51170       -0.42020
N         -0.11570        0.50490       -1.39160
C         -1.29090        0.89170       -0.80800
C         -2.61190        1.13660       -1.19430
S         -3.52860        1.09120       -2.65120
C         -0.11260        0.20640       -2.80370
C         -0.56700       -1.22790       -3.07460
C          9.26780       -1.59930       -2.20930
C          9.59110       -2.07150       -3.46420
C          8.66060       -2.30120       -4.56610
O          7.45640       -2.11310       -4.58810
C          9.47530       -2.81770       -5.68680
C          9.06000       -3.19030       -6.94900
C         10.02390       -3.65110       -7.83160
F          9.66660       -4.02460       -9.06740
C         11.36090       -3.72980       -7.44460
F         12.27100       -4.18010       -8.31660
C         11.77720       -3.35310       -6.17560
C         10.81980       -2.89100       -5.28710
C         10.92370       -2.42350       -3.90240
C         12.09350       -2.34090       -3.18890
C         13.35760       -2.70280       -3.69950
N         14.41520       -2.97850       -4.05060
C         12.22130       -1.88680       -1.86020
N         12.41300       -1.53070       -0.78430
H         -5.87760        2.24520       -3.60010
H         -9.93960       -0.45940        0.30690
H        -11.42390        2.53960       -3.49640
H        -14.07210        1.80990       -1.44860
H        -14.25660        0.33750       -3.66040
H        -16.36940       -0.13150       -2.17070
H        -15.63360       -1.71100       -0.16520
H        -13.06830       -2.21720       -0.42180
H        -13.68400       -2.16010       -2.99520
H        -12.22750       -1.17010       -2.74920
H        -13.34810        0.26100        0.51680
H         -6.59290        2.78110        0.03080
H         -5.18200        3.44710        0.86790
H         -5.01630        1.42650        2.28010
H         -6.62930        2.13580        2.40930
H         -6.37450        0.69410        1.41770
H          1.95080        3.81490        6.17590
H          0.09820        4.83180        7.67840
H         -2.49030        4.85660        7.90560
H         -3.39860        4.14380        6.56220
H         -2.32670        2.59920        8.97190
H         -3.23040        1.90110        7.62560
H         -4.01290        3.05800        8.70890
H          5.23360        1.55540        4.60700
H          6.18520        1.22100        7.01670
H          5.33130        1.05730        9.48000
H          3.60970        1.38280        9.74330
H          4.20980       -0.88590       10.55600
H          3.07030       -0.98720        9.20890
H          4.78300       -1.32390        8.94270
H          9.93680       -0.31760        0.21340
H          8.71380        0.05050        1.43770
H          8.35340       -2.37500        1.83030
H         10.04970       -1.94050        2.07070
H          9.55390       -2.76870        0.59510
H          2.01870       -1.17210       -2.81260
H          3.72060       -1.61760       -2.76770
H          3.17410       -0.11610       -4.71710
H          2.82280        1.19160       -3.57460
H          4.44180        0.50400       -3.66390
H         -0.82250        0.89270       -3.27700
H          0.86780        0.40920       -3.22480
H         -1.60200       -1.35250       -2.76690
H          0.03670       -1.94650       -2.52350
H         -0.49500       -1.44560       -4.13650
H         10.09520       -1.50030       -1.52040
H          8.02460       -3.12750       -7.24320
H         12.82270       -3.43370       -5.92820
