85

C         -2.42640        1.32980       -3.25280
C         -2.13850        0.25640       -4.05850
C         -1.25700       -0.84980       -3.70590
O         -0.67640       -1.02050       -2.63840
C         -1.18410       -1.72890       -4.87820
C         -0.43930       -2.89960       -5.00900
C         -0.56140       -3.50350       -6.23720
C         -1.36110       -2.97930       -7.26150
C         -2.10010       -1.82500       -7.14520
C         -1.99610       -1.19580       -5.90140
C         -2.62060        0.03290       -5.40960
C         -3.50840        0.80560       -6.11120
C         -4.12610        1.98420       -5.64140
N         -4.67350        2.94780       -5.33900
C         -3.95040        0.52570       -7.42210
N         -4.35620        0.36350       -8.48350
C         -1.01400       -4.09670       -8.21330
C         -2.08380       -5.19160       -8.41000
C         -1.30800       -6.35690       -8.98060
C         -0.55390       -6.85440       -8.00880
C         -0.80670       -6.03320       -6.76490
C         -2.28720       -5.68880       -6.97290
C         -0.12450       -4.68250       -7.06990
C         -1.99520        1.63590       -1.95330
C         -2.38700        2.82400       -1.33180
C         -1.88360        3.01510       -0.05830
S         -2.06600        4.36180        1.05300
C         -1.03870        3.53660        2.17180
C         -0.44140        3.74250        3.42170
C         -0.42840        4.87950        4.26000
C          0.39490        4.86520        5.43210
N          0.36160        6.01380        6.08910
S         -0.62690        7.02540        5.30180
N         -1.04800        6.03720        4.09220
C          1.06820        3.67180        5.77540
C          1.81170        3.33820        6.91340
C          2.12220        1.97500        6.81430
N          1.61270        1.46620        5.64870
C          1.54710        0.03320        5.47810
C          2.86880       -0.54990        4.97900
C          0.97890        2.49320        4.97430
C          0.31660        2.56910        3.72130
N          0.19840        1.69440        2.65400
C         -0.60590        2.28660        1.71580
C         -1.06680        1.97660        0.43330
Se        -0.86820        0.60910       -0.82130
C          1.04770        0.61240        2.20950
C          2.26960        1.14530        1.46470
C          2.80690        1.49720        7.93230
C          3.02180        2.52810        8.87090
S          2.37500        4.07570        8.36970
C          3.69420        2.16310       10.02730
C          4.05330        0.82160       10.08870
Se         3.50340       -0.12260        8.52820
C          4.74380        0.24070       11.18300
C          5.14170       -1.07770       11.31340
C          5.82740       -1.53920       12.45340
N          6.38700       -1.93840       13.37130
C          4.87800       -2.01440       10.30590
N          4.63750       -2.74390        9.44860
C          5.06020        1.11130       12.26000
N          5.31260        1.81380       13.12830
H         -3.08190        2.08700       -3.66830
H          0.16940       -3.26300       -4.19600
H         -2.70400       -1.43460       -7.94690
H         -0.53620       -3.79580       -9.14350
H         -2.96460       -4.87300       -8.96030
H         -1.34520       -6.65480      -10.01180
H          0.16470       -7.65070       -8.06580
H         -0.52470       -6.48210       -5.81640
H         -2.66740       -4.93090       -6.29040
H         -2.92440       -6.57030       -6.92920
H          0.94680       -4.77500       -7.23780
H         -3.02830        3.53550       -1.82450
H          0.70860       -0.21060        4.82380
H          1.32690       -0.40340        6.46220
H          3.62940       -0.46740        5.75550
H          3.23220       -0.02570        4.09890
H          2.74270       -1.60230        4.74120
H          0.44700       -0.00490        1.52890
H          1.36160       -0.00810        3.03950
H          2.86050        1.79140        2.11140
H          1.96090        1.71750        0.59220
H          2.88720        0.31650        1.13080
H          3.92190        2.85580       10.82000
