92

C          0.57950       -3.78410        1.78820
C         -0.17880       -4.60800        0.99370
C         -1.01550       -4.19580       -0.13500
O         -1.17250       -3.06630       -0.57140
C         -1.64850       -5.42000       -0.65290
C         -2.53920       -5.51800       -1.71880
C         -2.96980       -6.79830       -1.97160
C         -2.53810       -7.90180       -1.22440
C         -1.65770       -7.81840       -0.17160
C         -1.21500       -6.52320        0.10980
C         -0.30110       -6.04370        1.14650
C          0.31030       -6.83440        2.08730
C          1.19160       -6.39150        3.09500
N          1.91690       -6.12030        3.94470
C          0.14310       -8.23110        2.18990
N          0.05740       -9.36600        2.34330
C         -3.37500       -8.87040       -2.02170
C         -4.68420       -9.39010       -1.37820
C         -5.13230       -8.32980       -0.40330
C         -5.54440       -7.28270       -1.10540
C         -5.38310       -7.61640       -2.56790
C         -5.66380       -9.12720       -2.53310
C         -3.86030       -7.63980       -2.85100
C          0.77590       -2.39990        1.75380
C          1.59310       -1.72250        2.67560
C          2.39510       -2.35740        3.76420
C          3.72390       -2.89120        3.22230
C          1.61420       -0.35730        2.42570
C          0.82760        0.03830        1.33010
S          0.04150       -1.30230        0.58340
C          0.87620        1.42420        1.15450
C          1.68800        2.05880        2.09900
S          2.42010        0.97690        3.23210
C          1.65690        3.42680        1.80610
C          2.33940        4.49880        2.41980
N          3.17370        4.46900        3.44730
S          3.69540        5.97640        3.72500
N          2.87500        6.72380        2.54590
C          2.16400        5.81710        1.89360
C          1.27430        6.00320        0.81410
C          0.87080        7.18540        0.17900
S          1.17360        8.88830        0.25790
C         -0.00690        9.12870       -1.00730
C         -0.48750       10.26810       -1.66020
C         -1.43780        9.96600       -2.60600
S         -1.75060        8.24010       -2.70090
C         -0.59110        7.93850       -1.45500
C         -0.08250        6.82520       -0.77450
N         -0.27960        5.47300       -0.75110
C         -1.26520        4.91340       -1.64440
C         -0.69320        4.69770       -3.04610
C          0.55820        4.92690        0.20800
C          0.79380        3.60230        0.67920
N          0.35490        2.34960        0.29170
C         -0.42920        1.86980       -0.82220
C         -1.88050        1.60420       -0.42140
C         -2.14870       10.85810       -3.45550
C         -3.10410       10.54760       -4.39930
C         -3.60890       11.66690       -5.06370
C         -3.04250       12.84400       -4.63280
C         -3.32190       14.13180       -5.08800
N         -3.56080       15.18890       -5.46820
S         -1.86340       12.57060       -3.38280
H          1.12350       -4.26940        2.58660
H         -2.84100       -4.64180       -2.27120
H         -1.33660       -8.67880        0.39100
H         -2.82960       -9.65390       -2.54390
H         -4.62560      -10.40390       -0.99140
H         -5.05180       -8.42530        0.66370
H         -5.87700       -6.32800       -0.74180
H         -5.96250       -7.01540       -3.26400
H         -5.39480       -9.64000       -3.45560
H         -6.69530       -9.35800       -2.27120
H         -3.63630       -7.62200       -3.91600
H          2.59880       -1.59900        4.52270
H          1.84330       -3.17240        4.23510
H          4.29830       -3.33520        4.03020
H          4.30420       -2.08380        2.78170
H          3.55330       -3.65170        2.46400
H         -0.16140       11.27130       -1.45430
H         -1.67240        3.99880       -1.22510
H         -2.08430        5.63740       -1.71010
H         -0.43810        5.65490       -3.49380
H          0.20930        4.09020       -3.01760
H         -1.42990        4.20790       -3.67670
H          0.01640        0.92200       -1.14130
H         -0.35280        2.56320       -1.65480
H         -1.92440        0.76920        0.27260
H         -2.32740        2.47020        0.06360
H         -2.46480        1.34670       -1.30030
H         -3.42060        9.53820       -4.59420
H         -4.36010       11.62970       -5.83240
