
  xtb     02022214403D
 energy: -190.232556584644 gnorm: 0.000196455591 xtb: 6.4.1 (unknown)
104118  0     0  0            999 V2000
   -4.1189   -1.9209   -3.9816 C   0  0  0  0  0  0  0  0  0  0  0  0
   -3.7035   -1.9416   -5.2782 C   0  0  0  0  0  0  0  0  0  0  0  0
   -2.2857   -2.1121   -5.6873 C   0  0  0  0  0  0  0  0  0  0  0  0
   -1.3677   -2.5529   -5.0297 O   0  0  0  0  0  0  0  0  0  0  0  0
   -2.1990   -1.5142   -7.0332 C   0  0  0  0  0  0  0  0  0  0  0  0
   -1.0395   -1.3090   -7.7771 C   0  0  0  0  0  0  0  0  0  0  0  0
   -1.2486   -0.6660   -8.9732 C   0  0  0  0  0  0  0  0  0  0  0  0
   -2.5188   -0.2587   -9.4044 C   0  0  0  0  0  0  0  0  0  0  0  0
   -3.6731   -0.4653   -8.6871 C   0  0  0  0  0  0  0  0  0  0  0  0
   -3.4805   -1.1115   -7.4629 C   0  0  0  0  0  0  0  0  0  0  0  0
   -4.4444   -1.4488   -6.4228 C   0  0  0  0  0  0  0  0  0  0  0  0
   -5.8089   -1.3912   -6.5163 C   0  0  0  0  0  0  0  0  0  0  0  0
   -6.6758   -1.8317   -5.4934 C   0  0  0  0  0  0  0  0  0  0  0  0
   -7.4242   -2.1980   -4.7037 N   0  0  0  0  0  0  0  0  0  0  0  0
   -6.5106   -0.9385   -7.6520 C   0  0  0  0  0  0  0  0  0  0  0  0
   -7.1318   -0.5750   -8.5463 N   0  0  0  0  0  0  0  0  0  0  0  0
   -1.9776    0.3631  -10.6671 C   0  0  0  0  0  0  0  0  0  0  0  0
   -1.8439    1.9062  -10.7053 C   0  0  0  0  0  0  0  0  0  0  0  0
   -1.6720    2.3592   -9.2766 C   0  0  0  0  0  0  0  0  0  0  0  0
   -0.4706    1.9708   -8.8703 C   0  0  0  0  0  0  0  0  0  0  0  0
    0.1916    1.2480  -10.0174 C   0  0  0  0  0  0  0  0  0  0  0  0
   -0.3951    2.0294  -11.2037 C   0  0  0  0  0  0  0  0  0  0  0  0
   -0.5636   -0.0939  -10.1885 C   0  0  0  0  0  0  0  0  0  0  0  0
   -3.3584   -2.4031   -2.8838 C   0  0  0  0  0  0  0  0  0  0  0  0
   -2.6243   -3.5662   -2.7387 C   0  0  0  0  0  0  0  0  0  0  0  0
   -2.6481   -4.7170   -3.6876 C   0  0  0  0  0  0  0  0  0  0  0  0
   -3.1772   -5.9832   -3.0144 C   0  0  0  0  0  0  0  0  0  0  0  0
   -1.9305   -3.5738   -1.5167 C   0  0  0  0  0  0  0  0  0  0  0  0
   -2.1169   -2.4230   -0.7425 C   0  0  0  0  0  0  0  0  0  0  0  0
   -3.2503   -1.3501   -1.4731 S   0  0  0  0  0  0  0  0  0  0  0  0
   -1.2969   -2.4178    0.3908 C   0  0  0  0  0  0  0  0  0  0  0  0
   -0.5119   -3.5708    0.4759 C   0  0  0  0  0  0  0  0  0  0  0  0
   -0.7791   -4.6886   -0.8159 S   0  0  0  0  0  0  0  0  0  0  0  0
    0.3478   -3.3956    1.5706 C   0  0  0  0  0  0  0  0  0  0  0  0
    1.4278   -4.1834    2.0266 C   0  0  0  0  0  0  0  0  0  0  0  0
    1.8283   -5.3674    1.5906 N   0  0  0  0  0  0  0  0  0  0  0  0
    3.1710   -5.7820    2.3931 S   0  0  0  0  0  0  0  0  0  0  0  0
    3.2946   -4.4660    3.3276 N   0  0  0  0  0  0  0  0  0  0  0  0
    2.2854   -3.6567    3.0472 C   0  0  0  0  0  0  0  0  0  0  0  0
    1.9584   -2.4170    3.6396 C   0  0  0  0  0  0  0  0  0  0  0  0
    2.5738   -1.6994    4.6717 C   0  0  0  0  0  0  0  0  0  0  0  0
    3.9818   -1.7990    5.6724 S   0  0  0  0  0  0  0  0  0  0  0  0
    3.4954   -0.3045    6.4477 C   0  0  0  0  0  0  0  0  0  0  0  0
    4.0712    0.4883    7.4183 C   0  0  0  0  0  0  0  0  0  0  0  0
    3.3312    1.6463    7.6821 C   0  0  0  0  0  0  0  0  0  0  0  0
    1.8669    1.7130    6.7074 S   0  0  0  0  0  0  0  0  0  0  0  0
    2.2829    0.2218    5.9505 C   0  0  0  0  0  0  0  0  0  0  0  0
    1.7683   -0.5821    4.9324 C   0  0  0  0  0  0  0  0  0  0  0  0
    0.6813   -0.5873    4.0963 N   0  0  0  0  0  0  0  0  0  0  0  0
   -0.4740    0.2204    4.4248 C   0  0  0  0  0  0  0  0  0  0  0  0
   -0.3217    1.6761    3.9854 C   0  0  0  0  0  0  0  0  0  0  0  0
    0.7924   -1.6835    3.2631 C   0  0  0  0  0  0  0  0  0  0  0  0
    0.0423   -2.1262    2.1422 C   0  0  0  0  0  0  0  0  0  0  0  0
   -0.9831   -1.5517    1.4051 N   0  0  0  0  0  0  0  0  0  0  0  0
   -1.3313   -0.1588    1.2252 C   0  0  0  0  0  0  0  0  0  0  0  0
   -0.2655    0.5658    0.4055 C   0  0  0  0  0  0  0  0  0  0  0  0
    3.7744    2.6217    8.5808 C   0  0  0  0  0  0  0  0  0  0  0  0
    3.2385    3.8460    8.9061 C   0  0  0  0  0  0  0  0  0  0  0  0
    1.9936    4.3989    8.3655 C   0  0  0  0  0  0  0  0  0  0  0  0
    1.2219    3.8665    7.5886 O   0  0  0  0  0  0  0  0  0  0  0  0
    1.8577    5.7439    8.9581 C   0  0  0  0  0  0  0  0  0  0  0  0
    0.8816    6.7075    8.7843 C   0  0  0  0  0  0  0  0  0  0  0  0
   -0.1587    6.4960    7.9708 F   0  0  0  0  0  0  0  0  0  0  0  0
    0.9748    7.9191    9.4580 C   0  0  0  0  0  0  0  0  0  0  0  0
    2.0481    8.1498   10.3003 C   0  0  0  0  0  0  0  0  0  0  0  0
    3.0413    7.1960   10.4907 C   0  0  0  0  0  0  0  0  0  0  0  0
    2.9450    5.9900    9.8169 C   0  0  0  0  0  0  0  0  0  0  0  0
    3.8213    4.8152    9.8079 C   0  0  0  0  0  0  0  0  0  0  0  0
    4.9815    4.6961   10.5298 C   0  0  0  0  0  0  0  0  0  0  0  0
    5.8398    3.5765   10.5358 C   0  0  0  0  0  0  0  0  0  0  0  0
    6.5934    2.7117   10.6009 N   0  0  0  0  0  0  0  0  0  0  0  0
    5.4940    5.6948   11.3843 C   0  0  0  0  0  0  0  0  0  0  0  0
    5.9727    6.4604   12.0936 N   0  0  0  0  0  0  0  0  0  0  0  0
   -5.0363   -1.3988   -3.7328 H   0  0  0  0  0  0  0  0  0  0  0  0
   -0.0792   -1.6326   -7.4069 H   0  0  0  0  0  0  0  0  0  0  0  0
   -4.6441   -0.1406   -9.0232 H   0  0  0  0  0  0  0  0  0  0  0  0
   -2.3570   -0.0435  -11.6022 H   0  0  0  0  0  0  0  0  0  0  0  0
   -2.6161    2.4116  -11.2789 H   0  0  0  0  0  0  0  0  0  0  0  0
   -2.4394    2.8506   -8.7075 H   0  0  0  0  0  0  0  0  0  0  0  0
   -0.0340    2.0724   -7.8939 H   0  0  0  0  0  0  0  0  0  0  0  0
    1.2731    1.1542   -9.9650 H   0  0  0  0  0  0  0  0  0  0  0  0
   -0.0490    3.0612  -11.2402 H   0  0  0  0  0  0  0  0  0  0  0  0
   -0.2248    1.5497  -12.1664 H   0  0  0  0  0  0  0  0  0  0  0  0
   -0.0183   -0.8012  -10.8101 H   0  0  0  0  0  0  0  0  0  0  0  0
   -1.6313   -4.8871   -4.0490 H   0  0  0  0  0  0  0  0  0  0  0  0
   -3.2755   -4.4704   -4.5447 H   0  0  0  0  0  0  0  0  0  0  0  0
   -3.2048   -6.7973   -3.7339 H   0  0  0  0  0  0  0  0  0  0  0  0
   -2.5401   -6.2784   -2.1850 H   0  0  0  0  0  0  0  0  0  0  0  0
   -4.1855   -5.8196   -2.6396 H   0  0  0  0  0  0  0  0  0  0  0  0
    4.9977    0.2706    7.9181 H   0  0  0  0  0  0  0  0  0  0  0  0
   -0.5886    0.2004    5.5142 H   0  0  0  0  0  0  0  0  0  0  0  0
   -1.3600   -0.2525    3.9978 H   0  0  0  0  0  0  0  0  0  0  0  0
   -1.2675    2.1963    4.1098 H   0  0  0  0  0  0  0  0  0  0  0  0
    0.4194    2.1772    4.6012 H   0  0  0  0  0  0  0  0  0  0  0  0
   -0.0080    1.7517    2.9483 H   0  0  0  0  0  0  0  0  0  0  0  0
   -2.2834   -0.1399    0.6882 H   0  0  0  0  0  0  0  0  0  0  0  0
   -1.4775    0.3363    2.1783 H   0  0  0  0  0  0  0  0  0  0  0  0
    0.6992    0.5207    0.9073 H   0  0  0  0  0  0  0  0  0  0  0  0
   -0.1642    0.1034   -0.5737 H   0  0  0  0  0  0  0  0  0  0  0  0
   -0.5461    1.6065    0.2689 H   0  0  0  0  0  0  0  0  0  0  0  0
    4.7068    2.3559    9.0636 H   0  0  0  0  0  0  0  0  0  0  0  0
    0.2071    8.6626    9.3126 H   0  0  0  0  0  0  0  0  0  0  0  0
    2.1171    9.0923   10.8212 H   0  0  0  0  0  0  0  0  0  0  0  0
    3.8639    7.4081   11.1525 H   0  0  0  0  0  0  0  0  0  0  0  0
  1  2  2  0  0  0  0
  2  3  1  0  0  0  0
  3  4  2  0  0  0  0
  3  5  1  0  0  0  0
  5  6  2  0  0  0  0
  6  7  1  0  0  0  0
  7  8  2  0  0  0  0
  8  9  1  0  0  0  0
  9 10  2  0  0  0  0
 10 11  1  0  0  0  0
 11 12  2  0  0  0  0
 12 13  1  0  0  0  0
 13 14  3  0  0  0  0
 12 15  1  0  0  0  0
 15 16  3  0  0  0  0
  8 17  1  0  0  0  0
 17 18  1  0  0  0  0
 18 19  1  0  0  0  0
 19 20  2  0  0  0  0
 20 21  1  0  0  0  0
 21 22  1  0  0  0  0
 21 23  1  0  0  0  0
  1 24  1  0  0  0  0
 24 25  2  0  0  0  0
 25 26  1  0  0  0  0
 26 27  1  0  0  0  0
 25 28  1  0  0  0  0
 28 29  2  0  0  0  0
 29 30  1  0  0  0  0
 29 31  1  0  0  0  0
 31 32  2  0  0  0  0
 32 33  1  0  0  0  0
 32 34  1  0  0  0  0
 34 35  1  0  0  0  0
 35 36  2  0  0  0  0
 36 37  1  0  0  0  0
 37 38  1  0  0  0  0
 38 39  2  0  0  0  0
 39 40  1  0  0  0  0
 40 41  1  0  0  0  0
 41 42  1  0  0  0  0
 42 43  1  0  0  0  0
 43 44  1  0  0  0  0
 44 45  2  0  0  0  0
 45 46  1  0  0  0  0
 46 47  1  0  0  0  0
 47 48  1  0  0  0  0
 48 49  1  0  0  0  0
 49 50  1  0  0  0  0
 50 51  1  0  0  0  0
 49 52  1  0  0  0  0
 52 53  1  0  0  0  0
 53 54  1  0  0  0  0
 54 55  1  0  0  0  0
 55 56  1  0  0  0  0
 45 57  1  0  0  0  0
 57 58  2  0  0  0  0
 58 59  1  0  0  0  0
 59 60  2  0  0  0  0
 59 61  1  0  0  0  0
 61 62  2  0  0  0  0
 62 63  1  0  0  0  0
 62 64  1  0  0  0  0
 64 65  2  0  0  0  0
 65 66  1  0  0  0  0
 66 67  2  0  0  0  0
 67 68  1  0  0  0  0
 68 69  2  0  0  0  0
 69 70  1  0  0  0  0
 70 71  3  0  0  0  0
 69 72  1  0  0  0  0
 72 73  3  0  0  0  0
 11  2  1  0  0  0  0
 23 17  1  0  0  0  0
 30 24  1  0  0  0  0
 54 31  1  0  0  0  0
 68 58  1  0  0  0  0
 10  5  1  0  0  0  0
 22 18  1  0  0  0  0
 33 28  1  0  0  0  0
 53 34  2  0  0  0  0
 67 61  1  0  0  0  0
 23  7  1  0  0  0  0
 39 35  1  0  0  0  0
 52 40  2  0  0  0  0
 48 41  2  0  0  0  0
 47 43  2  0  0  0  0
  1 74  1  0  0  0  0
  6 75  1  0  0  0  0
  9 76  1  0  0  0  0
 17 77  1  0  0  0  0
 18 78  1  0  0  0  0
 19 79  1  0  0  0  0
 20 80  1  0  0  0  0
 21 81  1  0  0  0  0
 22 82  1  0  0  0  0
 22 83  1  0  0  0  0
 23 84  1  0  0  0  0
 26 85  1  0  0  0  0
 26 86  1  0  0  0  0
 27 87  1  0  0  0  0
 27 88  1  0  0  0  0
 27 89  1  0  0  0  0
 44 90  1  0  0  0  0
 50 91  1  0  0  0  0
 50 92  1  0  0  0  0
 51 93  1  0  0  0  0
 51 94  1  0  0  0  0
 51 95  1  0  0  0  0
 55 96  1  0  0  0  0
 55 97  1  0  0  0  0
 56 98  1  0  0  0  0
 56 99  1  0  0  0  0
 56100  1  0  0  0  0
 57101  1  0  0  0  0
 64102  1  0  0  0  0
 65103  1  0  0  0  0
 66104  1  0  0  0  0
M  END
