104

C          4.99330        1.07800        1.56070
C          5.53370        2.12990        2.25520
C          5.10670        3.53460        2.21530
O          4.26680        4.03820        1.49290
C          5.90380        4.23730        3.23650
C          5.80640        5.58000        3.59340
C          6.65780        5.95090        4.60630
C          7.54420        5.05310        5.21560
C          7.65700        3.72860        4.86500
C          6.79630        3.32820        3.83790
C          6.61450        2.01730        3.21610
C          7.36350        0.90140        3.49840
C          8.41780        0.86070        4.43440
N          9.28620        0.74330        5.17680
C          7.21980       -0.36630        2.89960
N          7.17150       -1.43060        2.46610
C          8.07590        6.09790        6.16530
C          7.55420        6.03710        7.61670
C          7.84750        7.41510        8.16460
C          7.00930        8.26600        7.58670
C          6.13530        7.47740        6.63850
C          6.03870        6.15380        7.40830
C          7.08840        7.09930        5.48460
C          3.92260        1.00570        0.65760
S          2.98730        2.41330        0.14380
C          1.95980        1.38020       -0.74250
C          0.78860        1.47680       -1.50700
C          0.07310        2.60080       -1.97570
C         -1.07270        2.39170       -2.81280
N         -1.61230        3.52690       -3.22710
S         -0.75330        4.75500       -2.61240
N          0.33710        3.88460       -1.79450
C         -1.52590        1.07050       -3.02640
C         -2.70000        0.58570       -3.61530
S         -4.09100        1.18850       -4.44790
C         -4.74600       -0.43860       -4.46300
C         -5.94090       -0.96020       -4.94260
C         -6.98970       -0.11490       -5.58820
C         -8.02510        0.34790       -4.55950
C         -6.04160       -2.33560       -4.67710
S         -4.61450       -2.96040       -3.84960
C         -3.90850       -1.38850       -3.85440
C         -2.73350       -0.79560       -3.38350
N         -1.60450       -1.18560       -2.71620
C         -0.83590       -0.05710       -2.48960
C          0.40880        0.15090       -1.84180
N          1.37730       -0.72440       -1.36890
C          2.31630        0.02120       -0.67430
C          3.44940       -0.20770        0.11410
C          4.02880       -1.55370        0.43650
C          3.10800       -2.33000        1.38100
C          1.68620       -2.01800       -1.94380
C          1.70360       -1.97970       -3.47000
C         -1.55130       -2.48970       -2.09300
C         -1.55950       -2.39040       -0.57040
C         -7.16230       -3.10130       -5.01940
C         -7.45670       -4.41990       -4.78760
C         -6.61470       -5.40820       -4.08790
O         -5.50020       -5.23790       -3.62640
C         -7.40020       -6.64900       -4.06720
C         -7.27180       -7.96290       -3.58810
C         -8.38100       -8.69930       -3.88380
S         -9.59460       -7.82160       -4.74400
C         -8.60540       -6.42300       -4.71500
C         -8.69710       -5.06660       -5.18660
C         -9.77170       -4.55160       -5.86930
C         -9.89600       -3.23420       -6.34580
N        -10.05670       -2.17370       -6.75860
C        -10.89140       -5.35990       -6.15590
N        -11.80510       -6.01290       -6.39230
H          5.44740        0.12130        1.77400
H          5.10850        6.23530        3.09620
H          8.34620        3.05370        5.34390
H          9.14420        6.29610        6.10480
H          7.91730        5.19240        8.19580
H          8.64480        7.63040        8.85160
H          6.96660        9.33400        7.69420
H          5.20520        7.94480        6.32660
H          5.50130        6.26320        8.34890
H          5.60490        5.33710        6.83430
H          7.49810        7.96590        4.96910
H         -6.50230        0.76120       -6.02060
H         -7.49240       -0.65720       -6.39020
H         -8.52530       -0.50490       -4.10630
H         -8.77340        0.96820       -5.04410
H         -7.54480        0.92730       -3.77440
H          5.00870       -1.46190        0.90150
H          4.18530       -2.12460       -0.48130
H          3.53280       -3.30720        1.59470
H          2.12090       -2.46440        0.94480
H          2.99730       -1.79020        2.31840
H          0.99460       -2.77870       -1.57590
H          2.67930       -2.29360       -1.59720
H          0.73170       -1.71750       -3.87890
H          2.42680       -1.24380       -3.81460
H          1.99090       -2.95460       -3.85590
H         -2.44350       -3.02780       -2.42240
H         -0.68830       -3.05190       -2.45410
H         -2.47080       -1.90010       -0.23620
H         -0.71190       -1.81690       -0.20370
H         -1.52540       -3.38650       -0.13760
H         -7.92350       -2.53660       -5.54150
H         -6.41610       -8.33920       -3.05880
H         -8.56610       -9.72820       -3.64430
