104

C          2.21440        1.63870       -4.94190
C          2.46050        2.88150       -5.42840
C          3.37370        3.07450       -6.58750
O          4.11080        2.24550       -7.07170
C          3.14430        4.46080       -7.03800
C          3.68350        5.08240       -8.16230
C          3.27580        6.38360       -8.33370
C          2.39220        7.02490       -7.45430
C          1.85530        6.42750       -6.33930
C          2.26180        5.10510       -6.14460
C          1.93900        4.18180       -5.06110
C          1.47380        4.54160       -3.82390
C          1.41600        3.67750       -2.71110
N          1.39080        3.05640       -1.74550
C          1.08310        5.85100       -3.47480
N          0.73350        6.88930       -3.13170
C          2.41580        8.31090       -8.24050
C          1.19950        8.62960       -9.14430
C          0.58810        7.30370       -9.52350
C          1.42270        6.69630      -10.35620
C          2.61380        7.60060      -10.55560
C          1.93130        8.97410      -10.45130
C          3.39940        7.59730       -9.22070
C          1.14310        1.21710       -4.10700
C         -0.20180        1.54990       -4.12990
C         -0.86700        2.40250       -5.16580
C         -1.69630        3.53590       -4.56240
C         -0.90580        0.86630       -3.12540
C         -0.10590        0.05140       -2.31590
S          1.52320        0.02720       -2.86950
C         -0.84070       -0.53050       -1.27730
C         -2.19690       -0.20520       -1.34550
S         -2.59130        0.85170       -2.65540
C         -2.82650       -0.86600       -0.28310
C         -4.19640       -0.96510        0.04360
N         -5.23430       -0.41950       -0.57090
S         -6.58480       -0.90360        0.18080
N         -5.89510       -1.82630        1.31870
C         -4.58300       -1.78670        1.15000
C         -3.57450       -2.39310        1.93040
C         -3.67200       -3.11960        3.12260
S         -4.88780       -3.70270        4.20830
C         -3.61730       -4.28270        5.26740
C         -3.62010       -4.91300        6.49730
C         -2.33450       -5.15860        6.98190
S         -1.10020       -4.60010        5.86070
C         -2.31900       -4.03710        4.77840
C         -2.36410       -3.37940        3.54650
N         -1.47220       -2.85370        2.65250
C         -0.06620       -2.89930        2.97930
C          0.54660       -4.26320        2.66260
C         -2.18310       -2.25200        1.63250
C         -1.80950       -1.54930        0.45110
N         -0.60900       -1.34490       -0.20500
C          0.72550       -1.86330       -0.01540
C          1.65250       -0.82010        0.60940
C         -2.10940       -5.75300        8.23290
C         -0.94170       -6.04170        8.88650
C          0.42340       -5.80310        8.37330
O          0.74000       -5.33260        7.29390
C          1.29910       -6.25810        9.44080
S          2.98650       -6.34650        9.70790
C          2.71440       -7.03490       11.28640
C          3.87010       -7.37740       12.15220
C          1.38580       -7.18270       11.57440
C          0.56890       -6.73840       10.51870
C         -0.84490       -6.62650       10.21350
C         -1.85180       -7.00940       11.06150
C         -3.23400       -6.91860       10.80710
N         -4.37400       -6.87680       10.67140
C         -1.57750       -7.55700       12.33220
N         -1.37790       -8.00170       13.37120
H          2.91350        0.86720       -5.25190
H          4.36260        4.55570       -8.81430
H          1.17110        6.92650       -5.67280
H          2.77570        9.18710       -7.70500
H          0.51930        9.37400       -8.73940
H         -0.33330        6.93080       -9.11590
H          1.33830        5.71400      -10.78320
H          3.22000        7.40850      -11.43690
H          2.63310        9.80070      -10.35050
H          1.24900        9.16930      -11.27730
H          4.40080        8.00950       -9.32780
H         -0.11750        2.80710       -5.84770
H         -1.53430        1.75960       -5.74880
H         -2.53520        3.13740       -3.99870
H         -2.08400        4.17020       -5.35570
H         -1.10060        4.14960       -3.89140
H         -4.50460       -5.18430        7.04470
H          0.02070       -2.72590        4.05710
H          0.45350       -2.09160        2.47300
H          0.12520       -5.02070        3.31770
H          1.61980       -4.23050        2.82640
H          0.35280       -4.56050        1.63360
H          0.68620       -2.77770        0.56960
H          1.11300       -2.12180       -1.00730
H          1.77510        0.02430       -0.06340
H          1.25350       -0.43970        1.54730
H          2.62900       -1.25910        0.79330
H         -3.02800       -6.00220        8.75100
H          4.57520       -8.01420       11.61980
H          4.40160       -6.47460       12.45380
H          3.52730       -7.89480       13.04440
H          1.02720       -7.59100       12.50110
