
  xtb     02012223343D
 energy: -305.627013899372 gnorm: 0.000258419437 xtb: 6.4.1 (unknown)
188210  0     0  0            999 V2000
    0.0084    6.3932    6.6084 C   0  0  0  0  0  0  0  0  0  0  0  0
    1.1914    6.6983    7.2325 C   0  0  0  0  0  0  0  0  0  0  0  0
    2.3964    5.8535    7.3682 C   0  0  0  0  0  0  0  0  0  0  0  0
    2.5108    4.6508    7.2239 O   0  0  0  0  0  0  0  0  0  0  0  0
    3.4989    6.7795    7.6938 C   0  0  0  0  0  0  0  0  0  0  0  0
    4.8487    6.4568    7.8099 C   0  0  0  0  0  0  0  0  0  0  0  0
    5.6595    7.5324    8.0810 C   0  0  0  0  0  0  0  0  0  0  0  0
    5.1647    8.8349    8.2282 C   0  0  0  0  0  0  0  0  0  0  0  0
    3.8336    9.1646    8.1298 C   0  0  0  0  0  0  0  0  0  0  0  0
    2.9926    8.0837    7.8524 C   0  0  0  0  0  0  0  0  0  0  0  0
    1.5458    8.0385    7.6607 C   0  0  0  0  0  0  0  0  0  0  0  0
    0.6753    9.0650    7.9222 C   0  0  0  0  0  0  0  0  0  0  0  0
    1.0665   10.3484    8.3547 C   0  0  0  0  0  0  0  0  0  0  0  0
    1.3153   11.4144    8.7021 N   0  0  0  0  0  0  0  0  0  0  0  0
   -0.7312    8.9717    7.8572 C   0  0  0  0  0  0  0  0  0  0  0  0
   -1.8799    8.9728    7.8592 N   0  0  0  0  0  0  0  0  0  0  0  0
    6.5380    9.4166    8.4520 C   0  0  0  0  0  0  0  0  0  0  0  0
    7.2038   10.1660    7.2711 C   0  0  0  0  0  0  0  0  0  0  0  0
    6.6193    9.5847    6.0078 C   0  0  0  0  0  0  0  0  0  0  0  0
    7.0890    8.3516    5.8740 C   0  0  0  0  0  0  0  0  0  0  0  0
    7.9994    8.0767    7.0453 C   0  0  0  0  0  0  0  0  0  0  0  0
    8.5802    9.4815    7.2720 C   0  0  0  0  0  0  0  0  0  0  0  0
    7.0890    7.9645    8.2935 C   0  0  0  0  0  0  0  0  0  0  0  0
   -0.4567    5.1688    6.1030 C   0  0  0  0  0  0  0  0  0  0  0  0
   -1.7735    5.2587    4.9132 S   0  0  0  0  0  0  0  0  0  0  0  0
   -1.6937    3.5601    4.6785 C   0  0  0  0  0  0  0  0  0  0  0  0
   -2.2128    2.5377    3.8924 C   0  0  0  0  0  0  0  0  0  0  0  0
   -3.3196    2.3092    2.5765 S   0  0  0  0  0  0  0  0  0  0  0  0
   -2.8768    0.6340    2.5454 C   0  0  0  0  0  0  0  0  0  0  0  0
   -3.1437   -0.4371    1.6376 C   0  0  0  0  0  0  0  0  0  0  0  0
   -2.3562   -1.5347    2.0507 C   0  0  0  0  0  0  0  0  0  0  0  0
   -1.6275   -1.2183    3.3551 C   0  0  0  0  0  0  0  0  0  0  0  0
   -0.1333   -1.4220    3.1833 C   0  0  0  0  0  0  0  0  0  0  0  0
    0.4941   -0.8123    2.0986 C   0  0  0  0  0  0  0  0  0  0  0  0
    1.8485   -0.9473    1.8975 C   0  0  0  0  0  0  0  0  0  0  0  0
    2.6291   -1.6998    2.7797 C   0  0  0  0  0  0  0  0  0  0  0  0
    3.9502   -1.7749    2.4707 O   0  0  0  0  0  0  0  0  0  0  0  0
    4.8459   -2.4267    3.3483 C   0  0  0  0  0  0  0  0  0  0  0  0
    5.1853   -1.5838    4.5743 C   0  0  0  0  0  0  0  0  0  0  0  0
    2.0076   -2.3076    3.8637 C   0  0  0  0  0  0  0  0  0  0  0  0
    0.6426   -2.1647    4.0571 C   0  0  0  0  0  0  0  0  0  0  0  0
   -2.2319   -2.0478    4.4763 C   0  0  0  0  0  0  0  0  0  0  0  0
   -2.8891   -1.4642    5.5478 C   0  0  0  0  0  0  0  0  0  0  0  0
   -3.4503   -2.2275    6.5592 C   0  0  0  0  0  0  0  0  0  0  0  0
   -3.3693   -3.6136    6.5165 C   0  0  0  0  0  0  0  0  0  0  0  0
   -3.8917   -4.4751    7.4283 O   0  0  0  0  0  0  0  0  0  0  0  0
   -4.5382   -3.9773    8.5825 C   0  0  0  0  0  0  0  0  0  0  0  0
   -3.5560   -3.5052    9.6509 C   0  0  0  0  0  0  0  0  0  0  0  0
   -2.7100   -4.2074    5.4373 C   0  0  0  0  0  0  0  0  0  0  0  0
   -2.1562   -3.4389    4.4390 C   0  0  0  0  0  0  0  0  0  0  0  0
   -1.9545    0.2505    3.5043 C   0  0  0  0  0  0  0  0  0  0  0  0
   -1.5587    1.3390    4.2881 C   0  0  0  0  0  0  0  0  0  0  0  0
   -0.6908    1.6078    5.3094 N   0  0  0  0  0  0  0  0  0  0  0  0
   -0.7342    2.9600    5.5361 C   0  0  0  0  0  0  0  0  0  0  0  0
   -0.0497    3.8629    6.3355 C   0  0  0  0  0  0  0  0  0  0  0  0
    0.2329    0.7028    5.9448 C   0  0  0  0  0  0  0  0  0  0  0  0
    1.6539    0.8920    5.4205 C   0  0  0  0  0  0  0  0  0  0  0  0
   -2.2425   -2.6498    1.2546 C   0  0  0  0  0  0  0  0  0  0  0  0
   -2.9479   -2.6534    0.0546 C   0  0  0  0  0  0  0  0  0  0  0  0
   -2.9128   -3.5736   -1.0405 C   0  0  0  0  0  0  0  0  0  0  0  0
   -3.7863   -3.1804   -2.0395 C   0  0  0  0  0  0  0  0  0  0  0  0
   -4.3372   -1.8025   -1.7294 C   0  0  0  0  0  0  0  0  0  0  0  0
   -3.7745   -1.5740   -0.3343 C   0  0  0  0  0  0  0  0  0  0  0  0
   -3.8810   -0.4554    0.4566 C   0  0  0  0  0  0  0  0  0  0  0  0
   -5.8344   -1.6570   -1.7463 C   0  0  0  0  0  0  0  0  0  0  0  0
   -6.4340   -0.4060   -1.7184 C   0  0  0  0  0  0  0  0  0  0  0  0
   -7.8109   -0.2687   -1.6988 C   0  0  0  0  0  0  0  0  0  0  0  0
   -8.6257   -1.3965   -1.7084 C   0  0  0  0  0  0  0  0  0  0  0  0
   -9.9851   -1.3985   -1.7212 O   0  0  0  0  0  0  0  0  0  0  0  0
  -10.6958   -0.1864   -1.5659 C   0  0  0  0  0  0  0  0  0  0  0  0
  -10.6985    0.3120   -0.1239 C   0  0  0  0  0  0  0  0  0  0  0  0
   -8.0248   -2.6566   -1.7318 C   0  0  0  0  0  0  0  0  0  0  0  0
   -6.6529   -2.7817   -1.7448 C   0  0  0  0  0  0  0  0  0  0  0  0
   -3.5877   -0.9810   -2.7837 C   0  0  0  0  0  0  0  0  0  0  0  0
   -2.1975   -0.9500   -2.7315 C   0  0  0  0  0  0  0  0  0  0  0  0
   -1.4407   -0.5686   -3.8207 C   0  0  0  0  0  0  0  0  0  0  0  0
   -2.0667   -0.1940   -5.0065 C   0  0  0  0  0  0  0  0  0  0  0  0
   -1.4245    0.0721   -6.1709 O   0  0  0  0  0  0  0  0  0  0  0  0
   -0.0619   -0.3050   -6.2910 C   0  0  0  0  0  0  0  0  0  0  0  0
    0.3271   -0.1855   -7.7560 C   0  0  0  0  0  0  0  0  0  0  0  0
   -3.4577   -0.0928   -5.0184 C   0  0  0  0  0  0  0  0  0  0  0  0
   -4.2048   -0.4923   -3.9282 C   0  0  0  0  0  0  0  0  0  0  0  0
   -3.5535   -3.8875   -3.2274 C   0  0  0  0  0  0  0  0  0  0  0  0
   -2.4077   -4.7152   -3.1276 C   0  0  0  0  0  0  0  0  0  0  0  0
   -1.7651   -4.7911   -1.5144 S   0  0  0  0  0  0  0  0  0  0  0  0
   -2.0613   -5.0711   -4.4291 C   0  0  0  0  0  0  0  0  0  0  0  0
   -0.7537   -5.7227   -5.3265 S   0  0  0  0  0  0  0  0  0  0  0  0
   -1.5478   -5.2745   -6.8308 C   0  0  0  0  0  0  0  0  0  0  0  0
   -2.8006   -4.7124   -6.6281 C   0  0  0  0  0  0  0  0  0  0  0  0
   -3.0645   -4.5310   -5.2767 C   0  0  0  0  0  0  0  0  0  0  0  0
   -3.9757   -3.8307   -4.5281 N   0  0  0  0  0  0  0  0  0  0  0  0
   -5.2402   -3.3392   -5.0120 C   0  0  0  0  0  0  0  0  0  0  0  0
   -6.2015   -4.4885   -5.3101 C   0  0  0  0  0  0  0  0  0  0  0  0
   -0.9165   -5.4501   -8.0838 C   0  0  0  0  0  0  0  0  0  0  0  0
    0.4136   -5.2362   -8.3257 C   0  0  0  0  0  0  0  0  0  0  0  0
    1.2720   -4.3660   -7.4868 C   0  0  0  0  0  0  0  0  0  0  0  0
    0.9950   -3.8292   -6.4329 O   0  0  0  0  0  0  0  0  0  0  0  0
    2.4980   -4.1405   -8.2737 C   0  0  0  0  0  0  0  0  0  0  0  0
    3.5823   -3.3466   -7.9087 C   0  0  0  0  0  0  0  0  0  0  0  0
    4.5908   -3.3150   -8.8410 C   0  0  0  0  0  0  0  0  0  0  0  0
    4.5222   -4.0141  -10.0534 C   0  0  0  0  0  0  0  0  0  0  0  0
    3.4513   -4.7891  -10.4319 C   0  0  0  0  0  0  0  0  0  0  0  0
    2.4159   -4.8389   -9.4943 C   0  0  0  0  0  0  0  0  0  0  0  0
    1.1344   -5.5387   -9.5413 C   0  0  0  0  0  0  0  0  0  0  0  0
    0.7165   -6.3917  -10.5316 C   0  0  0  0  0  0  0  0  0  0  0  0
   -0.4990   -7.1060  -10.5063 C   0  0  0  0  0  0  0  0  0  0  0  0
   -1.4630   -7.7295  -10.5478 N   0  0  0  0  0  0  0  0  0  0  0  0
    1.4529   -6.6856  -11.6962 C   0  0  0  0  0  0  0  0  0  0  0  0
    1.9983   -6.9618  -12.6685 N   0  0  0  0  0  0  0  0  0  0  0  0
    5.8844   -3.5394  -10.4947 C   0  0  0  0  0  0  0  0  0  0  0  0
    7.0661   -4.5341  -10.3817 C   0  0  0  0  0  0  0  0  0  0  0  0
    6.7137   -5.4954   -9.2736 C   0  0  0  0  0  0  0  0  0  0  0  0
    6.7783   -4.8326   -8.1266 C   0  0  0  0  0  0  0  0  0  0  0  0
    7.1748   -3.4107   -8.4387 C   0  0  0  0  0  0  0  0  0  0  0  0
    8.0864   -3.6441   -9.6538 C   0  0  0  0  0  0  0  0  0  0  0  0
    5.9596   -2.7596   -9.1442 C   0  0  0  0  0  0  0  0  0  0  0  0
   -0.6473    7.2288    6.3894 H   0  0  0  0  0  0  0  0  0  0  0  0
    5.1883    5.4404    7.6844 H   0  0  0  0  0  0  0  0  0  0  0  0
    3.4676   10.1715    8.2420 H   0  0  0  0  0  0  0  0  0  0  0  0
    6.6945    9.9213    9.4033 H   0  0  0  0  0  0  0  0  0  0  0  0
    7.1828   11.2492    7.3550 H   0  0  0  0  0  0  0  0  0  0  0  0
    5.9017   10.0930    5.3907 H   0  0  0  0  0  0  0  0  0  0  0  0
    6.8417    7.6239    5.1233 H   0  0  0  0  0  0  0  0  0  0  0  0
    8.7036    7.2575    6.9242 H   0  0  0  0  0  0  0  0  0  0  0  0
    9.1148    9.5832    8.2154 H   0  0  0  0  0  0  0  0  0  0  0  0
    9.2156    9.8120    6.4515 H   0  0  0  0  0  0  0  0  0  0  0  0
    7.6027    7.5195    9.1436 H   0  0  0  0  0  0  0  0  0  0  0  0
   -0.0923   -0.2260    1.4058 H   0  0  0  0  0  0  0  0  0  0  0  0
    2.3354   -0.4793    1.0567 H   0  0  0  0  0  0  0  0  0  0  0  0
    4.4550   -3.4082    3.6438 H   0  0  0  0  0  0  0  0  0  0  0  0
    5.7457   -2.5835    2.7469 H   0  0  0  0  0  0  0  0  0  0  0  0
    4.3012   -1.4049    5.1811 H   0  0  0  0  0  0  0  0  0  0  0  0
    5.5848   -0.6227    4.2608 H   0  0  0  0  0  0  0  0  0  0  0  0
    5.9295   -2.0970    5.1770 H   0  0  0  0  0  0  0  0  0  0  0  0
    2.5654   -2.9025    4.5696 H   0  0  0  0  0  0  0  0  0  0  0  0
    0.1905   -2.6510    4.9092 H   0  0  0  0  0  0  0  0  0  0  0  0
   -2.9786   -0.3904    5.6135 H   0  0  0  0  0  0  0  0  0  0  0  0
   -3.9522   -1.7181    7.3666 H   0  0  0  0  0  0  0  0  0  0  0  0
   -5.1117   -4.8290    8.9592 H   0  0  0  0  0  0  0  0  0  0  0  0
   -5.2422   -3.1789    8.3177 H   0  0  0  0  0  0  0  0  0  0  0  0
   -2.9527   -2.6768    9.2875 H   0  0  0  0  0  0  0  0  0  0  0  0
   -2.8906   -4.3200    9.9248 H   0  0  0  0  0  0  0  0  0  0  0  0
   -4.1023   -3.1836   10.5333 H   0  0  0  0  0  0  0  0  0  0  0  0
   -2.6507   -5.2838    5.4050 H   0  0  0  0  0  0  0  0  0  0  0  0
   -1.6499   -3.9289    3.6232 H   0  0  0  0  0  0  0  0  0  0  0  0
    0.7179    3.6158    7.0428 H   0  0  0  0  0  0  0  0  0  0  0  0
    0.2080    0.8907    7.0231 H   0  0  0  0  0  0  0  0  0  0  0  0
   -0.1098   -0.3158    5.7556 H   0  0  0  0  0  0  0  0  0  0  0  0
    2.0038    1.9008    5.6247 H   0  0  0  0  0  0  0  0  0  0  0  0
    1.6875    0.7158    4.3481 H   0  0  0  0  0  0  0  0  0  0  0  0
    2.3198    0.1875    5.9103 H   0  0  0  0  0  0  0  0  0  0  0  0
   -1.5906   -3.4739    1.4977 H   0  0  0  0  0  0  0  0  0  0  0  0
   -4.4638    0.4040    0.1656 H   0  0  0  0  0  0  0  0  0  0  0  0
   -5.8205    0.4827   -1.7222 H   0  0  0  0  0  0  0  0  0  0  0  0
   -8.2298    0.7251   -1.6805 H   0  0  0  0  0  0  0  0  0  0  0  0
  -11.7156   -0.4313   -1.8756 H   0  0  0  0  0  0  0  0  0  0  0  0
  -10.3064    0.5822   -2.2450 H   0  0  0  0  0  0  0  0  0  0  0  0
  -11.1217   -0.4488    0.5272 H   0  0  0  0  0  0  0  0  0  0  0  0
  -11.2983    1.2148   -0.0492 H   0  0  0  0  0  0  0  0  0  0  0  0
   -9.6883    0.5291    0.2149 H   0  0  0  0  0  0  0  0  0  0  0  0
   -8.6624   -3.5264   -1.7368 H   0  0  0  0  0  0  0  0  0  0  0  0
   -6.2069   -3.7659   -1.7489 H   0  0  0  0  0  0  0  0  0  0  0  0
   -1.6866   -1.2741   -1.8369 H   0  0  0  0  0  0  0  0  0  0  0  0
   -0.3656   -0.5999   -3.7469 H   0  0  0  0  0  0  0  0  0  0  0  0
    0.5667    0.3564   -5.6789 H   0  0  0  0  0  0  0  0  0  0  0  0
    0.0739   -1.3404   -5.9518 H   0  0  0  0  0  0  0  0  0  0  0  0
   -0.2929   -0.8442   -8.3584 H   0  0  0  0  0  0  0  0  0  0  0  0
    1.3683   -0.4687   -7.8825 H   0  0  0  0  0  0  0  0  0  0  0  0
    0.1869    0.8357   -8.1002 H   0  0  0  0  0  0  0  0  0  0  0  0
   -3.9409    0.2587   -5.9166 H   0  0  0  0  0  0  0  0  0  0  0  0
   -5.2816   -0.4433   -3.9893 H   0  0  0  0  0  0  0  0  0  0  0  0
   -3.4208   -4.3752   -7.4389 H   0  0  0  0  0  0  0  0  0  0  0  0
   -5.0633   -2.7485   -5.9159 H   0  0  0  0  0  0  0  0  0  0  0  0
   -5.6668   -2.6942   -4.2438 H   0  0  0  0  0  0  0  0  0  0  0  0
   -6.3918   -5.0636   -4.4069 H   0  0  0  0  0  0  0  0  0  0  0  0
   -5.7840   -5.1530   -6.0626 H   0  0  0  0  0  0  0  0  0  0  0  0
   -7.1457   -4.0941   -5.6747 H   0  0  0  0  0  0  0  0  0  0  0  0
   -1.5672   -5.7028   -8.9135 H   0  0  0  0  0  0  0  0  0  0  0  0
    3.5932   -2.8249   -6.9643 H   0  0  0  0  0  0  0  0  0  0  0  0
    3.4074   -5.3108  -11.3734 H   0  0  0  0  0  0  0  0  0  0  0  0
    5.9138   -2.9643  -11.4182 H   0  0  0  0  0  0  0  0  0  0  0  0
    7.3722   -4.9798  -11.3242 H   0  0  0  0  0  0  0  0  0  0  0  0
    6.4071   -6.5117   -9.4379 H   0  0  0  0  0  0  0  0  0  0  0  0
    6.5356   -5.1843   -7.1409 H   0  0  0  0  0  0  0  0  0  0  0  0
    7.5802   -2.8327   -7.6121 H   0  0  0  0  0  0  0  0  0  0  0  0
    8.3302   -2.7309  -10.1952 H   0  0  0  0  0  0  0  0  0  0  0  0
    9.0018   -4.1754   -9.3977 H   0  0  0  0  0  0  0  0  0  0  0  0
    6.0364   -1.6746   -9.1861 H   0  0  0  0  0  0  0  0  0  0  0  0
  1  2  2  0  0  0  0
  2  3  1  0  0  0  0
  3  4  2  0  0  0  0
  3  5  1  0  0  0  0
  5  6  2  0  0  0  0
  6  7  1  0  0  0  0
  7  8  2  0  0  0  0
  8  9  1  0  0  0  0
  9 10  2  0  0  0  0
 10 11  1  0  0  0  0
 11 12  2  0  0  0  0
 12 13  1  0  0  0  0
 13 14  3  0  0  0  0
 12 15  1  0  0  0  0
 15 16  3  0  0  0  0
  8 17  1  0  0  0  0
 17 18  1  0  0  0  0
 18 19  1  0  0  0  0
 19 20  2  0  0  0  0
 20 21  1  0  0  0  0
 21 22  1  0  0  0  0
 21 23  1  0  0  0  0
  1 24  1  0  0  0  0
 24 25  1  0  0  0  0
 25 26  1  0  0  0  0
 26 27  1  0  0  0  0
 27 28  1  0  0  0  0
 28 29  1  0  0  0  0
 29 30  1  0  0  0  0
 30 31  2  0  0  0  0
 31 32  1  0  0  0  0
 32 33  1  0  0  0  0
 33 34  2  0  0  0  0
 34 35  1  0  0  0  0
 35 36  2  0  0  0  0
 36 37  1  0  0  0  0
 37 38  1  0  0  0  0
 38 39  1  0  0  0  0
 36 40  1  0  0  0  0
 40 41  2  0  0  0  0
 32 42  1  0  0  0  0
 42 43  2  0  0  0  0
 43 44  1  0  0  0  0
 44 45  2  0  0  0  0
 45 46  1  0  0  0  0
 46 47  1  0  0  0  0
 47 48  1  0  0  0  0
 45 49  1  0  0  0  0
 49 50  2  0  0  0  0
 32 51  1  0  0  0  0
 51 52  1  0  0  0  0
 52 53  1  0  0  0  0
 53 54  1  0  0  0  0
 54 55  1  0  0  0  0
 53 56  1  0  0  0  0
 56 57  1  0  0  0  0
 31 58  1  0  0  0  0
 58 59  2  0  0  0  0
 59 60  1  0  0  0  0
 60 61  2  0  0  0  0
 61 62  1  0  0  0  0
 62 63  1  0  0  0  0
 63 64  2  0  0  0  0
 62 65  1  0  0  0  0
 65 66  2  0  0  0  0
 66 67  1  0  0  0  0
 67 68  2  0  0  0  0
 68 69  1  0  0  0  0
 69 70  1  0  0  0  0
 70 71  1  0  0  0  0
 68 72  1  0  0  0  0
 72 73  2  0  0  0  0
 62 74  1  0  0  0  0
 74 75  2  0  0  0  0
 75 76  1  0  0  0  0
 76 77  2  0  0  0  0
 77 78  1  0  0  0  0
 78 79  1  0  0  0  0
 79 80  1  0  0  0  0
 77 81  1  0  0  0  0
 81 82  2  0  0  0  0
 61 83  1  0  0  0  0
 83 84  2  0  0  0  0
 84 85  1  0  0  0  0
 84 86  1  0  0  0  0
 86 87  1  0  0  0  0
 87 88  1  0  0  0  0
 88 89  2  0  0  0  0
 89 90  1  0  0  0  0
 90 91  1  0  0  0  0
 91 92  1  0  0  0  0
 92 93  1  0  0  0  0
 88 94  1  0  0  0  0
 94 95  2  0  0  0  0
 95 96  1  0  0  0  0
 96 97  2  0  0  0  0
 96 98  1  0  0  0  0
 98 99  2  0  0  0  0
 99100  1  0  0  0  0
100101  2  0  0  0  0
101102  1  0  0  0  0
102103  2  0  0  0  0
103104  1  0  0  0  0
104105  2  0  0  0  0
105106  1  0  0  0  0
106107  3  0  0  0  0
105108  1  0  0  0  0
108109  3  0  0  0  0
101110  1  0  0  0  0
110111  1  0  0  0  0
111112  1  0  0  0  0
112113  2  0  0  0  0
113114  1  0  0  0  0
114115  1  0  0  0  0
114116  1  0  0  0  0
 11  2  1  0  0  0  0
 23 17  1  0  0  0  0
 55 24  2  0  0  0  0
 63 59  1  0  0  0  0
 73 65  1  0  0  0  0
 82 74  1  0  0  0  0
 91 83  1  0  0  0  0
104 95  1  0  0  0  0
116110  1  0  0  0  0
 10  5  1  0  0  0  0
 22 18  1  0  0  0  0
 54 26  2  0  0  0  0
 85 60  1  0  0  0  0
 90 86  2  0  0  0  0
103 98  1  0  0  0  0
115111  1  0  0  0  0
 23  7  1  0  0  0  0
 52 27  2  0  0  0  0
116100  1  0  0  0  0
 51 29  2  0  0  0  0
 64 30  1  0  0  0  0
 41 33  1  0  0  0  0
 50 42  1  0  0  0  0
  1117  1  0  0  0  0
  6118  1  0  0  0  0
  9119  1  0  0  0  0
 17120  1  0  0  0  0
 18121  1  0  0  0  0
 19122  1  0  0  0  0
 20123  1  0  0  0  0
 21124  1  0  0  0  0
 22125  1  0  0  0  0
 22126  1  0  0  0  0
 23127  1  0  0  0  0
 34128  1  0  0  0  0
 35129  1  0  0  0  0
 38130  1  0  0  0  0
 38131  1  0  0  0  0
 39132  1  0  0  0  0
 39133  1  0  0  0  0
 39134  1  0  0  0  0
 40135  1  0  0  0  0
 41136  1  0  0  0  0
 43137  1  0  0  0  0
 44138  1  0  0  0  0
 47139  1  0  0  0  0
 47140  1  0  0  0  0
 48141  1  0  0  0  0
 48142  1  0  0  0  0
 48143  1  0  0  0  0
 49144  1  0  0  0  0
 50145  1  0  0  0  0
 55146  1  0  0  0  0
 56147  1  0  0  0  0
 56148  1  0  0  0  0
 57149  1  0  0  0  0
 57150  1  0  0  0  0
 57151  1  0  0  0  0
 58152  1  0  0  0  0
 64153  1  0  0  0  0
 66154  1  0  0  0  0
 67155  1  0  0  0  0
 70156  1  0  0  0  0
 70157  1  0  0  0  0
 71158  1  0  0  0  0
 71159  1  0  0  0  0
 71160  1  0  0  0  0
 72161  1  0  0  0  0
 73162  1  0  0  0  0
 75163  1  0  0  0  0
 76164  1  0  0  0  0
 79165  1  0  0  0  0
 79166  1  0  0  0  0
 80167  1  0  0  0  0
 80168  1  0  0  0  0
 80169  1  0  0  0  0
 81170  1  0  0  0  0
 82171  1  0  0  0  0
 89172  1  0  0  0  0
 92173  1  0  0  0  0
 92174  1  0  0  0  0
 93175  1  0  0  0  0
 93176  1  0  0  0  0
 93177  1  0  0  0  0
 94178  1  0  0  0  0
 99179  1  0  0  0  0
102180  1  0  0  0  0
110181  1  0  0  0  0
111182  1  0  0  0  0
112183  1  0  0  0  0
113184  1  0  0  0  0
114185  1  0  0  0  0
115186  1  0  0  0  0
115187  1  0  0  0  0
116188  1  0  0  0  0
M  END
