
  xtb     02022210313D
 energy: -183.754445190322 gnorm: 0.001432078673 xtb: 6.4.1 (unknown)
 98112  0     0  0            999 V2000
   -5.4352   -3.3284   -2.8523 C   0  0  0  0  0  0  0  0  0  0  0  0
   -4.9278   -4.6020   -2.9358 C   0  0  0  0  0  0  0  0  0  0  0  0
   -3.5196   -4.9579   -2.8169 C   0  0  0  0  0  0  0  0  0  0  0  0
   -2.5778   -4.1949   -2.6250 O   0  0  0  0  0  0  0  0  0  0  0  0
   -3.4312   -6.4137   -2.9776 C   0  0  0  0  0  0  0  0  0  0  0  0
   -2.2802   -7.1972   -2.9393 C   0  0  0  0  0  0  0  0  0  0  0  0
   -2.5132   -8.5395   -3.1182 C   0  0  0  0  0  0  0  0  0  0  0  0
   -3.7961   -9.0636   -3.3255 C   0  0  0  0  0  0  0  0  0  0  0  0
   -4.9393   -8.2998   -3.3700 C   0  0  0  0  0  0  0  0  0  0  0  0
   -4.7273   -6.9311   -3.1853 C   0  0  0  0  0  0  0  0  0  0  0  0
   -5.6818   -5.8217   -3.1602 C   0  0  0  0  0  0  0  0  0  0  0  0
   -7.0389   -5.9413   -3.3106 C   0  0  0  0  0  0  0  0  0  0  0  0
   -7.7157   -7.1602   -3.5294 C   0  0  0  0  0  0  0  0  0  0  0  0
   -8.3352   -8.1092   -3.7125 N   0  0  0  0  0  0  0  0  0  0  0  0
   -7.9704   -4.8822   -3.2686 C   0  0  0  0  0  0  0  0  0  0  0  0
   -8.7982   -4.0860   -3.2431 N   0  0  0  0  0  0  0  0  0  0  0  0
   -3.2873  -10.4802   -3.4243 C   0  0  0  0  0  0  0  0  0  0  0  0
   -3.4849  -11.4073   -2.1997 C   0  0  0  0  0  0  0  0  0  0  0  0
   -3.5526  -10.5096   -0.9894 C   0  0  0  0  0  0  0  0  0  0  0  0
   -2.3407  -10.0097   -0.7880 C   0  0  0  0  0  0  0  0  0  0  0  0
   -1.4311  -10.5614   -1.8578 C   0  0  0  0  0  0  0  0  0  0  0  0
   -2.0551  -11.9524   -2.0528 C   0  0  0  0  0  0  0  0  0  0  0  0
   -1.8587   -9.8955   -3.1894 C   0  0  0  0  0  0  0  0  0  0  0  0
   -4.7940   -2.1058   -2.6066 C   0  0  0  0  0  0  0  0  0  0  0  0
   -5.5242   -0.9160   -2.5408 C   0  0  0  0  0  0  0  0  0  0  0  0
   -4.7821    0.2136   -2.2511 C   0  0  0  0  0  0  0  0  0  0  0  0
   -5.2694    1.8904   -2.0654 S   0  0  0  0  0  0  0  0  0  0  0  0
   -3.6245    2.3002   -1.7258 C   0  0  0  0  0  0  0  0  0  0  0  0
   -2.8428    3.4255   -1.4291 C   0  0  0  0  0  0  0  0  0  0  0  0
   -3.1703    4.7987   -1.3737 C   0  0  0  0  0  0  0  0  0  0  0  0
   -2.1311    5.7504   -1.1082 C   0  0  0  0  0  0  0  0  0  0  0  0
   -2.5695    6.9988   -1.1354 N   0  0  0  0  0  0  0  0  0  0  0  0
   -4.1544    6.9792   -1.4631 S   0  0  0  0  0  0  0  0  0  0  0  0
   -4.3428    5.3766   -1.5821 N   0  0  0  0  0  0  0  0  0  0  0  0
   -0.8392    5.2764   -0.7864 C   0  0  0  0  0  0  0  0  0  0  0  0
    0.2901    5.9482   -0.3003 C   0  0  0  0  0  0  0  0  0  0  0  0
    1.2390    4.9693    0.0277 C   0  0  0  0  0  0  0  0  0  0  0  0
    0.7431    3.7263   -0.2666 N   0  0  0  0  0  0  0  0  0  0  0  0
    1.4227    2.5525    0.2283 C   0  0  0  0  0  0  0  0  0  0  0  0
    2.6087    2.1643   -0.6555 C   0  0  0  0  0  0  0  0  0  0  0  0
   -0.5283    3.8843   -0.7834 C   0  0  0  0  0  0  0  0  0  0  0  0
   -1.5067    2.9623   -1.2351 C   0  0  0  0  0  0  0  0  0  0  0  0
   -1.4792    1.5964   -1.4628 N   0  0  0  0  0  0  0  0  0  0  0  0
   -2.7601    1.2004   -1.7539 C   0  0  0  0  0  0  0  0  0  0  0  0
   -3.4012   -0.0008   -2.0639 C   0  0  0  0  0  0  0  0  0  0  0  0
   -2.9470   -1.7965   -2.2861 Se  0  0  0  0  0  2  0  0  0  0  0  0
   -0.4052    0.7424   -1.9215 C   0  0  0  0  0  0  0  0  0  0  0  0
   -0.2939    0.7744   -3.4453 C   0  0  0  0  0  0  0  0  0  0  0  0
    2.3808    5.5087    0.6237 C   0  0  0  0  0  0  0  0  0  0  0  0
    2.2864    6.9158    0.7238 C   0  0  0  0  0  0  0  0  0  0  0  0
    0.7897    7.5566    0.0797 S   0  0  0  0  0  0  0  0  0  0  0  0
    3.3550    7.5685    1.3213 C   0  0  0  0  0  0  0  0  0  0  0  0
    4.3708    6.7288    1.7513 C   0  0  0  0  0  0  0  0  0  0  0  0
    3.9781    4.8985    1.3546 Se  0  0  0  0  0  2  0  0  0  0  0  0
    5.5869    6.9578    2.4139 C   0  0  0  0  0  0  0  0  0  0  0  0
    6.1901    8.0964    2.8870 C   0  0  0  0  0  0  0  0  0  0  0  0
    5.6925    9.4889    2.8394 C   0  0  0  0  0  0  0  0  0  0  0  0
    4.6923    9.9165    2.3060 O   0  0  0  0  0  0  0  0  0  0  0  0
    6.6871   10.2872    3.5900 C   0  0  0  0  0  0  0  0  0  0  0  0
    6.7057   11.6384    3.8851 C   0  0  0  0  0  0  0  0  0  0  0  0
    5.7281   12.4489    3.4696 F   0  0  0  0  0  0  0  0  0  0  0  0
    7.7514   12.1731    4.6279 C   0  0  0  0  0  0  0  0  0  0  0  0
    8.7689   11.3450    5.0676 C   0  0  0  0  0  0  0  0  0  0  0  0
    8.7732    9.9852    4.7806 C   0  0  0  0  0  0  0  0  0  0  0  0
    7.7294    9.4572    4.0378 C   0  0  0  0  0  0  0  0  0  0  0  0
    7.4631    8.0913    3.5831 C   0  0  0  0  0  0  0  0  0  0  0  0
    8.3088    7.0281    3.7798 C   0  0  0  0  0  0  0  0  0  0  0  0
    8.1244    5.7080    3.3157 C   0  0  0  0  0  0  0  0  0  0  0  0
    8.0724    4.6117    2.9737 N   0  0  0  0  0  0  0  0  0  0  0  0
    9.5352    7.1032    4.4742 C   0  0  0  0  0  0  0  0  0  0  0  0
   10.5414    7.0779    5.0262 N   0  0  0  0  0  0  0  0  0  0  0  0
   -6.5060   -3.2232   -2.9851 H   0  0  0  0  0  0  0  0  0  0  0  0
   -1.3107   -6.7513   -2.7807 H   0  0  0  0  0  0  0  0  0  0  0  0
   -5.9171   -8.7207   -3.5338 H   0  0  0  0  0  0  0  0  0  0  0  0
   -3.4811  -10.9893   -4.3661 H   0  0  0  0  0  0  0  0  0  0  0  0
   -4.2884  -12.1309   -2.3066 H   0  0  0  0  0  0  0  0  0  0  0  0
   -4.4588  -10.2930   -0.4549 H   0  0  0  0  0  0  0  0  0  0  0  0
   -2.0321   -9.2912   -0.0513 H   0  0  0  0  0  0  0  0  0  0  0  0
   -0.3649  -10.5149   -1.6521 H   0  0  0  0  0  0  0  0  0  0  0  0
   -1.6941  -12.4690   -2.9409 H   0  0  0  0  0  0  0  0  0  0  0  0
   -1.9363  -12.5933   -1.1806 H   0  0  0  0  0  0  0  0  0  0  0  0
   -1.1176  -10.0277   -3.9752 H   0  0  0  0  0  0  0  0  0  0  0  0
   -6.5893   -0.8969   -2.7000 H   0  0  0  0  0  0  0  0  0  0  0  0
    1.8020    2.7909    1.2312 H   0  0  0  0  0  0  0  0  0  0  0  0
    0.7022    1.7408    0.3376 H   0  0  0  0  0  0  0  0  0  0  0  0
    3.0135    1.2084   -0.3347 H   0  0  0  0  0  0  0  0  0  0  0  0
    3.3949    2.9139   -0.5726 H   0  0  0  0  0  0  0  0  0  0  0  0
    2.3242    2.0974   -1.7033 H   0  0  0  0  0  0  0  0  0  0  0  0
    0.5403    1.0431   -1.4885 H   0  0  0  0  0  0  0  0  0  0  0  0
   -0.6381   -0.2788   -1.5923 H   0  0  0  0  0  0  0  0  0  0  0  0
   -1.2098    0.4083   -3.9048 H   0  0  0  0  0  0  0  0  0  0  0  0
   -0.1126    1.7902   -3.7915 H   0  0  0  0  0  0  0  0  0  0  0  0
    0.5280    0.1402   -3.7658 H   0  0  0  0  0  0  0  0  0  0  0  0
    3.4016    8.6353    1.4556 H   0  0  0  0  0  0  0  0  0  0  0  0
    6.1380    6.0408    2.5957 H   0  0  0  0  0  0  0  0  0  0  0  0
    7.7517   13.2277    4.8526 H   0  0  0  0  0  0  0  0  0  0  0  0
    9.5773   11.7630    5.6473 H   0  0  0  0  0  0  0  0  0  0  0  0
    9.5791    9.3681    5.1397 H   0  0  0  0  0  0  0  0  0  0  0  0
  1  2  2  0  0  0  0
  2  3  1  0  0  0  0
  3  4  2  0  0  0  0
  3  5  1  0  0  0  0
  5  6  2  0  0  0  0
  6  7  1  0  0  0  0
  7  8  2  0  0  0  0
  8  9  1  0  0  0  0
  9 10  2  0  0  0  0
 10 11  1  0  0  0  0
 11 12  2  0  0  0  0
 12 13  1  0  0  0  0
 13 14  3  0  0  0  0
 12 15  1  0  0  0  0
 15 16  3  0  0  0  0
  8 17  1  0  0  0  0
 17 18  1  0  0  0  0
 18 19  1  0  0  0  0
 19 20  2  0  0  0  0
 20 21  1  0  0  0  0
 21 22  1  0  0  0  0
 21 23  1  0  0  0  0
  1 24  1  0  0  0  0
 24 25  2  0  0  0  0
 25 26  1  0  0  0  0
 26 27  1  0  0  0  0
 27 28  1  0  0  0  0
 28 29  1  0  0  0  0
 29 30  1  0  0  0  0
 30 31  1  0  0  0  0
 31 32  2  0  0  0  0
 32 33  1  0  0  0  0
 33 34  1  0  0  0  0
 31 35  1  0  0  0  0
 35 36  1  0  0  0  0
 36 37  2  0  0  0  0
 37 38  1  0  0  0  0
 38 39  1  0  0  0  0
 39 40  1  0  0  0  0
 38 41  1  0  0  0  0
 41 42  1  0  0  0  0
 42 43  1  0  0  0  0
 43 44  1  0  0  0  0
 44 45  1  0  0  0  0
 45 46  1  0  0  0  0
 43 47  1  0  0  0  0
 47 48  1  0  0  0  0
 37 49  1  0  0  0  0
 49 50  2  0  0  0  0
 50 51  1  0  0  0  0
 50 52  1  0  0  0  0
 52 53  2  0  0  0  0
 53 54  1  0  0  0  0
 53 55  1  0  0  0  0
 55 56  2  0  0  0  0
 56 57  1  0  0  0  0
 57 58  2  0  0  0  0
 57 59  1  0  0  0  0
 59 60  2  0  0  0  0
 60 61  1  0  0  0  0
 60 62  1  0  0  0  0
 62 63  2  0  0  0  0
 63 64  1  0  0  0  0
 64 65  2  0  0  0  0
 65 66  1  0  0  0  0
 66 67  2  0  0  0  0
 67 68  1  0  0  0  0
 68 69  3  0  0  0  0
 67 70  1  0  0  0  0
 70 71  3  0  0  0  0
 11  2  1  0  0  0  0
 23 17  1  0  0  0  0
 46 24  1  0  0  0  0
 54 49  1  0  0  0  0
 66 56  1  0  0  0  0
 10  5  1  0  0  0  0
 22 18  1  0  0  0  0
 45 26  2  0  0  0  0
 65 59  1  0  0  0  0
 23  7  1  0  0  0  0
 44 28  2  0  0  0  0
 42 29  2  0  0  0  0
 34 30  2  0  0  0  0
 41 35  2  0  0  0  0
 51 36  1  0  0  0  0
  1 72  1  0  0  0  0
  6 73  1  0  0  0  0
  9 74  1  0  0  0  0
 17 75  1  0  0  0  0
 18 76  1  0  0  0  0
 19 77  1  0  0  0  0
 20 78  1  0  0  0  0
 21 79  1  0  0  0  0
 22 80  1  0  0  0  0
 22 81  1  0  0  0  0
 23 82  1  0  0  0  0
 25 83  1  0  0  0  0
 39 84  1  0  0  0  0
 39 85  1  0  0  0  0
 40 86  1  0  0  0  0
 40 87  1  0  0  0  0
 40 88  1  0  0  0  0
 47 89  1  0  0  0  0
 47 90  1  0  0  0  0
 48 91  1  0  0  0  0
 48 92  1  0  0  0  0
 48 93  1  0  0  0  0
 52 94  1  0  0  0  0
 55 95  1  0  0  0  0
 62 96  1  0  0  0  0
 63 97  1  0  0  0  0
 64 98  1  0  0  0  0
M  END
