
  xtb     02022202513D
 energy: -226.359477812096 gnorm: 0.000738500300 xtb: 6.4.1 (unknown)
130146  0     0  0            999 V2000
    6.1390    3.1115    0.0142 C   0  0  0  0  0  0  0  0  0  0  0  0
    6.7845    2.5083   -1.0368 C   0  0  0  0  0  0  0  0  0  0  0  0
    6.1795    1.6069   -2.0203 C   0  0  0  0  0  0  0  0  0  0  0  0
    5.0029    1.2968   -2.1199 O   0  0  0  0  0  0  0  0  0  0  0  0
    7.2749    1.1317   -2.8802 C   0  0  0  0  0  0  0  0  0  0  0  0
    7.1826    0.2187   -3.9286 C   0  0  0  0  0  0  0  0  0  0  0  0
    8.3845   -0.0602   -4.5333 C   0  0  0  0  0  0  0  0  0  0  0  0
    9.5901    0.5228   -4.1219 C   0  0  0  0  0  0  0  0  0  0  0  0
    9.6940    1.4260   -3.0906 C   0  0  0  0  0  0  0  0  0  0  0  0
    8.4815    1.7291   -2.4640 C   0  0  0  0  0  0  0  0  0  0  0  0
    8.1975    2.6203   -1.3389 C   0  0  0  0  0  0  0  0  0  0  0  0
    9.1211    3.4198   -0.7150 C   0  0  0  0  0  0  0  0  0  0  0  0
   10.4837    3.4940   -1.0732 C   0  0  0  0  0  0  0  0  0  0  0  0
   11.6014    3.6175   -1.3063 N   0  0  0  0  0  0  0  0  0  0  0  0
    8.8742    4.3070    0.3533 C   0  0  0  0  0  0  0  0  0  0  0  0
    8.7832    5.0587    1.2180 N   0  0  0  0  0  0  0  0  0  0  0  0
   10.3955   -0.2166   -5.1612 C   0  0  0  0  0  0  0  0  0  0  0  0
   10.8297    0.5913   -6.4021 C   0  0  0  0  0  0  0  0  0  0  0  0
   11.1578   -0.4697   -7.4276 C   0  0  0  0  0  0  0  0  0  0  0  0
   10.0153   -1.0192   -7.8193 C   0  0  0  0  0  0  0  0  0  0  0  0
    8.8957   -0.3389   -7.0650 C   0  0  0  0  0  0  0  0  0  0  0  0
    9.4789    1.0749   -6.9456 C   0  0  0  0  0  0  0  0  0  0  0  0
    9.0504   -0.8646   -5.6221 C   0  0  0  0  0  0  0  0  0  0  0  0
    4.8110    3.0064    0.4457 C   0  0  0  0  0  0  0  0  0  0  0  0
    4.3462    3.6446    1.6133 C   0  0  0  0  0  0  0  0  0  0  0  0
    5.0996    4.6401    2.3689 C   0  0  0  0  0  0  0  0  0  0  0  0
    5.7202    5.7100    1.7248 C   0  0  0  0  0  0  0  0  0  0  0  0
    6.4308    6.6437    2.4500 C   0  0  0  0  0  0  0  0  0  0  0  0
    6.5472    6.5367    3.8305 C   0  0  0  0  0  0  0  0  0  0  0  0
    7.3051    7.5675    4.6130 C   0  0  0  0  0  0  0  0  0  0  0  0
    6.3905    8.7377    4.9821 C   0  0  0  0  0  0  0  0  0  0  0  0
    5.9054    5.4840    4.4722 C   0  0  0  0  0  0  0  0  0  0  0  0
    5.1850    4.5493    3.7568 C   0  0  0  0  0  0  0  0  0  0  0  0
    3.0639    3.2165    1.9519 C   0  0  0  0  0  0  0  0  0  0  0  0
    1.9930    3.5922    3.2887 S   0  0  0  0  0  0  0  0  0  0  0  0
    0.8174    2.5161    2.6141 C   0  0  0  0  0  0  0  0  0  0  0  0
   -0.4711    2.0332    2.8963 C   0  0  0  0  0  0  0  0  0  0  0  0
   -1.4306    2.3513    3.8853 C   0  0  0  0  0  0  0  0  0  0  0  0
   -2.7333    1.7405    3.8246 C   0  0  0  0  0  0  0  0  0  0  0  0
   -3.5422    2.1862    4.7721 N   0  0  0  0  0  0  0  0  0  0  0  0
   -2.7405    3.2690    5.6688 S   0  0  0  0  0  0  0  0  0  0  0  0
   -1.3282    3.2160    4.8816 N   0  0  0  0  0  0  0  0  0  0  0  0
   -2.9800    0.7336    2.8625 C   0  0  0  0  0  0  0  0  0  0  0  0
   -4.0585   -0.1403    2.6443 C   0  0  0  0  0  0  0  0  0  0  0  0
   -5.6364   -0.4606    3.2747 S   0  0  0  0  0  0  0  0  0  0  0  0
   -5.7724   -1.8237    2.1858 C   0  0  0  0  0  0  0  0  0  0  0  0
   -6.7836   -2.7638    1.9587 C   0  0  0  0  0  0  0  0  0  0  0  0
   -8.0455   -2.7749    2.6967 C   0  0  0  0  0  0  0  0  0  0  0  0
   -9.2736   -2.8171    2.0405 C   0  0  0  0  0  0  0  0  0  0  0  0
  -10.4493   -2.8035    2.7644 C   0  0  0  0  0  0  0  0  0  0  0  0
  -10.4342   -2.7497    4.1532 C   0  0  0  0  0  0  0  0  0  0  0  0
  -11.7126   -2.7947    4.9368 C   0  0  0  0  0  0  0  0  0  0  0  0
  -12.0794   -4.2429    5.2693 C   0  0  0  0  0  0  0  0  0  0  0  0
   -9.2062   -2.6971    4.8020 C   0  0  0  0  0  0  0  0  0  0  0  0
   -8.0253   -2.7006    4.0877 C   0  0  0  0  0  0  0  0  0  0  0  0
   -6.4046   -3.6955    0.9863 C   0  0  0  0  0  0  0  0  0  0  0  0
   -4.8308   -3.3110    0.2861 S   0  0  0  0  0  0  0  0  0  0  0  0
   -4.6443   -1.9876    1.3693 C   0  0  0  0  0  0  0  0  0  0  0  0
   -3.6637   -1.0356    1.6387 C   0  0  0  0  0  0  0  0  0  0  0  0
   -2.3883   -0.7489    1.2179 N   0  0  0  0  0  0  0  0  0  0  0  0
   -1.9691    0.3536    1.9395 C   0  0  0  0  0  0  0  0  0  0  0  0
   -0.7814    1.1095    1.8610 C   0  0  0  0  0  0  0  0  0  0  0  0
    0.2487    1.0815    0.9429 N   0  0  0  0  0  0  0  0  0  0  0  0
    1.2285    1.9195    1.4133 C   0  0  0  0  0  0  0  0  0  0  0  0
    2.5138    2.3117    1.0310 C   0  0  0  0  0  0  0  0  0  0  0  0
    3.5935    1.9474   -0.2635 S   0  0  0  0  0  0  0  0  0  0  0  0
    0.1357    0.8070   -0.4762 C   0  0  0  0  0  0  0  0  0  0  0  0
    0.0411    2.1017   -1.2828 C   0  0  0  0  0  0  0  0  0  0  0  0
   -1.5492   -1.8162    0.7034 C   0  0  0  0  0  0  0  0  0  0  0  0
   -1.4091   -2.9528    1.7159 C   0  0  0  0  0  0  0  0  0  0  0  0
   -7.1498   -4.8081    0.5651 C   0  0  0  0  0  0  0  0  0  0  0  0
   -6.7699   -5.8630   -0.2192 C   0  0  0  0  0  0  0  0  0  0  0  0
   -7.8068   -6.6205   -0.9626 C   0  0  0  0  0  0  0  0  0  0  0  0
   -9.0042   -6.5838   -0.7878 O   0  0  0  0  0  0  0  0  0  0  0  0
   -7.0639   -7.3693   -2.0010 C   0  0  0  0  0  0  0  0  0  0  0  0
   -7.5557   -8.1333   -3.0420 C   0  0  0  0  0  0  0  0  0  0  0  0
   -6.6538   -8.7160   -3.9193 C   0  0  0  0  0  0  0  0  0  0  0  0
   -5.2953   -8.5154   -3.7262 C   0  0  0  0  0  0  0  0  0  0  0  0
   -4.4377   -9.0745   -4.5964 F   0  0  0  0  0  0  0  0  0  0  0  0
   -4.7751   -7.7633   -2.6814 C   0  0  0  0  0  0  0  0  0  0  0  0
   -5.6818   -7.1858   -1.8109 C   0  0  0  0  0  0  0  0  0  0  0  0
   -5.4806   -6.3795   -0.6060 C   0  0  0  0  0  0  0  0  0  0  0  0
   -4.3429   -6.3841    0.1608 C   0  0  0  0  0  0  0  0  0  0  0  0
   -3.1198   -6.9520   -0.2428 C   0  0  0  0  0  0  0  0  0  0  0  0
   -2.0872   -7.3612   -0.5343 N   0  0  0  0  0  0  0  0  0  0  0  0
   -4.2992   -5.8878    1.4802 C   0  0  0  0  0  0  0  0  0  0  0  0
   -4.2292   -5.5462    2.5744 N   0  0  0  0  0  0  0  0  0  0  0  0
    6.7445    3.7404    0.6556 H   0  0  0  0  0  0  0  0  0  0  0  0
    6.2337   -0.2141   -4.2044 H   0  0  0  0  0  0  0  0  0  0  0  0
   10.6319    1.8570   -2.7836 H   0  0  0  0  0  0  0  0  0  0  0  0
   11.1815   -0.8646   -4.7784 H   0  0  0  0  0  0  0  0  0  0  0  0
   11.5920    1.3418   -6.2124 H   0  0  0  0  0  0  0  0  0  0  0  0
   12.1576   -0.7407   -7.7116 H   0  0  0  0  0  0  0  0  0  0  0  0
    9.8703   -1.8410   -8.4957 H   0  0  0  0  0  0  0  0  0  0  0  0
    7.8963   -0.4357   -7.4808 H   0  0  0  0  0  0  0  0  0  0  0  0
    8.9332    1.7241   -6.2634 H   0  0  0  0  0  0  0  0  0  0  0  0
    9.5759    1.5632   -7.9138 H   0  0  0  0  0  0  0  0  0  0  0  0
    8.9406   -1.9450   -5.5489 H   0  0  0  0  0  0  0  0  0  0  0  0
    5.6223    5.8192    0.6541 H   0  0  0  0  0  0  0  0  0  0  0  0
    6.9129    7.4613    1.9357 H   0  0  0  0  0  0  0  0  0  0  0  0
    7.7039    7.1207    5.5256 H   0  0  0  0  0  0  0  0  0  0  0  0
    8.1419    7.9364    4.0176 H   0  0  0  0  0  0  0  0  0  0  0  0
    5.9929    9.2058    4.0844 H   0  0  0  0  0  0  0  0  0  0  0  0
    5.5544    8.3896    5.5846 H   0  0  0  0  0  0  0  0  0  0  0  0
    6.9403    9.4852    5.5492 H   0  0  0  0  0  0  0  0  0  0  0  0
    5.9783    5.3904    5.5462 H   0  0  0  0  0  0  0  0  0  0  0  0
    4.7072    3.7262    4.2671 H   0  0  0  0  0  0  0  0  0  0  0  0
   -9.3078   -2.8263    0.9607 H   0  0  0  0  0  0  0  0  0  0  0  0
  -11.3948   -2.8308    2.2423 H   0  0  0  0  0  0  0  0  0  0  0  0
  -12.5199   -2.3430    4.3572 H   0  0  0  0  0  0  0  0  0  0  0  0
  -11.5986   -2.2304    5.8644 H   0  0  0  0  0  0  0  0  0  0  0  0
  -12.2058   -4.8206    4.3564 H   0  0  0  0  0  0  0  0  0  0  0  0
  -11.2932   -4.7065    5.8607 H   0  0  0  0  0  0  0  0  0  0  0  0
  -13.0073   -4.2790    5.8349 H   0  0  0  0  0  0  0  0  0  0  0  0
   -9.1753   -2.6491    5.8809 H   0  0  0  0  0  0  0  0  0  0  0  0
   -7.0784   -2.6691    4.6050 H   0  0  0  0  0  0  0  0  0  0  0  0
   -0.7677    0.2265   -0.6544 H   0  0  0  0  0  0  0  0  0  0  0  0
    1.0137    0.2377   -0.7964 H   0  0  0  0  0  0  0  0  0  0  0  0
   -0.1096    1.8624   -2.3316 H   0  0  0  0  0  0  0  0  0  0  0  0
   -0.7980    2.7016   -0.9359 H   0  0  0  0  0  0  0  0  0  0  0  0
    0.9523    2.6853   -1.1922 H   0  0  0  0  0  0  0  0  0  0  0  0
   -0.5570   -1.4240    0.4923 H   0  0  0  0  0  0  0  0  0  0  0  0
   -1.9987   -2.1922   -0.2211 H   0  0  0  0  0  0  0  0  0  0  0  0
   -0.9765   -2.5793    2.6415 H   0  0  0  0  0  0  0  0  0  0  0  0
   -0.7550   -3.7190    1.3093 H   0  0  0  0  0  0  0  0  0  0  0  0
   -2.3684   -3.4099    1.9424 H   0  0  0  0  0  0  0  0  0  0  0  0
   -8.2013   -4.7993    0.8310 H   0  0  0  0  0  0  0  0  0  0  0  0
   -8.6194   -8.2675   -3.1610 H   0  0  0  0  0  0  0  0  0  0  0  0
   -6.9854   -9.3195   -4.7493 H   0  0  0  0  0  0  0  0  0  0  0  0
   -3.7085   -7.6422   -2.5848 H   0  0  0  0  0  0  0  0  0  0  0  0
  1  2  2  0  0  0  0
  2  3  1  0  0  0  0
  3  4  2  0  0  0  0
  3  5  1  0  0  0  0
  5  6  2  0  0  0  0
  6  7  1  0  0  0  0
  7  8  2  0  0  0  0
  8  9  1  0  0  0  0
  9 10  2  0  0  0  0
 10 11  1  0  0  0  0
 11 12  2  0  0  0  0
 12 13  1  0  0  0  0
 13 14  3  0  0  0  0
 12 15  1  0  0  0  0
 15 16  3  0  0  0  0
  8 17  1  0  0  0  0
 17 18  1  0  0  0  0
 18 19  1  0  0  0  0
 19 20  2  0  0  0  0
 20 21  1  0  0  0  0
 21 22  1  0  0  0  0
 21 23  1  0  0  0  0
  1 24  1  0  0  0  0
 24 25  2  0  0  0  0
 25 26  1  0  0  0  0
 26 27  2  0  0  0  0
 27 28  1  0  0  0  0
 28 29  2  0  0  0  0
 29 30  1  0  0  0  0
 30 31  1  0  0  0  0
 29 32  1  0  0  0  0
 32 33  2  0  0  0  0
 25 34  1  0  0  0  0
 34 35  1  0  0  0  0
 35 36  1  0  0  0  0
 36 37  1  0  0  0  0
 37 38  1  0  0  0  0
 38 39  1  0  0  0  0
 39 40  2  0  0  0  0
 40 41  1  0  0  0  0
 41 42  1  0  0  0  0
 39 43  1  0  0  0  0
 43 44  1  0  0  0  0
 44 45  1  0  0  0  0
 45 46  1  0  0  0  0
 46 47  1  0  0  0  0
 47 48  1  0  0  0  0
 48 49  2  0  0  0  0
 49 50  1  0  0  0  0
 50 51  2  0  0  0  0
 51 52  1  0  0  0  0
 52 53  1  0  0  0  0
 51 54  1  0  0  0  0
 54 55  2  0  0  0  0
 47 56  2  0  0  0  0
 56 57  1  0  0  0  0
 57 58  1  0  0  0  0
 58 59  1  0  0  0  0
 59 60  1  0  0  0  0
 60 61  1  0  0  0  0
 61 62  1  0  0  0  0
 62 63  1  0  0  0  0
 63 64  1  0  0  0  0
 64 65  1  0  0  0  0
 65 66  1  0  0  0  0
 63 67  1  0  0  0  0
 67 68  1  0  0  0  0
 60 69  1  0  0  0  0
 69 70  1  0  0  0  0
 56 71  1  0  0  0  0
 71 72  2  0  0  0  0
 72 73  1  0  0  0  0
 73 74  2  0  0  0  0
 73 75  1  0  0  0  0
 75 76  2  0  0  0  0
 76 77  1  0  0  0  0
 77 78  2  0  0  0  0
 78 79  1  0  0  0  0
 78 80  1  0  0  0  0
 80 81  2  0  0  0  0
 81 82  1  0  0  0  0
 82 83  2  0  0  0  0
 83 84  1  0  0  0  0
 84 85  3  0  0  0  0
 83 86  1  0  0  0  0
 86 87  3  0  0  0  0
 11  2  1  0  0  0  0
 23 17  1  0  0  0  0
 66 24  1  0  0  0  0
 82 72  1  0  0  0  0
 10  5  1  0  0  0  0
 22 18  1  0  0  0  0
 33 26  1  0  0  0  0
 65 34  2  0  0  0  0
 81 75  1  0  0  0  0
 23  7  1  0  0  0  0
 64 36  2  0  0  0  0
 62 37  2  0  0  0  0
 42 38  2  0  0  0  0
 61 43  2  0  0  0  0
 59 44  2  0  0  0  0
 58 46  2  0  0  0  0
 55 48  1  0  0  0  0
  1 88  1  0  0  0  0
  6 89  1  0  0  0  0
  9 90  1  0  0  0  0
 17 91  1  0  0  0  0
 18 92  1  0  0  0  0
 19 93  1  0  0  0  0
 20 94  1  0  0  0  0
 21 95  1  0  0  0  0
 22 96  1  0  0  0  0
 22 97  1  0  0  0  0
 23 98  1  0  0  0  0
 27 99  1  0  0  0  0
 28100  1  0  0  0  0
 30101  1  0  0  0  0
 30102  1  0  0  0  0
 31103  1  0  0  0  0
 31104  1  0  0  0  0
 31105  1  0  0  0  0
 32106  1  0  0  0  0
 33107  1  0  0  0  0
 49108  1  0  0  0  0
 50109  1  0  0  0  0
 52110  1  0  0  0  0
 52111  1  0  0  0  0
 53112  1  0  0  0  0
 53113  1  0  0  0  0
 53114  1  0  0  0  0
 54115  1  0  0  0  0
 55116  1  0  0  0  0
 67117  1  0  0  0  0
 67118  1  0  0  0  0
 68119  1  0  0  0  0
 68120  1  0  0  0  0
 68121  1  0  0  0  0
 69122  1  0  0  0  0
 69123  1  0  0  0  0
 70124  1  0  0  0  0
 70125  1  0  0  0  0
 70126  1  0  0  0  0
 71127  1  0  0  0  0
 76128  1  0  0  0  0
 77129  1  0  0  0  0
 80130  1  0  0  0  0
M  END
