
  xtb     02012221163D
 energy: -220.061129848437 gnorm: 0.000945976812 xtb: 6.4.1 (unknown)
127143  0     0  0            999 V2000
    0.7813    2.2701    5.1180 C   0  0  0  0  0  0  0  0  0  0  0  0
    0.0832    2.9072    6.1043 C   0  0  0  0  0  0  0  0  0  0  0  0
   -1.3903    3.0071    6.1884 C   0  0  0  0  0  0  0  0  0  0  0  0
   -2.2053    2.4351    5.4944 O   0  0  0  0  0  0  0  0  0  0  0  0
   -1.6717    3.8143    7.3887 C   0  0  0  0  0  0  0  0  0  0  0  0
   -2.9172    4.2639    7.8200 C   0  0  0  0  0  0  0  0  0  0  0  0
   -2.8731    5.0118    8.9719 C   0  0  0  0  0  0  0  0  0  0  0  0
   -1.6781    5.2842    9.6517 C   0  0  0  0  0  0  0  0  0  0  0  0
   -0.4438    4.8418    9.2404 C   0  0  0  0  0  0  0  0  0  0  0  0
   -0.4653    4.0822    8.0655 C   0  0  0  0  0  0  0  0  0  0  0  0
    0.6378    3.4919    7.3097 C   0  0  0  0  0  0  0  0  0  0  0  0
    1.9642    3.5579    7.6547 C   0  0  0  0  0  0  0  0  0  0  0  0
    3.0371    3.0841    6.8721 C   0  0  0  0  0  0  0  0  0  0  0  0
    3.9675    2.7505    6.2866 N   0  0  0  0  0  0  0  0  0  0  0  0
    2.4522    4.1248    8.8500 C   0  0  0  0  0  0  0  0  0  0  0  0
    2.9219    4.5550    9.8057 N   0  0  0  0  0  0  0  0  0  0  0  0
   -2.3753    6.0892   10.7204 C   0  0  0  0  0  0  0  0  0  0  0  0
   -2.5910    5.3948   12.0815 C   0  0  0  0  0  0  0  0  0  0  0  0
   -3.6855    6.2092   12.7328 C   0  0  0  0  0  0  0  0  0  0  0  0
   -4.8170    5.9525   12.0890 C   0  0  0  0  0  0  0  0  0  0  0  0
   -4.5065    4.9602   10.9916 C   0  0  0  0  0  0  0  0  0  0  0  0
   -3.3939    4.1530   11.6728 C   0  0  0  0  0  0  0  0  0  0  0  0
   -3.7073    5.7867    9.9618 C   0  0  0  0  0  0  0  0  0  0  0  0
    0.3343    1.9439    3.8189 C   0  0  0  0  0  0  0  0  0  0  0  0
   -0.6114    2.5398    2.9884 C   0  0  0  0  0  0  0  0  0  0  0  0
   -1.4342    3.7184    3.2818 C   0  0  0  0  0  0  0  0  0  0  0  0
   -2.8165    3.5503    3.1975 C   0  0  0  0  0  0  0  0  0  0  0  0
   -3.6745    4.5902    3.4923 C   0  0  0  0  0  0  0  0  0  0  0  0
   -3.1547    5.8200    3.8553 C   0  0  0  0  0  0  0  0  0  0  0  0
   -1.7850    6.0038    3.8910 C   0  0  0  0  0  0  0  0  0  0  0  0
   -0.9008    4.9685    3.6100 C   0  0  0  0  0  0  0  0  0  0  0  0
    0.5800    5.2490    3.5831 C   0  0  0  0  0  0  0  0  0  0  0  0
    1.0765    6.0163    4.8089 C   0  0  0  0  0  0  0  0  0  0  0  0
   -0.6769    1.8911    1.7469 C   0  0  0  0  0  0  0  0  0  0  0  0
   -1.6538    2.1860    0.3273 S   0  0  0  0  0  0  0  0  0  0  0  0
   -0.8429    0.8788   -0.4643 C   0  0  0  0  0  0  0  0  0  0  0  0
   -0.8644    0.2066   -1.6941 C   0  0  0  0  0  0  0  0  0  0  0  0
   -1.7213    0.3534   -2.8068 C   0  0  0  0  0  0  0  0  0  0  0  0
   -1.5850   -0.5534   -3.9072 C   0  0  0  0  0  0  0  0  0  0  0  0
   -2.4805   -0.3357   -4.8576 N   0  0  0  0  0  0  0  0  0  0  0  0
   -3.4125    0.9086   -4.4064 S   0  0  0  0  0  0  0  0  0  0  0  0
   -2.7105    1.2158   -2.9808 N   0  0  0  0  0  0  0  0  0  0  0  0
   -0.5337   -1.4956   -3.8856 C   0  0  0  0  0  0  0  0  0  0  0  0
   -0.1057   -2.4062   -4.8606 C   0  0  0  0  0  0  0  0  0  0  0  0
   -0.5692   -2.9549   -6.4322 S   0  0  0  0  0  0  0  0  0  0  0  0
    0.8428   -3.9892   -6.4665 C   0  0  0  0  0  0  0  0  0  0  0  0
    1.3240   -4.9126   -7.4063 C   0  0  0  0  0  0  0  0  0  0  0  0
    0.6527   -5.2656   -8.6634 C   0  0  0  0  0  0  0  0  0  0  0  0
    0.3197   -4.3246   -9.6492 C   0  0  0  0  0  0  0  0  0  0  0  0
    0.5609   -2.8514   -9.4580 C   0  0  0  0  0  0  0  0  0  0  0  0
    0.8966   -2.0790  -10.7318 C   0  0  0  0  0  0  0  0  0  0  0  0
   -0.2664   -4.7912  -10.8229 C   0  0  0  0  0  0  0  0  0  0  0  0
   -0.5249   -6.1322  -11.0275 C   0  0  0  0  0  0  0  0  0  0  0  0
   -0.2254   -7.0515  -10.0356 C   0  0  0  0  0  0  0  0  0  0  0  0
    0.3564   -6.6144   -8.8642 C   0  0  0  0  0  0  0  0  0  0  0  0
    2.4544   -5.5806   -6.9249 C   0  0  0  0  0  0  0  0  0  0  0  0
    2.9057   -5.0348   -5.3119 S   0  0  0  0  0  0  0  0  0  0  0  0
    1.5967   -3.9208   -5.2848 C   0  0  0  0  0  0  0  0  0  0  0  0
    1.0597   -3.0059   -4.3741 C   0  0  0  0  0  0  0  0  0  0  0  0
    1.3506   -2.5237   -3.1260 N   0  0  0  0  0  0  0  0  0  0  0  0
    0.3791   -1.5926   -2.7945 C   0  0  0  0  0  0  0  0  0  0  0  0
    0.1447   -0.7990   -1.6392 C   0  0  0  0  0  0  0  0  0  0  0  0
    0.7335   -0.7510   -0.3854 N   0  0  0  0  0  0  0  0  0  0  0  0
    0.1332    0.2562    0.3211 C   0  0  0  0  0  0  0  0  0  0  0  0
    0.2290    0.8336    1.5915 C   0  0  0  0  0  0  0  0  0  0  0  0
    1.1865    0.6247    3.0090 S   0  0  0  0  0  0  0  0  0  0  0  0
    1.5130   -1.7445    0.3195 C   0  0  0  0  0  0  0  0  0  0  0  0
    0.7711   -3.0755    0.4104 C   0  0  0  0  0  0  0  0  0  0  0  0
    2.6728   -2.7304   -2.5772 C   0  0  0  0  0  0  0  0  0  0  0  0
    3.5014   -1.4490   -2.6155 C   0  0  0  0  0  0  0  0  0  0  0  0
    3.2057   -6.6643   -7.4272 C   0  0  0  0  0  0  0  0  0  0  0  0
    3.3521   -7.1738   -8.6860 C   0  0  0  0  0  0  0  0  0  0  0  0
    3.7614   -8.6030   -8.8298 C   0  0  0  0  0  0  0  0  0  0  0  0
    4.1946   -9.3219   -7.9589 O   0  0  0  0  0  0  0  0  0  0  0  0
    3.4606   -8.9320  -10.2319 C   0  0  0  0  0  0  0  0  0  0  0  0
    3.4725  -10.0300  -11.0284 C   0  0  0  0  0  0  0  0  0  0  0  0
    2.9496   -9.6337  -12.6248 S   0  0  0  0  0  0  0  0  0  0  0  0
    2.7263   -7.9701  -12.2204 C   0  0  0  0  0  0  0  0  0  0  0  0
    3.0317   -7.7469  -10.9157 C   0  0  0  0  0  0  0  0  0  0  0  0
    3.0843   -6.6293   -9.9951 C   0  0  0  0  0  0  0  0  0  0  0  0
    3.1235   -5.3077  -10.3597 C   0  0  0  0  0  0  0  0  0  0  0  0
    2.9368   -4.9143  -11.6970 C   0  0  0  0  0  0  0  0  0  0  0  0
    2.7817   -4.5927  -12.7881 N   0  0  0  0  0  0  0  0  0  0  0  0
    3.4563   -4.2903   -9.4516 C   0  0  0  0  0  0  0  0  0  0  0  0
    3.7592   -3.4632   -8.7144 N   0  0  0  0  0  0  0  0  0  0  0  0
    1.8022    1.9714    5.3261 H   0  0  0  0  0  0  0  0  0  0  0  0
   -3.8101    4.0354    7.2596 H   0  0  0  0  0  0  0  0  0  0  0  0
    0.4658    5.0651    9.7722 H   0  0  0  0  0  0  0  0  0  0  0  0
   -2.0547    7.1247   10.8177 H   0  0  0  0  0  0  0  0  0  0  0  0
   -1.6857    5.2386   12.6615 H   0  0  0  0  0  0  0  0  0  0  0  0
   -3.5192    6.9073   13.5321 H   0  0  0  0  0  0  0  0  0  0  0  0
   -5.7844    6.3935   12.2430 H   0  0  0  0  0  0  0  0  0  0  0  0
   -5.3464    4.4076   10.5793 H   0  0  0  0  0  0  0  0  0  0  0  0
   -2.8608    3.4804   11.0035 H   0  0  0  0  0  0  0  0  0  0  0  0
   -3.7579    3.5965   12.5348 H   0  0  0  0  0  0  0  0  0  0  0  0
   -4.2747    6.6210    9.5532 H   0  0  0  0  0  0  0  0  0  0  0  0
   -3.2104    2.5823    2.9309 H   0  0  0  0  0  0  0  0  0  0  0  0
   -4.7420    4.4401    3.4385 H   0  0  0  0  0  0  0  0  0  0  0  0
   -3.8134    6.6418    4.0948 H   0  0  0  0  0  0  0  0  0  0  0  0
   -1.3912    6.9789    4.1347 H   0  0  0  0  0  0  0  0  0  0  0  0
    0.7981    5.8390    2.6869 H   0  0  0  0  0  0  0  0  0  0  0  0
    1.1371    4.3166    3.4963 H   0  0  0  0  0  0  0  0  0  0  0  0
    2.1629    5.9851    4.8529 H   0  0  0  0  0  0  0  0  0  0  0  0
    0.6809    5.5778    5.7221 H   0  0  0  0  0  0  0  0  0  0  0  0
    0.7708    7.0586    4.7758 H   0  0  0  0  0  0  0  0  0  0  0  0
   -0.3446   -2.4177   -9.0214 H   0  0  0  0  0  0  0  0  0  0  0  0
    1.3702   -2.7053   -8.7408 H   0  0  0  0  0  0  0  0  0  0  0  0
    1.7135   -2.5498  -11.2727 H   0  0  0  0  0  0  0  0  0  0  0  0
    0.0393   -2.0048  -11.3955 H   0  0  0  0  0  0  0  0  0  0  0  0
    1.2011   -1.0693  -10.4674 H   0  0  0  0  0  0  0  0  0  0  0  0
   -0.5251   -4.0875  -11.5971 H   0  0  0  0  0  0  0  0  0  0  0  0
   -0.9716   -6.4587  -11.9545 H   0  0  0  0  0  0  0  0  0  0  0  0
   -0.4470   -8.0996  -10.1712 H   0  0  0  0  0  0  0  0  0  0  0  0
    0.5812   -7.3226   -8.0793 H   0  0  0  0  0  0  0  0  0  0  0  0
    1.6745   -1.3536    1.3270 H   0  0  0  0  0  0  0  0  0  0  0  0
    2.4954   -1.8598   -0.1387 H   0  0  0  0  0  0  0  0  0  0  0  0
   -0.1630   -2.9427    0.9512 H   0  0  0  0  0  0  0  0  0  0  0  0
    1.3783   -3.8024    0.9430 H   0  0  0  0  0  0  0  0  0  0  0  0
    0.5376   -3.4664   -0.5772 H   0  0  0  0  0  0  0  0  0  0  0  0
    3.1527   -3.4872   -3.2024 H   0  0  0  0  0  0  0  0  0  0  0  0
    2.6108   -3.1420   -1.5697 H   0  0  0  0  0  0  0  0  0  0  0  0
    4.4806   -1.6279   -2.1800 H   0  0  0  0  0  0  0  0  0  0  0  0
    3.0130   -0.6462   -2.0682 H   0  0  0  0  0  0  0  0  0  0  0  0
    3.6353   -1.1252   -3.6449 H   0  0  0  0  0  0  0  0  0  0  0  0
    3.6995   -7.2573   -6.6600 H   0  0  0  0  0  0  0  0  0  0  0  0
    3.7518  -11.0365  -10.7895 H   0  0  0  0  0  0  0  0  0  0  0  0
    2.3753   -7.2844  -12.9651 H   0  0  0  0  0  0  0  0  0  0  0  0
  1  2  2  0  0  0  0
  2  3  1  0  0  0  0
  3  4  2  0  0  0  0
  3  5  1  0  0  0  0
  5  6  2  0  0  0  0
  6  7  1  0  0  0  0
  7  8  2  0  0  0  0
  8  9  1  0  0  0  0
  9 10  2  0  0  0  0
 10 11  1  0  0  0  0
 11 12  2  0  0  0  0
 12 13  1  0  0  0  0
 13 14  3  0  0  0  0
 12 15  1  0  0  0  0
 15 16  3  0  0  0  0
  8 17  1  0  0  0  0
 17 18  1  0  0  0  0
 18 19  1  0  0  0  0
 19 20  2  0  0  0  0
 20 21  1  0  0  0  0
 21 22  1  0  0  0  0
 21 23  1  0  0  0  0
  1 24  1  0  0  0  0
 24 25  2  0  0  0  0
 25 26  1  0  0  0  0
 26 27  2  0  0  0  0
 27 28  1  0  0  0  0
 28 29  2  0  0  0  0
 29 30  1  0  0  0  0
 30 31  2  0  0  0  0
 31 32  1  0  0  0  0
 32 33  1  0  0  0  0
 25 34  1  0  0  0  0
 34 35  1  0  0  0  0
 35 36  1  0  0  0  0
 36 37  1  0  0  0  0
 37 38  1  0  0  0  0
 38 39  1  0  0  0  0
 39 40  2  0  0  0  0
 40 41  1  0  0  0  0
 41 42  1  0  0  0  0
 39 43  1  0  0  0  0
 43 44  1  0  0  0  0
 44 45  1  0  0  0  0
 45 46  1  0  0  0  0
 46 47  1  0  0  0  0
 47 48  1  0  0  0  0
 48 49  2  0  0  0  0
 49 50  1  0  0  0  0
 50 51  1  0  0  0  0
 49 52  1  0  0  0  0
 52 53  2  0  0  0  0
 53 54  1  0  0  0  0
 54 55  2  0  0  0  0
 47 56  2  0  0  0  0
 56 57  1  0  0  0  0
 57 58  1  0  0  0  0
 58 59  1  0  0  0  0
 59 60  1  0  0  0  0
 60 61  1  0  0  0  0
 61 62  1  0  0  0  0
 62 63  1  0  0  0  0
 63 64  1  0  0  0  0
 64 65  1  0  0  0  0
 65 66  1  0  0  0  0
 63 67  1  0  0  0  0
 67 68  1  0  0  0  0
 60 69  1  0  0  0  0
 69 70  1  0  0  0  0
 56 71  1  0  0  0  0
 71 72  2  0  0  0  0
 72 73  1  0  0  0  0
 73 74  2  0  0  0  0
 73 75  1  0  0  0  0
 75 76  2  0  0  0  0
 76 77  1  0  0  0  0
 77 78  1  0  0  0  0
 78 79  2  0  0  0  0
 79 80  1  0  0  0  0
 80 81  2  0  0  0  0
 81 82  1  0  0  0  0
 82 83  3  0  0  0  0
 81 84  1  0  0  0  0
 84 85  3  0  0  0  0
 11  2  1  0  0  0  0
 23 17  1  0  0  0  0
 66 24  1  0  0  0  0
 80 72  1  0  0  0  0
 10  5  1  0  0  0  0
 22 18  1  0  0  0  0
 31 26  1  0  0  0  0
 65 34  2  0  0  0  0
 79 75  1  0  0  0  0
 23  7  1  0  0  0  0
 64 36  2  0  0  0  0
 62 37  2  0  0  0  0
 42 38  2  0  0  0  0
 61 43  2  0  0  0  0
 59 44  2  0  0  0  0
 58 46  2  0  0  0  0
 55 48  1  0  0  0  0
  1 86  1  0  0  0  0
  6 87  1  0  0  0  0
  9 88  1  0  0  0  0
 17 89  1  0  0  0  0
 18 90  1  0  0  0  0
 19 91  1  0  0  0  0
 20 92  1  0  0  0  0
 21 93  1  0  0  0  0
 22 94  1  0  0  0  0
 22 95  1  0  0  0  0
 23 96  1  0  0  0  0
 27 97  1  0  0  0  0
 28 98  1  0  0  0  0
 29 99  1  0  0  0  0
 30100  1  0  0  0  0
 32101  1  0  0  0  0
 32102  1  0  0  0  0
 33103  1  0  0  0  0
 33104  1  0  0  0  0
 33105  1  0  0  0  0
 50106  1  0  0  0  0
 50107  1  0  0  0  0
 51108  1  0  0  0  0
 51109  1  0  0  0  0
 51110  1  0  0  0  0
 52111  1  0  0  0  0
 53112  1  0  0  0  0
 54113  1  0  0  0  0
 55114  1  0  0  0  0
 67115  1  0  0  0  0
 67116  1  0  0  0  0
 68117  1  0  0  0  0
 68118  1  0  0  0  0
 68119  1  0  0  0  0
 69120  1  0  0  0  0
 69121  1  0  0  0  0
 70122  1  0  0  0  0
 70123  1  0  0  0  0
 70124  1  0  0  0  0
 71125  1  0  0  0  0
 76126  1  0  0  0  0
 78127  1  0  0  0  0
M  END
