
  xtb     02022209343D
 energy: -181.525700294979 gnorm: 0.000945529832 xtb: 6.4.1 (unknown)
 95109  0     0  0            999 V2000
   -5.0564    0.8589   -3.4891 C   0  0  0  0  0  0  0  0  0  0  0  0
   -5.2709   -0.4277   -3.9202 C   0  0  0  0  0  0  0  0  0  0  0  0
   -4.5644   -1.6077   -3.4393 C   0  0  0  0  0  0  0  0  0  0  0  0
   -3.6438   -1.6390   -2.6280 O   0  0  0  0  0  0  0  0  0  0  0  0
   -5.1661   -2.7681   -4.1064 C   0  0  0  0  0  0  0  0  0  0  0  0
   -4.8275   -4.1085   -3.9362 C   0  0  0  0  0  0  0  0  0  0  0  0
   -5.5752   -4.9737   -4.6981 C   0  0  0  0  0  0  0  0  0  0  0  0
   -6.5891   -4.5381   -5.5615 C   0  0  0  0  0  0  0  0  0  0  0  0
   -6.9340   -3.2180   -5.7368 C   0  0  0  0  0  0  0  0  0  0  0  0
   -6.1820   -2.3193   -4.9764 C   0  0  0  0  0  0  0  0  0  0  0  0
   -6.2519   -0.8595   -4.8979 C   0  0  0  0  0  0  0  0  0  0  0  0
   -7.0820   -0.0652   -5.6451 C   0  0  0  0  0  0  0  0  0  0  0  0
   -7.1375    1.3439   -5.5978 C   0  0  0  0  0  0  0  0  0  0  0  0
   -7.2469    2.4872   -5.6321 N   0  0  0  0  0  0  0  0  0  0  0  0
   -8.0052   -0.5457   -6.5980 C   0  0  0  0  0  0  0  0  0  0  0  0
   -8.7772   -0.8560   -7.3892 N   0  0  0  0  0  0  0  0  0  0  0  0
   -6.9168   -5.9394   -6.0121 C   0  0  0  0  0  0  0  0  0  0  0  0
   -6.4032   -6.3873   -7.4028 C   0  0  0  0  0  0  0  0  0  0  0  0
   -5.1731   -5.5629   -7.6909 C   0  0  0  0  0  0  0  0  0  0  0  0
   -4.2107   -5.9733   -6.8759 C   0  0  0  0  0  0  0  0  0  0  0  0
   -4.7726   -7.0829   -6.0218 C   0  0  0  0  0  0  0  0  0  0  0  0
   -5.7494   -7.7246   -7.0199 C   0  0  0  0  0  0  0  0  0  0  0  0
   -5.7850   -6.4242   -5.0521 C   0  0  0  0  0  0  0  0  0  0  0  0
   -4.1369    1.3674   -2.5617 C   0  0  0  0  0  0  0  0  0  0  0  0
   -4.1058    2.7302   -2.2544 C   0  0  0  0  0  0  0  0  0  0  0  0
   -3.1380    3.1054   -1.3422 C   0  0  0  0  0  0  0  0  0  0  0  0
   -2.7321    4.6845   -0.6917 S   0  0  0  0  0  0  0  0  0  0  0  0
   -1.4583    3.9495    0.2171 C   0  0  0  0  0  0  0  0  0  0  0  0
   -0.3995    4.3188    1.0557 C   0  0  0  0  0  0  0  0  0  0  0  0
    0.0728    5.5923    1.4454 C   0  0  0  0  0  0  0  0  0  0  0  0
    1.3105    5.6816    2.1635 C   0  0  0  0  0  0  0  0  0  0  0  0
    1.6685    6.9335    2.4003 N   0  0  0  0  0  0  0  0  0  0  0  0
    0.5416    7.9159    1.7798 S   0  0  0  0  0  0  0  0  0  0  0  0
   -0.4452    6.7811    1.1810 N   0  0  0  0  0  0  0  0  0  0  0  0
    1.9573    4.4903    2.5621 C   0  0  0  0  0  0  0  0  0  0  0  0
    3.1150    4.2811    3.3233 C   0  0  0  0  0  0  0  0  0  0  0  0
    3.2331    2.8995    3.5129 C   0  0  0  0  0  0  0  0  0  0  0  0
    2.2067    2.2459    2.8800 N   0  0  0  0  0  0  0  0  0  0  0  0
    1.8961    0.9091    3.3352 C   0  0  0  0  0  0  0  0  0  0  0  0
    1.2611    0.9363    4.7246 C   0  0  0  0  0  0  0  0  0  0  0  0
    1.4149    3.2027    2.2683 C   0  0  0  0  0  0  0  0  0  0  0  0
    0.2935    3.1195    1.4036 C   0  0  0  0  0  0  0  0  0  0  0  0
   -0.3149    2.0665    0.7500 N   0  0  0  0  0  0  0  0  0  0  0  0
   -1.3733    2.5631    0.0377 C   0  0  0  0  0  0  0  0  0  0  0  0
   -2.3218    2.0621   -0.8568 C   0  0  0  0  0  0  0  0  0  0  0  0
   -2.8077    0.4179   -1.5953 Se  0  0  0  0  0  2  0  0  0  0  0  0
    0.1262    0.7146    0.5011 C   0  0  0  0  0  0  0  0  0  0  0  0
   -0.7080   -0.3103    1.2708 C   0  0  0  0  0  0  0  0  0  0  0  0
    4.3392    2.5392    4.2838 C   0  0  0  0  0  0  0  0  0  0  0  0
    5.0703    3.6855    4.6619 C   0  0  0  0  0  0  0  0  0  0  0  0
    4.3770    5.1894    4.0787 S   0  0  0  0  0  0  0  0  0  0  0  0
    6.2004    3.4452    5.4190 C   0  0  0  0  0  0  0  0  0  0  0  0
    6.4539    2.0986    5.6970 C   0  0  0  0  0  0  0  0  0  0  0  0
    5.1216    0.9774    4.9353 Se  0  0  0  0  0  2  0  0  0  0  0  0
    7.5805    1.7156    6.4355 C   0  0  0  0  0  0  0  0  0  0  0  0
    8.0309    0.4705    6.8005 C   0  0  0  0  0  0  0  0  0  0  0  0
    7.3829   -0.8039    6.4856 C   0  0  0  0  0  0  0  0  0  0  0  0
    6.3366   -0.9698    5.8731 O   0  0  0  0  0  0  0  0  0  0  0  0
    8.2430   -1.8462    7.0602 C   0  0  0  0  0  0  0  0  0  0  0  0
    8.2681   -3.2461    7.1481 C   0  0  0  0  0  0  0  0  0  0  0  0
    9.3725   -3.6645    7.8393 C   0  0  0  0  0  0  0  0  0  0  0  0
    9.7995   -5.2773    8.1807 Cl  0  0  0  0  0  0  0  0  0  0  0  0
   10.3956   -2.3605    8.3929 S   0  0  0  0  0  0  0  0  0  0  0  0
    9.3199   -1.2311    7.6810 C   0  0  0  0  0  0  0  0  0  0  0  0
    9.2441    0.2011    7.5574 C   0  0  0  0  0  0  0  0  0  0  0  0
   10.1672    1.0758    8.0734 C   0  0  0  0  0  0  0  0  0  0  0  0
   11.2876    0.5961    8.7841 C   0  0  0  0  0  0  0  0  0  0  0  0
   12.2008    0.2114    9.3626 N   0  0  0  0  0  0  0  0  0  0  0  0
   10.1240    2.4786    7.9715 C   0  0  0  0  0  0  0  0  0  0  0  0
   10.1457    3.6260    7.9228 N   0  0  0  0  0  0  0  0  0  0  0  0
   -5.6939    1.6257   -3.9149 H   0  0  0  0  0  0  0  0  0  0  0  0
   -4.0422   -4.4002   -3.2566 H   0  0  0  0  0  0  0  0  0  0  0  0
   -7.7194   -2.9025   -6.4028 H   0  0  0  0  0  0  0  0  0  0  0  0
   -7.9321   -6.2778   -5.8155 H   0  0  0  0  0  0  0  0  0  0  0  0
   -7.1624   -6.4045   -8.1799 H   0  0  0  0  0  0  0  0  0  0  0  0
   -5.1472   -4.7530   -8.3961 H   0  0  0  0  0  0  0  0  0  0  0  0
   -3.2195   -5.5744   -6.7636 H   0  0  0  0  0  0  0  0  0  0  0  0
   -4.0466   -7.7344   -5.5423 H   0  0  0  0  0  0  0  0  0  0  0  0
   -6.4402   -8.4293   -6.5591 H   0  0  0  0  0  0  0  0  0  0  0  0
   -5.2428   -8.2007   -7.8580 H   0  0  0  0  0  0  0  0  0  0  0  0
   -6.0603   -7.0820   -4.2299 H   0  0  0  0  0  0  0  0  0  0  0  0
   -4.7894    3.4276   -2.7088 H   0  0  0  0  0  0  0  0  0  0  0  0
    2.8416    0.3520    3.3756 H   0  0  0  0  0  0  0  0  0  0  0  0
    1.2273    0.4103    2.6463 H   0  0  0  0  0  0  0  0  0  0  0  0
    0.3417    1.5183    4.7107 H   0  0  0  0  0  0  0  0  0  0  0  0
    1.9420    1.3783    5.4490 H   0  0  0  0  0  0  0  0  0  0  0  0
    1.0330   -0.0771    5.0420 H   0  0  0  0  0  0  0  0  0  0  0  0
    1.1922    0.6380    0.7207 H   0  0  0  0  0  0  0  0  0  0  0  0
   -0.0018    0.5218   -0.5729 H   0  0  0  0  0  0  0  0  0  0  0  0
   -0.2543   -1.2941    1.1902 H   0  0  0  0  0  0  0  0  0  0  0  0
   -0.8022   -0.0446    2.3214 H   0  0  0  0  0  0  0  0  0  0  0  0
   -1.7109   -0.3630    0.8472 H   0  0  0  0  0  0  0  0  0  0  0  0
    6.8508    4.2272    5.7732 H   0  0  0  0  0  0  0  0  0  0  0  0
    8.1878    2.5563    6.7534 H   0  0  0  0  0  0  0  0  0  0  0  0
    7.5290   -3.9050    6.7332 H   0  0  0  0  0  0  0  0  0  0  0  0
  1  2  2  0  0  0  0
  2  3  1  0  0  0  0
  3  4  2  0  0  0  0
  3  5  1  0  0  0  0
  5  6  2  0  0  0  0
  6  7  1  0  0  0  0
  7  8  2  0  0  0  0
  8  9  1  0  0  0  0
  9 10  2  0  0  0  0
 10 11  1  0  0  0  0
 11 12  2  0  0  0  0
 12 13  1  0  0  0  0
 13 14  3  0  0  0  0
 12 15  1  0  0  0  0
 15 16  3  0  0  0  0
  8 17  1  0  0  0  0
 17 18  1  0  0  0  0
 18 19  1  0  0  0  0
 19 20  2  0  0  0  0
 20 21  1  0  0  0  0
 21 22  1  0  0  0  0
 21 23  1  0  0  0  0
  1 24  1  0  0  0  0
 24 25  2  0  0  0  0
 25 26  1  0  0  0  0
 26 27  1  0  0  0  0
 27 28  1  0  0  0  0
 28 29  1  0  0  0  0
 29 30  1  0  0  0  0
 30 31  1  0  0  0  0
 31 32  2  0  0  0  0
 32 33  1  0  0  0  0
 33 34  1  0  0  0  0
 31 35  1  0  0  0  0
 35 36  1  0  0  0  0
 36 37  2  0  0  0  0
 37 38  1  0  0  0  0
 38 39  1  0  0  0  0
 39 40  1  0  0  0  0
 38 41  1  0  0  0  0
 41 42  1  0  0  0  0
 42 43  1  0  0  0  0
 43 44  1  0  0  0  0
 44 45  1  0  0  0  0
 45 46  1  0  0  0  0
 43 47  1  0  0  0  0
 47 48  1  0  0  0  0
 37 49  1  0  0  0  0
 49 50  2  0  0  0  0
 50 51  1  0  0  0  0
 50 52  1  0  0  0  0
 52 53  2  0  0  0  0
 53 54  1  0  0  0  0
 53 55  1  0  0  0  0
 55 56  2  0  0  0  0
 56 57  1  0  0  0  0
 57 58  2  0  0  0  0
 57 59  1  0  0  0  0
 59 60  1  0  0  0  0
 60 61  2  0  0  0  0
 61 62  1  0  0  0  0
 61 63  1  0  0  0  0
 63 64  1  0  0  0  0
 64 65  1  0  0  0  0
 65 66  2  0  0  0  0
 66 67  1  0  0  0  0
 67 68  3  0  0  0  0
 66 69  1  0  0  0  0
 69 70  3  0  0  0  0
 11  2  1  0  0  0  0
 23 17  1  0  0  0  0
 46 24  1  0  0  0  0
 54 49  1  0  0  0  0
 65 56  1  0  0  0  0
 10  5  1  0  0  0  0
 22 18  1  0  0  0  0
 45 26  2  0  0  0  0
 64 59  2  0  0  0  0
 23  7  1  0  0  0  0
 44 28  2  0  0  0  0
 42 29  2  0  0  0  0
 34 30  2  0  0  0  0
 41 35  2  0  0  0  0
 51 36  1  0  0  0  0
  1 71  1  0  0  0  0
  6 72  1  0  0  0  0
  9 73  1  0  0  0  0
 17 74  1  0  0  0  0
 18 75  1  0  0  0  0
 19 76  1  0  0  0  0
 20 77  1  0  0  0  0
 21 78  1  0  0  0  0
 22 79  1  0  0  0  0
 22 80  1  0  0  0  0
 23 81  1  0  0  0  0
 25 82  1  0  0  0  0
 39 83  1  0  0  0  0
 39 84  1  0  0  0  0
 40 85  1  0  0  0  0
 40 86  1  0  0  0  0
 40 87  1  0  0  0  0
 47 88  1  0  0  0  0
 47 89  1  0  0  0  0
 48 90  1  0  0  0  0
 48 91  1  0  0  0  0
 48 92  1  0  0  0  0
 52 93  1  0  0  0  0
 55 94  1  0  0  0  0
 60 95  1  0  0  0  0
M  END
