
  xtb     02022213113D
 energy: -192.646640963825 gnorm: 0.000332420792 xtb: 6.4.1 (unknown)
108121  0     0  0            999 V2000
   -3.4358    1.9566   -4.0999 C   0  0  0  0  0  0  0  0  0  0  0  0
   -3.1126    3.1206   -4.7499 C   0  0  0  0  0  0  0  0  0  0  0  0
   -1.9373    3.9979   -4.5697 C   0  0  0  0  0  0  0  0  0  0  0  0
   -1.0906    3.9776   -3.6970 O   0  0  0  0  0  0  0  0  0  0  0  0
   -1.9612    4.9435   -5.7026 C   0  0  0  0  0  0  0  0  0  0  0  0
   -1.0053    5.9148   -5.9922 C   0  0  0  0  0  0  0  0  0  0  0  0
   -1.2684    6.6355   -7.1319 C   0  0  0  0  0  0  0  0  0  0  0  0
   -2.4014    6.4091   -7.9245 C   0  0  0  0  0  0  0  0  0  0  0  0
   -3.3568    5.4615   -7.6440 C   0  0  0  0  0  0  0  0  0  0  0  0
   -3.1063    4.7147   -6.4881 C   0  0  0  0  0  0  0  0  0  0  0  0
   -3.8695    3.6268   -5.8819 C   0  0  0  0  0  0  0  0  0  0  0  0
   -5.1098    3.2107   -6.2997 C   0  0  0  0  0  0  0  0  0  0  0  0
   -5.8086    3.7581   -7.3957 C   0  0  0  0  0  0  0  0  0  0  0  0
   -6.4396    4.1467   -8.2731 N   0  0  0  0  0  0  0  0  0  0  0  0
   -5.8946    2.2056   -5.6981 C   0  0  0  0  0  0  0  0  0  0  0  0
   -6.6019    1.4057   -5.2709 N   0  0  0  0  0  0  0  0  0  0  0  0
   -2.0159    7.4742   -8.9210 C   0  0  0  0  0  0  0  0  0  0  0  0
   -1.4072    6.9839  -10.2519 C   0  0  0  0  0  0  0  0  0  0  0  0
   -0.7010    8.2037  -10.7982 C   0  0  0  0  0  0  0  0  0  0  0  0
    0.3711    8.4197  -10.0468 C   0  0  0  0  0  0  0  0  0  0  0  0
    0.4075    7.3492   -8.9800 C   0  0  0  0  0  0  0  0  0  0  0  0
   -0.1977    6.1766   -9.7625 C   0  0  0  0  0  0  0  0  0  0  0  0
   -0.7535    7.7279   -8.0359 C   0  0  0  0  0  0  0  0  0  0  0  0
   -2.8495    1.2938   -3.0094 C   0  0  0  0  0  0  0  0  0  0  0  0
   -1.8364    1.7057   -2.1207 C   0  0  0  0  0  0  0  0  0  0  0  0
   -1.6513    0.6529   -1.2437 C   0  0  0  0  0  0  0  0  0  0  0  0
   -2.5411   -0.3823   -1.6029 C   0  0  0  0  0  0  0  0  0  0  0  0
   -3.2817    0.0153   -2.6551 N   0  0  0  0  0  0  0  0  0  0  0  0
   -4.2610   -0.8036   -3.3297 C   0  0  0  0  0  0  0  0  0  0  0  0
   -3.6888   -1.4392   -4.5951 C   0  0  0  0  0  0  0  0  0  0  0  0
   -2.2791   -1.4635   -0.7436 C   0  0  0  0  0  0  0  0  0  0  0  0
   -2.7676   -2.7885   -0.7289 C   0  0  0  0  0  0  0  0  0  0  0  0
   -2.1776   -3.7388    0.1679 C   0  0  0  0  0  0  0  0  0  0  0  0
   -2.6843   -4.9532    0.0299 N   0  0  0  0  0  0  0  0  0  0  0  0
   -3.8173   -4.9121   -1.1232 S   0  0  0  0  0  0  0  0  0  0  0  0
   -3.7017   -3.3362   -1.4937 N   0  0  0  0  0  0  0  0  0  0  0  0
   -1.2090   -3.2923    1.0923 C   0  0  0  0  0  0  0  0  0  0  0  0
   -0.5464   -3.9667    2.1232 C   0  0  0  0  0  0  0  0  0  0  0  0
   -0.4128   -5.5662    2.7656 S   0  0  0  0  0  0  0  0  0  0  0  0
    0.6846   -4.9473    3.9866 C   0  0  0  0  0  0  0  0  0  0  0  0
    1.3760   -5.5655    5.0159 C   0  0  0  0  0  0  0  0  0  0  0  0
    1.2481   -7.0225    5.3173 C   0  0  0  0  0  0  0  0  0  0  0  0
    0.2102   -7.2634    6.4172 C   0  0  0  0  0  0  0  0  0  0  0  0
    2.1513   -4.6399    5.7429 C   0  0  0  0  0  0  0  0  0  0  0  0
    1.9965   -2.9993    5.1051 S   0  0  0  0  0  0  0  0  0  0  0  0
    0.9143   -3.5613    3.8882 C   0  0  0  0  0  0  0  0  0  0  0  0
    0.2110   -3.0116    2.8150 C   0  0  0  0  0  0  0  0  0  0  0  0
    0.0588   -1.7816    2.2322 N   0  0  0  0  0  0  0  0  0  0  0  0
   -0.7957   -1.9266    1.1529 C   0  0  0  0  0  0  0  0  0  0  0  0
   -1.2493   -1.0305    0.1507 C   0  0  0  0  0  0  0  0  0  0  0  0
   -0.8844    0.2672   -0.1731 N   0  0  0  0  0  0  0  0  0  0  0  0
    0.3164    1.0115    0.1337 C   0  0  0  0  0  0  0  0  0  0  0  0
    1.5775    0.2473   -0.2622 C   0  0  0  0  0  0  0  0  0  0  0  0
    0.4314   -0.5957    2.9737 C   0  0  0  0  0  0  0  0  0  0  0  0
   -0.7970    0.1936    3.4175 C   0  0  0  0  0  0  0  0  0  0  0  0
    2.9471   -5.0057    6.8270 C   0  0  0  0  0  0  0  0  0  0  0  0
    3.7593   -4.2556    7.6498 C   0  0  0  0  0  0  0  0  0  0  0  0
    3.9743   -2.8128    7.5678 C   0  0  0  0  0  0  0  0  0  0  0  0
    3.4871   -2.0226    6.7775 O   0  0  0  0  0  0  0  0  0  0  0  0
    4.9217   -2.4802    8.6524 C   0  0  0  0  0  0  0  0  0  0  0  0
    5.4426   -1.2501    8.9932 C   0  0  0  0  0  0  0  0  0  0  0  0
    6.3288   -1.1813   10.0627 C   0  0  0  0  0  0  0  0  0  0  0  0
    7.0003    0.3339   10.5178 Cl  0  0  0  0  0  0  0  0  0  0  0  0
    6.6668   -2.3435   10.7592 C   0  0  0  0  0  0  0  0  0  0  0  0
    7.8721   -2.2501   12.2142 Br  0  0  0  0  0  0  0  0  0  0  0  0
    6.1407   -3.5832   10.4136 C   0  0  0  0  0  0  0  0  0  0  0  0
    5.2589   -3.6534    9.3486 C   0  0  0  0  0  0  0  0  0  0  0  0
    4.5475   -4.7808    8.7443 C   0  0  0  0  0  0  0  0  0  0  0  0
    4.6409   -6.0841    9.1646 C   0  0  0  0  0  0  0  0  0  0  0  0
    3.9680   -7.1859    8.5976 C   0  0  0  0  0  0  0  0  0  0  0  0
    3.4584   -8.1347    8.1965 N   0  0  0  0  0  0  0  0  0  0  0  0
    5.4427   -6.5089   10.2449 C   0  0  0  0  0  0  0  0  0  0  0  0
    6.0721   -6.9198   11.1125 N   0  0  0  0  0  0  0  0  0  0  0  0
   -4.2785    1.4267   -4.5207 H   0  0  0  0  0  0  0  0  0  0  0  0
   -0.1474    6.0547   -5.3532 H   0  0  0  0  0  0  0  0  0  0  0  0
   -4.2219    5.3011   -8.2650 H   0  0  0  0  0  0  0  0  0  0  0  0
   -2.7316    8.2833   -9.0528 H   0  0  0  0  0  0  0  0  0  0  0  0
   -2.1075    6.4851  -10.9162 H   0  0  0  0  0  0  0  0  0  0  0  0
   -1.0720    8.7969  -11.6132 H   0  0  0  0  0  0  0  0  0  0  0  0
    1.0745    9.2293  -10.1086 H   0  0  0  0  0  0  0  0  0  0  0  0
    1.3612    7.1830   -8.4860 H   0  0  0  0  0  0  0  0  0  0  0  0
    0.4420    5.8555  -10.5830 H   0  0  0  0  0  0  0  0  0  0  0  0
   -0.4570    5.3180   -9.1458 H   0  0  0  0  0  0  0  0  0  0  0  0
   -0.6274    8.7068   -7.5770 H   0  0  0  0  0  0  0  0  0  0  0  0
   -1.3408    2.6527   -2.1628 H   0  0  0  0  0  0  0  0  0  0  0  0
   -4.5459   -1.5966   -2.6345 H   0  0  0  0  0  0  0  0  0  0  0  0
   -5.1463   -0.2074   -3.5676 H   0  0  0  0  0  0  0  0  0  0  0  0
   -4.4574   -2.0317   -5.0821 H   0  0  0  0  0  0  0  0  0  0  0  0
   -2.8564   -2.0905   -4.3398 H   0  0  0  0  0  0  0  0  0  0  0  0
   -3.3378   -0.6821   -5.2929 H   0  0  0  0  0  0  0  0  0  0  0  0
    2.2055   -7.4456    5.6247 H   0  0  0  0  0  0  0  0  0  0  0  0
    0.9258   -7.5314    4.4067 H   0  0  0  0  0  0  0  0  0  0  0  0
    0.1252   -8.3281    6.6140 H   0  0  0  0  0  0  0  0  0  0  0  0
    0.5020   -6.7655    7.3388 H   0  0  0  0  0  0  0  0  0  0  0  0
   -0.7617   -6.8850    6.1095 H   0  0  0  0  0  0  0  0  0  0  0  0
    0.3354    1.3016    1.1852 H   0  0  0  0  0  0  0  0  0  0  0  0
    0.2562    1.9306   -0.4532 H   0  0  0  0  0  0  0  0  0  0  0  0
    2.4587    0.8316   -0.0113 H   0  0  0  0  0  0  0  0  0  0  0  0
    1.6366   -0.7128    0.2450 H   0  0  0  0  0  0  0  0  0  0  0  0
    1.5772    0.0654   -1.3344 H   0  0  0  0  0  0  0  0  0  0  0  0
    0.9769   -0.9406    3.8554 H   0  0  0  0  0  0  0  0  0  0  0  0
    1.1181    0.0221    2.3950 H   0  0  0  0  0  0  0  0  0  0  0  0
   -1.4224   -0.4224    4.0595 H   0  0  0  0  0  0  0  0  0  0  0  0
   -1.3936    0.5113    2.5656 H   0  0  0  0  0  0  0  0  0  0  0  0
   -0.4876    1.0717    3.9776 H   0  0  0  0  0  0  0  0  0  0  0  0
    2.9106   -6.0641    7.0451 H   0  0  0  0  0  0  0  0  0  0  0  0
    5.1687   -0.3643    8.4425 H   0  0  0  0  0  0  0  0  0  0  0  0
    6.4304   -4.4537   10.9793 H   0  0  0  0  0  0  0  0  0  0  0  0
  1  2  2  0  0  0  0
  2  3  1  0  0  0  0
  3  4  2  0  0  0  0
  3  5  1  0  0  0  0
  5  6  2  0  0  0  0
  6  7  1  0  0  0  0
  7  8  2  0  0  0  0
  8  9  1  0  0  0  0
  9 10  2  0  0  0  0
 10 11  1  0  0  0  0
 11 12  2  0  0  0  0
 12 13  1  0  0  0  0
 13 14  3  0  0  0  0
 12 15  1  0  0  0  0
 15 16  3  0  0  0  0
  8 17  1  0  0  0  0
 17 18  1  0  0  0  0
 18 19  1  0  0  0  0
 19 20  2  0  0  0  0
 20 21  1  0  0  0  0
 21 22  1  0  0  0  0
 21 23  1  0  0  0  0
  1 24  1  0  0  0  0
 24 25  2  0  0  0  0
 25 26  1  0  0  0  0
 26 27  2  0  0  0  0
 27 28  1  0  0  0  0
 28 29  1  0  0  0  0
 29 30  1  0  0  0  0
 27 31  1  0  0  0  0
 31 32  1  0  0  0  0
 32 33  1  0  0  0  0
 33 34  2  0  0  0  0
 34 35  1  0  0  0  0
 35 36  1  0  0  0  0
 33 37  1  0  0  0  0
 37 38  1  0  0  0  0
 38 39  1  0  0  0  0
 39 40  1  0  0  0  0
 40 41  1  0  0  0  0
 41 42  1  0  0  0  0
 42 43  1  0  0  0  0
 41 44  2  0  0  0  0
 44 45  1  0  0  0  0
 45 46  1  0  0  0  0
 46 47  1  0  0  0  0
 47 48  1  0  0  0  0
 48 49  1  0  0  0  0
 49 50  1  0  0  0  0
 50 51  1  0  0  0  0
 51 52  1  0  0  0  0
 52 53  1  0  0  0  0
 48 54  1  0  0  0  0
 54 55  1  0  0  0  0
 44 56  1  0  0  0  0
 56 57  2  0  0  0  0
 57 58  1  0  0  0  0
 58 59  2  0  0  0  0
 58 60  1  0  0  0  0
 60 61  2  0  0  0  0
 61 62  1  0  0  0  0
 62 63  1  0  0  0  0
 62 64  2  0  0  0  0
 64 65  1  0  0  0  0
 64 66  1  0  0  0  0
 66 67  2  0  0  0  0
 67 68  1  0  0  0  0
 68 69  2  0  0  0  0
 69 70  1  0  0  0  0
 70 71  3  0  0  0  0
 69 72  1  0  0  0  0
 72 73  3  0  0  0  0
 11  2  1  0  0  0  0
 23 17  1  0  0  0  0
 28 24  1  0  0  0  0
 50 31  2  0  0  0  0
 68 57  1  0  0  0  0
 10  5  1  0  0  0  0
 22 18  1  0  0  0  0
 51 26  1  0  0  0  0
 67 60  1  0  0  0  0
 23  7  1  0  0  0  0
 36 32  2  0  0  0  0
 49 37  2  0  0  0  0
 47 38  2  0  0  0  0
 46 40  2  0  0  0  0
  1 74  1  0  0  0  0
  6 75  1  0  0  0  0
  9 76  1  0  0  0  0
 17 77  1  0  0  0  0
 18 78  1  0  0  0  0
 19 79  1  0  0  0  0
 20 80  1  0  0  0  0
 21 81  1  0  0  0  0
 22 82  1  0  0  0  0
 22 83  1  0  0  0  0
 23 84  1  0  0  0  0
 25 85  1  0  0  0  0
 29 86  1  0  0  0  0
 29 87  1  0  0  0  0
 30 88  1  0  0  0  0
 30 89  1  0  0  0  0
 30 90  1  0  0  0  0
 42 91  1  0  0  0  0
 42 92  1  0  0  0  0
 43 93  1  0  0  0  0
 43 94  1  0  0  0  0
 43 95  1  0  0  0  0
 52 96  1  0  0  0  0
 52 97  1  0  0  0  0
 53 98  1  0  0  0  0
 53 99  1  0  0  0  0
 53100  1  0  0  0  0
 54101  1  0  0  0  0
 54102  1  0  0  0  0
 55103  1  0  0  0  0
 55104  1  0  0  0  0
 55105  1  0  0  0  0
 56106  1  0  0  0  0
 61107  1  0  0  0  0
 66108  1  0  0  0  0
M  END
