145

C         -4.26800       -2.68570        6.27800
C         -3.79040       -3.64560        7.13480
C         -2.44730       -4.23130        7.12330
O         -1.49540       -3.89850        6.43580
C         -2.46400       -5.32880        8.10430
C         -1.42440       -6.20780        8.39690
C         -1.74080       -7.15190        9.34400
C         -3.00120       -7.21920        9.95200
C         -4.03510       -6.35690        9.67260
C         -3.73280       -5.38460        8.71550
C         -4.56390       -4.31650        8.16090
C         -5.83210       -4.00290        8.58030
C         -6.52690       -4.68280        9.60210
N         -7.15630       -5.18290       10.42220
C         -6.62570       -2.94780        8.08480
N         -7.33410       -2.10840        7.74570
C         -2.61890       -8.40910       10.79600
C         -2.29600       -8.16120       12.29000
C         -1.81360       -6.73550       12.39320
C         -0.61960       -6.66960       11.81950
C         -0.27290       -8.04960       11.31780
C         -0.95680       -8.90860       12.39340
C         -1.21350       -8.33260       10.12020
C         -3.63790       -1.98730        5.24140
C         -4.31170       -1.07870        4.40770
C         -5.74810       -0.68390        4.51920
C         -5.92820        0.42560        5.55890
C         -3.45720       -0.53040        3.45970
S         -3.72070        0.59960        2.14270
C         -2.05260        0.44310        1.72040
C         -1.16330        0.89140        0.73230
C         -1.41510        1.66240       -0.42900
N         -2.59480        2.23640       -0.64820
C         -2.79400        2.86710       -1.79420
C         -4.02600        3.61220       -1.87760
S         -5.36390        3.08100       -0.90660
C         -6.34030        4.41150       -1.41910
C         -7.73590        4.60610       -0.93620
C         -7.77340        4.88040        0.56770
C         -5.62300        5.20980       -2.26460
C         -4.31420        4.77700       -2.53580
F         -6.13350        6.33000       -2.81060
C         -1.81290        2.80740       -2.82940
C         -2.03650        3.16730       -4.21160
C         -1.05820        3.49370       -5.11180
C         -1.57850        3.68030       -6.40390
F         -0.80490        4.02970       -7.44840
C         -2.92460        3.48610       -6.52520
C         -3.76550        3.57220       -7.75120
C         -4.28900        2.19630       -8.16640
S         -3.59010        3.06120       -4.98570
N         -0.60290        2.33770       -2.56850
C         -0.36400        1.81510       -1.36870
C          0.92830        1.36970       -0.99780
C          2.15850        1.54770       -1.64820
S          2.77540        2.24400       -3.10280
C          4.39740        1.86210       -2.57460
C          5.65860        2.08040       -3.15620
C          5.83300        2.85910       -4.42070
C          5.14820        2.18830       -5.61060
C          6.66910        1.62520       -2.32930
S          6.05580        0.95830       -0.81680
C          4.43160        1.23930       -1.32210
C          3.14820        1.04040       -0.80170
N          2.57370        0.52950        0.33240
C          3.39550        0.22240        1.48000
C          4.06510       -1.14540        1.35940
C          1.20640        0.69700        0.22570
C          0.10980        0.33030        1.04260
N         -0.01940       -0.46860        2.16480
C         -1.33190       -0.41120        2.56140
C         -2.13120       -0.98640        3.55310
S         -1.93050       -2.13670        4.81980
C          0.77690       -1.60030        2.58760
C          0.62900       -2.76420        1.60990
C          8.08560        1.72480       -2.44470
C          8.82400        1.49260       -3.55640
S         10.53100        1.89490       -3.65090
C         10.63460        1.26090       -5.28180
C         11.81870        1.35290       -5.96960
C         12.07380        0.91740       -7.28110
N         12.35350        0.59660       -8.34840
C         12.93140        1.95460       -5.34390
N         13.84120        2.44260       -4.84440
N          9.45770        0.70950       -5.67020
C          9.18160        0.08670       -6.95620
C          8.37910        1.02080       -7.82790
C          8.90310        2.25160       -8.20380
C          8.15530        3.12200       -8.97610
C          6.87820        2.77020       -9.37960
C          6.35200        1.54490       -9.00880
C          7.09810        0.67510       -8.23260
C          8.40770        0.77720       -4.75940
O          7.34990        0.22190       -4.94720
H         -5.31190       -2.42700        6.39270
H         -0.47110       -6.12430        7.89860
H         -5.00000       -6.42820       10.14560
H         -3.20950       -9.31030       10.64320
H         -3.08650       -8.45120       12.97660
H         -2.39710       -5.93500       12.80860
H         -0.00580       -5.80240       11.65960
H          0.77910       -8.23870       11.12020
H         -0.49180       -8.80620       13.37270
H         -1.02640       -9.96260       12.12760
H         -0.88560       -9.18490        9.52790
H         -6.07500       -0.31590        3.54450
H         -6.37120       -1.53750        4.78960
H         -5.33020        1.29390        5.29220
H         -6.97260        0.72000        5.60530
H         -5.62630        0.08200        6.54510
H         -8.32350        3.71030       -1.15210
H         -8.17530        5.44550       -1.47910
H         -7.20880        5.77950        0.80310
H         -8.79970        5.01880        0.89740
H         -7.33900        4.04540        1.11220
H         -3.62890        5.31970       -3.15990
H         -0.02200        3.59600       -4.85120
H         -4.61220        4.23830       -7.56720
H         -3.15960        3.99700       -8.55430
H         -3.46100        1.52080       -8.36830
H         -4.89460        2.28200       -9.06460
H         -4.89880        1.77060       -7.37260
H          5.38920        3.84800       -4.26670
H          6.89460        2.99330       -4.63150
H          4.07520        2.13010       -5.45060
H          5.53900        1.18460       -5.74570
H          5.33730        2.76080       -6.51520
H          2.78770        0.30720        2.38180
H          4.17750        0.98810        1.53860
H          4.76690       -1.14120        0.52970
H          4.61390       -1.36810        2.27030
H          3.33650       -1.93180        1.18400
H          0.40440       -1.89830        3.57080
H          1.82230       -1.32690        2.69360
H         -0.41240       -3.07080        1.54710
H          0.96260       -2.47540        0.61490
H          1.21790       -3.61110        1.95070
H          8.61510        2.00540       -1.54080
H          8.59900       -0.81620       -6.75050
H         10.12200       -0.18900       -7.43310
H          9.90280        2.52970       -7.90210
H          8.57270        4.07500       -9.26470
H          6.29500        3.45060       -9.98190
H          5.35580        1.26680       -9.31810
H          6.68220       -0.27590       -7.93540
