
  xtb     02112208013D
 energy: -198.997400812816 gnorm: 0.000724888924 xtb: 6.4.1 (unknown)
113127  0     0  0            999 V2000
   -0.5018    4.4682    4.7711 C   0  0  0  0  0  0  0  0  0  0  0  0
   -1.7135    4.0225    5.2358 C   0  0  0  0  0  0  0  0  0  0  0  0
   -2.4243    2.8217    4.7907 C   0  0  0  0  0  0  0  0  0  0  0  0
   -2.0520    1.9980    3.9704 O   0  0  0  0  0  0  0  0  0  0  0  0
   -3.6942    2.7906    5.5344 C   0  0  0  0  0  0  0  0  0  0  0  0
   -4.7044    1.8370    5.4291 C   0  0  0  0  0  0  0  0  0  0  0  0
   -5.7848    2.0761    6.2437 C   0  0  0  0  0  0  0  0  0  0  0  0
   -5.8536    3.1800    7.1036 C   0  0  0  0  0  0  0  0  0  0  0  0
   -4.8608    4.1239    7.2218 C   0  0  0  0  0  0  0  0  0  0  0  0
   -3.7527    3.9026    6.3984 C   0  0  0  0  0  0  0  0  0  0  0  0
   -2.5229    4.6793    6.2433 C   0  0  0  0  0  0  0  0  0  0  0  0
   -2.2143    5.8184    6.9437 C   0  0  0  0  0  0  0  0  0  0  0  0
   -3.0471    6.4095    7.9168 C   0  0  0  0  0  0  0  0  0  0  0  0
   -3.6667    6.9525    8.7167 N   0  0  0  0  0  0  0  0  0  0  0  0
   -1.0298    6.5727    6.8159 C   0  0  0  0  0  0  0  0  0  0  0  0
   -0.0985    7.2453    6.7741 N   0  0  0  0  0  0  0  0  0  0  0  0
   -7.2218    2.7997    7.6129 C   0  0  0  0  0  0  0  0  0  0  0  0
   -8.4147    3.6002    7.0488 C   0  0  0  0  0  0  0  0  0  0  0  0
   -9.6093    2.7186    7.3333 C   0  0  0  0  0  0  0  0  0  0  0  0
   -9.5442    1.6746    6.5169 C   0  0  0  0  0  0  0  0  0  0  0  0
   -8.3039    1.8328    5.6674 C   0  0  0  0  0  0  0  0  0  0  0  0
   -8.2640    3.3612    5.5407 C   0  0  0  0  0  0  0  0  0  0  0  0
   -7.1453    1.5693    6.6529 C   0  0  0  0  0  0  0  0  0  0  0  0
    0.3532    3.9506    3.7915 C   0  0  0  0  0  0  0  0  0  0  0  0
    1.5469    4.5869    3.4111 C   0  0  0  0  0  0  0  0  0  0  0  0
    2.0580    5.8828    3.9508 C   0  0  0  0  0  0  0  0  0  0  0  0
    1.4015    7.0673    3.2364 C   0  0  0  0  0  0  0  0  0  0  0  0
    2.1936    3.8869    2.4012 C   0  0  0  0  0  0  0  0  0  0  0  0
    3.6844    4.1886    1.5263 S   0  0  0  0  0  0  0  0  0  0  0  0
    3.4125    2.7362    0.6308 C   0  0  0  0  0  0  0  0  0  0  0  0
    4.0396    1.9722   -0.3628 C   0  0  0  0  0  0  0  0  0  0  0  0
    5.3044    2.1341   -0.9779 C   0  0  0  0  0  0  0  0  0  0  0  0
    5.7640    1.1104   -1.8782 C   0  0  0  0  0  0  0  0  0  0  0  0
    6.9744    1.2997   -2.3658 N   0  0  0  0  0  0  0  0  0  0  0  0
    7.6154    2.8081   -1.7134 Se  0  0  0  0  0  2  0  0  0  0  0  0
    6.1561    3.1197   -0.7743 N   0  0  0  0  0  0  0  0  0  0  0  0
    4.8797    0.0531   -2.2005 C   0  0  0  0  0  0  0  0  0  0  0  0
    5.0057   -0.9795   -3.1391 C   0  0  0  0  0  0  0  0  0  0  0  0
    6.1670   -1.5819   -4.2690 S   0  0  0  0  0  0  0  0  0  0  0  0
    4.9876   -2.7646   -4.8015 C   0  0  0  0  0  0  0  0  0  0  0  0
    5.0393   -3.7690   -5.7618 C   0  0  0  0  0  0  0  0  0  0  0  0
    6.2328   -3.9878   -6.6342 C   0  0  0  0  0  0  0  0  0  0  0  0
    6.0901   -3.2145   -7.9479 C   0  0  0  0  0  0  0  0  0  0  0  0
    3.8314   -4.4768   -5.8249 C   0  0  0  0  0  0  0  0  0  0  0  0
    2.6453   -3.8760   -4.6672 S   0  0  0  0  0  0  0  0  0  0  0  0
    3.7611   -2.6815   -4.1223 C   0  0  0  0  0  0  0  0  0  0  0  0
    3.7821   -1.6590   -3.1688 C   0  0  0  0  0  0  0  0  0  0  0  0
    2.9146   -1.0907   -2.2745 N   0  0  0  0  0  0  0  0  0  0  0  0
    3.5705   -0.0523   -1.6456 C   0  0  0  0  0  0  0  0  0  0  0  0
    3.1936    0.8545   -0.6194 C   0  0  0  0  0  0  0  0  0  0  0  0
    2.0997    0.9281    0.2259 N   0  0  0  0  0  0  0  0  0  0  0  0
    2.2376    2.0628    0.9842 C   0  0  0  0  0  0  0  0  0  0  0  0
    1.5333    2.7123    2.0027 C   0  0  0  0  0  0  0  0  0  0  0  0
    0.0719    2.4641    2.8828 S   0  0  0  0  0  0  0  0  0  0  0  0
    1.2483   -0.1271    0.7334 C   0  0  0  0  0  0  0  0  0  0  0  0
    2.0276   -1.0498    1.6683 C   0  0  0  0  0  0  0  0  0  0  0  0
    1.5043   -1.3982   -2.3603 C   0  0  0  0  0  0  0  0  0  0  0  0
    1.1509   -2.7066   -1.6553 C   0  0  0  0  0  0  0  0  0  0  0  0
    3.5940   -5.5392   -6.7100 C   0  0  0  0  0  0  0  0  0  0  0  0
    2.4950   -6.3341   -6.8656 C   0  0  0  0  0  0  0  0  0  0  0  0
    2.4853   -7.6102   -8.0831 S   0  0  0  0  0  0  0  0  0  0  0  0
    0.8786   -8.0987   -7.6155 C   0  0  0  0  0  0  0  0  0  0  0  0
    0.1938   -9.0932   -8.2661 C   0  0  0  0  0  0  0  0  0  0  0  0
   -1.1322   -9.4688   -7.9877 C   0  0  0  0  0  0  0  0  0  0  0  0
   -2.2177   -9.8112   -7.8344 N   0  0  0  0  0  0  0  0  0  0  0  0
    0.8083   -9.7947   -9.3219 C   0  0  0  0  0  0  0  0  0  0  0  0
    1.3074  -10.3734  -10.1774 N   0  0  0  0  0  0  0  0  0  0  0  0
    0.4202   -7.3476   -6.5774 N   0  0  0  0  0  0  0  0  0  0  0  0
   -0.8166   -7.6112   -5.9159 C   0  0  0  0  0  0  0  0  0  0  0  0
   -0.9297   -8.7369   -5.1131 C   0  0  0  0  0  0  0  0  0  0  0  0
   -2.1250   -8.9866   -4.4656 C   0  0  0  0  0  0  0  0  0  0  0  0
   -3.1895   -8.1133   -4.6123 C   0  0  0  0  0  0  0  0  0  0  0  0
   -3.0600   -6.9819   -5.3992 C   0  0  0  0  0  0  0  0  0  0  0  0
   -1.8700   -6.7228   -6.0550 C   0  0  0  0  0  0  0  0  0  0  0  0
    1.2521   -6.3321   -6.1265 C   0  0  0  0  0  0  0  0  0  0  0  0
    0.9325   -5.5851   -5.2199 O   0  0  0  0  0  0  0  0  0  0  0  0
   -0.1344    5.3837    5.2136 H   0  0  0  0  0  0  0  0  0  0  0  0
   -4.6078    0.9998    4.7557 H   0  0  0  0  0  0  0  0  0  0  0  0
   -4.9298    4.9639    7.8921 H   0  0  0  0  0  0  0  0  0  0  0  0
   -7.2966    2.6216    8.6838 H   0  0  0  0  0  0  0  0  0  0  0  0
   -8.4739    4.6300    7.3900 H   0  0  0  0  0  0  0  0  0  0  0  0
  -10.3248    2.9105    8.1112 H   0  0  0  0  0  0  0  0  0  0  0  0
  -10.1939    0.8201    6.4765 H   0  0  0  0  0  0  0  0  0  0  0  0
   -8.2619    1.2527    4.7494 H   0  0  0  0  0  0  0  0  0  0  0  0
   -7.3376    3.7483    5.1203 H   0  0  0  0  0  0  0  0  0  0  0  0
   -9.1101    3.7495    4.9761 H   0  0  0  0  0  0  0  0  0  0  0  0
   -7.1717    0.5700    7.0834 H   0  0  0  0  0  0  0  0  0  0  0  0
    1.8765    5.9611    5.0237 H   0  0  0  0  0  0  0  0  0  0  0  0
    3.1362    5.9196    3.7827 H   0  0  0  0  0  0  0  0  0  0  0  0
    1.6107    7.0288    2.1699 H   0  0  0  0  0  0  0  0  0  0  0  0
    0.3236    7.0547    3.3800 H   0  0  0  0  0  0  0  0  0  0  0  0
    1.7905    7.9992    3.6362 H   0  0  0  0  0  0  0  0  0  0  0  0
    6.3730   -5.0496   -6.8418 H   0  0  0  0  0  0  0  0  0  0  0  0
    7.1145   -3.6253   -6.1023 H   0  0  0  0  0  0  0  0  0  0  0  0
    5.2124   -3.5465   -8.4981 H   0  0  0  0  0  0  0  0  0  0  0  0
    5.9890   -2.1509   -7.7467 H   0  0  0  0  0  0  0  0  0  0  0  0
    6.9690   -3.3674   -8.5685 H   0  0  0  0  0  0  0  0  0  0  0  0
    0.4408    0.3593    1.2863 H   0  0  0  0  0  0  0  0  0  0  0  0
    0.8050   -0.7002   -0.0741 H   0  0  0  0  0  0  0  0  0  0  0  0
    1.3710   -1.8248    2.0537 H   0  0  0  0  0  0  0  0  0  0  0  0
    2.4268   -0.4857    2.5079 H   0  0  0  0  0  0  0  0  0  0  0  0
    2.8580   -1.5172    1.1421 H   0  0  0  0  0  0  0  0  0  0  0  0
    1.2572   -1.5027   -3.4226 H   0  0  0  0  0  0  0  0  0  0  0  0
    0.9361   -0.5503   -1.9752 H   0  0  0  0  0  0  0  0  0  0  0  0
    1.5891   -3.5450   -2.1895 H   0  0  0  0  0  0  0  0  0  0  0  0
    0.0726   -2.8391   -1.6476 H   0  0  0  0  0  0  0  0  0  0  0  0
    1.5182   -2.7222   -0.6328 H   0  0  0  0  0  0  0  0  0  0  0  0
    4.4197   -5.7635   -7.3746 H   0  0  0  0  0  0  0  0  0  0  0  0
   -0.0923   -9.4113   -5.0066 H   0  0  0  0  0  0  0  0  0  0  0  0
   -2.2237   -9.8660   -3.8483 H   0  0  0  0  0  0  0  0  0  0  0  0
   -4.1231   -8.3157   -4.1103 H   0  0  0  0  0  0  0  0  0  0  0  0
   -3.8888   -6.2995   -5.5095 H   0  0  0  0  0  0  0  0  0  0  0  0
   -1.7553   -5.8448   -6.6722 H   0  0  0  0  0  0  0  0  0  0  0  0
  1  2  2  0  0  0  0
  2  3  1  0  0  0  0
  3  4  2  0  0  0  0
  3  5  1  0  0  0  0
  5  6  2  0  0  0  0
  6  7  1  0  0  0  0
  7  8  2  0  0  0  0
  8  9  1  0  0  0  0
  9 10  2  0  0  0  0
 10 11  1  0  0  0  0
 11 12  2  0  0  0  0
 12 13  1  0  0  0  0
 13 14  3  0  0  0  0
 12 15  1  0  0  0  0
 15 16  3  0  0  0  0
  8 17  1  0  0  0  0
 17 18  1  0  0  0  0
 18 19  1  0  0  0  0
 19 20  2  0  0  0  0
 20 21  1  0  0  0  0
 21 22  1  0  0  0  0
 21 23  1  0  0  0  0
  1 24  1  0  0  0  0
 24 25  2  0  0  0  0
 25 26  1  0  0  0  0
 26 27  1  0  0  0  0
 25 28  1  0  0  0  0
 28 29  1  0  0  0  0
 29 30  1  0  0  0  0
 30 31  1  0  0  0  0
 31 32  1  0  0  0  0
 32 33  1  0  0  0  0
 33 34  2  0  0  0  0
 34 35  1  0  0  0  0
 35 36  1  0  0  0  0
 33 37  1  0  0  0  0
 37 38  1  0  0  0  0
 38 39  1  0  0  0  0
 39 40  1  0  0  0  0
 40 41  1  0  0  0  0
 41 42  1  0  0  0  0
 42 43  1  0  0  0  0
 41 44  2  0  0  0  0
 44 45  1  0  0  0  0
 45 46  1  0  0  0  0
 46 47  1  0  0  0  0
 47 48  1  0  0  0  0
 48 49  1  0  0  0  0
 49 50  1  0  0  0  0
 50 51  1  0  0  0  0
 51 52  1  0  0  0  0
 52 53  1  0  0  0  0
 53 54  1  0  0  0  0
 51 55  1  0  0  0  0
 55 56  1  0  0  0  0
 48 57  1  0  0  0  0
 57 58  1  0  0  0  0
 44 59  1  0  0  0  0
 59 60  2  0  0  0  0
 60 61  1  0  0  0  0
 61 62  1  0  0  0  0
 62 63  2  0  0  0  0
 63 64  1  0  0  0  0
 64 65  3  0  0  0  0
 63 66  1  0  0  0  0
 66 67  3  0  0  0  0
 62 68  1  0  0  0  0
 68 69  1  0  0  0  0
 69 70  2  0  0  0  0
 70 71  1  0  0  0  0
 71 72  2  0  0  0  0
 72 73  1  0  0  0  0
 73 74  2  0  0  0  0
 68 75  1  0  0  0  0
 75 76  2  0  0  0  0
 11  2  1  0  0  0  0
 23 17  1  0  0  0  0
 54 24  1  0  0  0  0
 75 60  1  0  0  0  0
 10  5  1  0  0  0  0
 22 18  1  0  0  0  0
 53 28  2  0  0  0  0
 74 69  1  0  0  0  0
 23  7  1  0  0  0  0
 52 30  2  0  0  0  0
 50 31  2  0  0  0  0
 36 32  2  0  0  0  0
 49 37  2  0  0  0  0
 47 38  2  0  0  0  0
 46 40  2  0  0  0  0
  1 77  1  0  0  0  0
  6 78  1  0  0  0  0
  9 79  1  0  0  0  0
 17 80  1  0  0  0  0
 18 81  1  0  0  0  0
 19 82  1  0  0  0  0
 20 83  1  0  0  0  0
 21 84  1  0  0  0  0
 22 85  1  0  0  0  0
 22 86  1  0  0  0  0
 23 87  1  0  0  0  0
 26 88  1  0  0  0  0
 26 89  1  0  0  0  0
 27 90  1  0  0  0  0
 27 91  1  0  0  0  0
 27 92  1  0  0  0  0
 42 93  1  0  0  0  0
 42 94  1  0  0  0  0
 43 95  1  0  0  0  0
 43 96  1  0  0  0  0
 43 97  1  0  0  0  0
 55 98  1  0  0  0  0
 55 99  1  0  0  0  0
 56100  1  0  0  0  0
 56101  1  0  0  0  0
 56102  1  0  0  0  0
 57103  1  0  0  0  0
 57104  1  0  0  0  0
 58105  1  0  0  0  0
 58106  1  0  0  0  0
 58107  1  0  0  0  0
 59108  1  0  0  0  0
 70109  1  0  0  0  0
 71110  1  0  0  0  0
 72111  1  0  0  0  0
 73112  1  0  0  0  0
 74113  1  0  0  0  0
M  END
