
  xtb     02012223593D
 energy: -203.052004331224 gnorm: 0.000232212542 xtb: 6.4.1 (unknown)
114128  0     0  0            999 V2000
    5.4764    2.5907    1.6180 C   0  0  0  0  0  0  0  0  0  0  0  0
    6.4554    2.5112    0.6599 C   0  0  0  0  0  0  0  0  0  0  0  0
    6.4779    1.7171   -0.5863 C   0  0  0  0  0  0  0  0  0  0  0  0
    5.7428    0.8132   -0.9346 O   0  0  0  0  0  0  0  0  0  0  0  0
    7.5977    2.2522   -1.3852 C   0  0  0  0  0  0  0  0  0  0  0  0
    7.9446    1.8784   -2.6809 C   0  0  0  0  0  0  0  0  0  0  0  0
    9.0184    2.5659   -3.1926 C   0  0  0  0  0  0  0  0  0  0  0  0
    9.6969    3.5549   -2.4684 C   0  0  0  0  0  0  0  0  0  0  0  0
    9.3653    3.9315   -1.1885 C   0  0  0  0  0  0  0  0  0  0  0  0
    8.2765    3.2409   -0.6484 C   0  0  0  0  0  0  0  0  0  0  0  0
    7.6250    3.3719    0.6522 C   0  0  0  0  0  0  0  0  0  0  0  0
    8.0892    4.1408    1.6910 C   0  0  0  0  0  0  0  0  0  0  0  0
    9.2584    4.9275    1.6398 C   0  0  0  0  0  0  0  0  0  0  0  0
   10.1958    5.5900    1.6771 N   0  0  0  0  0  0  0  0  0  0  0  0
    7.5034    4.2431    2.9694 C   0  0  0  0  0  0  0  0  0  0  0  0
    7.0945    4.3815    4.0352 N   0  0  0  0  0  0  0  0  0  0  0  0
   10.6620    3.8294   -3.5946 C   0  0  0  0  0  0  0  0  0  0  0  0
   12.0925    3.2480   -3.4777 C   0  0  0  0  0  0  0  0  0  0  0  0
   11.9880    2.0249   -2.6010 C   0  0  0  0  0  0  0  0  0  0  0  0
   11.3464    1.0885   -3.2870 C   0  0  0  0  0  0  0  0  0  0  0  0
   11.0045    1.6620   -4.6399 C   0  0  0  0  0  0  0  0  0  0  0  0
   12.2157    2.5827   -4.8579 C   0  0  0  0  0  0  0  0  0  0  0  0
    9.9058    2.7271   -4.4013 C   0  0  0  0  0  0  0  0  0  0  0  0
    4.2843    1.8705    1.7958 C   0  0  0  0  0  0  0  0  0  0  0  0
    3.8238    0.6930    1.1731 C   0  0  0  0  0  0  0  0  0  0  0  0
    2.5823    0.4335    1.7211 C   0  0  0  0  0  0  0  0  0  0  0  0
    2.2917    1.4535    2.6558 C   0  0  0  0  0  0  0  0  0  0  0  0
    3.3351    2.3015    2.7232 N   0  0  0  0  0  0  0  0  0  0  0  0
    3.3708    3.4952    3.5340 C   0  0  0  0  0  0  0  0  0  0  0  0
    3.0338    4.7411    2.7175 C   0  0  0  0  0  0  0  0  0  0  0  0
    0.9731    1.2439    3.1018 C   0  0  0  0  0  0  0  0  0  0  0  0
    0.0781    2.0306    3.8622 C   0  0  0  0  0  0  0  0  0  0  0  0
   -1.3178    1.6799    3.8946 C   0  0  0  0  0  0  0  0  0  0  0  0
   -2.0451    2.5606    4.5618 N   0  0  0  0  0  0  0  0  0  0  0  0
   -1.0710    3.7250    5.1183 S   0  0  0  0  0  0  0  0  0  0  0  0
    0.3252    3.1536    4.5209 N   0  0  0  0  0  0  0  0  0  0  0  0
   -1.7364    0.4741    3.2892 C   0  0  0  0  0  0  0  0  0  0  0  0
   -2.9847   -0.1593    3.1748 C   0  0  0  0  0  0  0  0  0  0  0  0
   -4.6523    0.1612    3.4967 S   0  0  0  0  0  0  0  0  0  0  0  0
   -5.0726   -1.3821    2.7857 C   0  0  0  0  0  0  0  0  0  0  0  0
   -6.2980   -2.0080    2.5225 C   0  0  0  0  0  0  0  0  0  0  0  0
   -7.6110   -1.4820    3.0059 C   0  0  0  0  0  0  0  0  0  0  0  0
   -7.9139   -0.0797    2.4791 C   0  0  0  0  0  0  0  0  0  0  0  0
   -6.1039   -3.2410    1.9102 C   0  0  0  0  0  0  0  0  0  0  0  0
   -4.3948   -3.6414    1.7227 S   0  0  0  0  0  0  0  0  0  0  0  0
   -3.9479   -2.1122    2.3723 C   0  0  0  0  0  0  0  0  0  0  0  0
   -2.7617   -1.4065    2.5750 C   0  0  0  0  0  0  0  0  0  0  0  0
   -1.4272   -1.5642    2.2984 N   0  0  0  0  0  0  0  0  0  0  0  0
   -0.7908   -0.3987    2.6841 C   0  0  0  0  0  0  0  0  0  0  0  0
    0.5250    0.0571    2.4505 C   0  0  0  0  0  0  0  0  0  0  0  0
    1.5133   -0.4245    1.6129 N   0  0  0  0  0  0  0  0  0  0  0  0
    1.3831   -1.2664    0.4424 C   0  0  0  0  0  0  0  0  0  0  0  0
    2.3342   -2.4599    0.4911 C   0  0  0  0  0  0  0  0  0  0  0  0
   -0.8375   -2.8847    2.2265 C   0  0  0  0  0  0  0  0  0  0  0  0
   -1.1202   -3.6880    3.4956 C   0  0  0  0  0  0  0  0  0  0  0  0
   -7.0302   -4.2196    1.4841 C   0  0  0  0  0  0  0  0  0  0  0  0
   -8.1964   -3.9757    0.8106 C   0  0  0  0  0  0  0  0  0  0  0  0
   -8.4291   -2.7508    0.0117 C   0  0  0  0  0  0  0  0  0  0  0  0
   -7.7509   -1.7469   -0.0270 O   0  0  0  0  0  0  0  0  0  0  0  0
   -9.5851   -3.0647   -0.8536 C   0  0  0  0  0  0  0  0  0  0  0  0
  -10.1577   -2.2879   -1.8181 C   0  0  0  0  0  0  0  0  0  0  0  0
  -11.2442   -2.8042   -2.5595 C   0  0  0  0  0  0  0  0  0  0  0  0
  -11.8659   -2.0476   -3.5714 C   0  0  0  0  0  0  0  0  0  0  0  0
  -12.9061   -2.5752   -4.2840 C   0  0  0  0  0  0  0  0  0  0  0  0
  -13.4932   -1.8555   -5.2506 F   0  0  0  0  0  0  0  0  0  0  0  0
  -13.3712   -3.8774   -4.0137 C   0  0  0  0  0  0  0  0  0  0  0  0
  -14.3926   -4.3688   -4.7285 F   0  0  0  0  0  0  0  0  0  0  0  0
  -12.7897   -4.6349   -3.0360 C   0  0  0  0  0  0  0  0  0  0  0  0
  -11.7135   -4.1214   -2.2850 C   0  0  0  0  0  0  0  0  0  0  0  0
  -11.0998   -4.9018   -1.2780 C   0  0  0  0  0  0  0  0  0  0  0  0
  -10.0491   -4.3799   -0.5713 C   0  0  0  0  0  0  0  0  0  0  0  0
   -9.2204   -4.9427    0.4895 C   0  0  0  0  0  0  0  0  0  0  0  0
   -9.4243   -6.1381    1.1304 C   0  0  0  0  0  0  0  0  0  0  0  0
   -8.6501   -6.5862    2.2206 C   0  0  0  0  0  0  0  0  0  0  0  0
   -8.0695   -6.9897    3.1255 N   0  0  0  0  0  0  0  0  0  0  0  0
  -10.4539   -7.0420    0.8017 C   0  0  0  0  0  0  0  0  0  0  0  0
  -11.2717   -7.8129    0.5670 N   0  0  0  0  0  0  0  0  0  0  0  0
    5.6196    3.3767    2.3465 H   0  0  0  0  0  0  0  0  0  0  0  0
    7.3896    1.1155   -3.2044 H   0  0  0  0  0  0  0  0  0  0  0  0
    9.8918    4.7014   -0.6499 H   0  0  0  0  0  0  0  0  0  0  0  0
   10.6576    4.8435   -3.9896 H   0  0  0  0  0  0  0  0  0  0  0  0
   12.8529    3.9732   -3.2010 H   0  0  0  0  0  0  0  0  0  0  0  0
   12.3295    1.9874   -1.5832 H   0  0  0  0  0  0  0  0  0  0  0  0
   11.0443    0.1118   -2.9568 H   0  0  0  0  0  0  0  0  0  0  0  0
   10.7745    0.9434   -5.4223 H   0  0  0  0  0  0  0  0  0  0  0  0
   13.1473    2.0318   -4.9785 H   0  0  0  0  0  0  0  0  0  0  0  0
   12.0890    3.2772   -5.6874 H   0  0  0  0  0  0  0  0  0  0  0  0
    9.4070    3.0222   -5.3227 H   0  0  0  0  0  0  0  0  0  0  0  0
    4.3610    0.1518    0.4236 H   0  0  0  0  0  0  0  0  0  0  0  0
    2.6181    3.3714    4.3159 H   0  0  0  0  0  0  0  0  0  0  0  0
    4.3540    3.5979    4.0020 H   0  0  0  0  0  0  0  0  0  0  0  0
    3.0783    5.6174    3.3571 H   0  0  0  0  0  0  0  0  0  0  0  0
    2.0286    4.6575    2.3115 H   0  0  0  0  0  0  0  0  0  0  0  0
    3.7324    4.8735    1.8942 H   0  0  0  0  0  0  0  0  0  0  0  0
   -8.4084   -2.1676    2.7177 H   0  0  0  0  0  0  0  0  0  0  0  0
   -7.5717   -1.4491    4.0998 H   0  0  0  0  0  0  0  0  0  0  0  0
   -7.1829    0.6357    2.8457 H   0  0  0  0  0  0  0  0  0  0  0  0
   -8.9008    0.2311    2.8124 H   0  0  0  0  0  0  0  0  0  0  0  0
   -7.8913   -0.0782    1.3935 H   0  0  0  0  0  0  0  0  0  0  0  0
    1.6367   -0.6584   -0.4345 H   0  0  0  0  0  0  0  0  0  0  0  0
    0.3454   -1.5834    0.3372 H   0  0  0  0  0  0  0  0  0  0  0  0
    3.3638   -2.1144    0.4981 H   0  0  0  0  0  0  0  0  0  0  0  0
    2.1761   -3.0663    1.3802 H   0  0  0  0  0  0  0  0  0  0  0  0
    2.1835   -3.0832   -0.3858 H   0  0  0  0  0  0  0  0  0  0  0  0
    0.2381   -2.7775    2.1196 H   0  0  0  0  0  0  0  0  0  0  0  0
   -1.2457   -3.4095    1.3567 H   0  0  0  0  0  0  0  0  0  0  0  0
   -0.7530   -3.1532    4.3691 H   0  0  0  0  0  0  0  0  0  0  0  0
   -2.1845   -3.8677    3.6177 H   0  0  0  0  0  0  0  0  0  0  0  0
   -0.6153   -4.6481    3.4363 H   0  0  0  0  0  0  0  0  0  0  0  0
   -6.7275   -5.2498    1.6368 H   0  0  0  0  0  0  0  0  0  0  0  0
   -9.7851   -1.2943   -2.0161 H   0  0  0  0  0  0  0  0  0  0  0  0
  -11.5207   -1.0494   -3.7909 H   0  0  0  0  0  0  0  0  0  0  0  0
  -13.1585   -5.6299   -2.8416 H   0  0  0  0  0  0  0  0  0  0  0  0
  -11.4690   -5.8988   -1.0988 H   0  0  0  0  0  0  0  0  0  0  0  0
  1  2  2  0  0  0  0
  2  3  1  0  0  0  0
  3  4  2  0  0  0  0
  3  5  1  0  0  0  0
  5  6  2  0  0  0  0
  6  7  1  0  0  0  0
  7  8  2  0  0  0  0
  8  9  1  0  0  0  0
  9 10  2  0  0  0  0
 10 11  1  0  0  0  0
 11 12  2  0  0  0  0
 12 13  1  0  0  0  0
 13 14  3  0  0  0  0
 12 15  1  0  0  0  0
 15 16  3  0  0  0  0
  8 17  1  0  0  0  0
 17 18  1  0  0  0  0
 18 19  1  0  0  0  0
 19 20  2  0  0  0  0
 20 21  1  0  0  0  0
 21 22  1  0  0  0  0
 21 23  1  0  0  0  0
  1 24  1  0  0  0  0
 24 25  2  0  0  0  0
 25 26  1  0  0  0  0
 26 27  2  0  0  0  0
 27 28  1  0  0  0  0
 28 29  1  0  0  0  0
 29 30  1  0  0  0  0
 27 31  1  0  0  0  0
 31 32  1  0  0  0  0
 32 33  1  0  0  0  0
 33 34  2  0  0  0  0
 34 35  1  0  0  0  0
 35 36  1  0  0  0  0
 33 37  1  0  0  0  0
 37 38  1  0  0  0  0
 38 39  1  0  0  0  0
 39 40  1  0  0  0  0
 40 41  1  0  0  0  0
 41 42  1  0  0  0  0
 42 43  1  0  0  0  0
 41 44  2  0  0  0  0
 44 45  1  0  0  0  0
 45 46  1  0  0  0  0
 46 47  1  0  0  0  0
 47 48  1  0  0  0  0
 48 49  1  0  0  0  0
 49 50  1  0  0  0  0
 50 51  1  0  0  0  0
 51 52  1  0  0  0  0
 52 53  1  0  0  0  0
 48 54  1  0  0  0  0
 54 55  1  0  0  0  0
 44 56  1  0  0  0  0
 56 57  2  0  0  0  0
 57 58  1  0  0  0  0
 58 59  2  0  0  0  0
 58 60  1  0  0  0  0
 60 61  2  0  0  0  0
 61 62  1  0  0  0  0
 62 63  2  0  0  0  0
 63 64  1  0  0  0  0
 64 65  1  0  0  0  0
 64 66  2  0  0  0  0
 66 67  1  0  0  0  0
 66 68  1  0  0  0  0
 68 69  2  0  0  0  0
 69 70  1  0  0  0  0
 70 71  2  0  0  0  0
 71 72  1  0  0  0  0
 72 73  2  0  0  0  0
 73 74  1  0  0  0  0
 74 75  3  0  0  0  0
 73 76  1  0  0  0  0
 76 77  3  0  0  0  0
 11  2  1  0  0  0  0
 23 17  1  0  0  0  0
 28 24  1  0  0  0  0
 50 31  2  0  0  0  0
 72 57  1  0  0  0  0
 10  5  1  0  0  0  0
 22 18  1  0  0  0  0
 51 26  1  0  0  0  0
 71 60  1  0  0  0  0
 23  7  1  0  0  0  0
 36 32  2  0  0  0  0
 49 37  2  0  0  0  0
 69 62  1  0  0  0  0
 47 38  2  0  0  0  0
 46 40  2  0  0  0  0
  1 78  1  0  0  0  0
  6 79  1  0  0  0  0
  9 80  1  0  0  0  0
 17 81  1  0  0  0  0
 18 82  1  0  0  0  0
 19 83  1  0  0  0  0
 20 84  1  0  0  0  0
 21 85  1  0  0  0  0
 22 86  1  0  0  0  0
 22 87  1  0  0  0  0
 23 88  1  0  0  0  0
 25 89  1  0  0  0  0
 29 90  1  0  0  0  0
 29 91  1  0  0  0  0
 30 92  1  0  0  0  0
 30 93  1  0  0  0  0
 30 94  1  0  0  0  0
 42 95  1  0  0  0  0
 42 96  1  0  0  0  0
 43 97  1  0  0  0  0
 43 98  1  0  0  0  0
 43 99  1  0  0  0  0
 52100  1  0  0  0  0
 52101  1  0  0  0  0
 53102  1  0  0  0  0
 53103  1  0  0  0  0
 53104  1  0  0  0  0
 54105  1  0  0  0  0
 54106  1  0  0  0  0
 55107  1  0  0  0  0
 55108  1  0  0  0  0
 55109  1  0  0  0  0
 56110  1  0  0  0  0
 61111  1  0  0  0  0
 63112  1  0  0  0  0
 68113  1  0  0  0  0
 70114  1  0  0  0  0
M  END
