105

C         -1.54150        1.62990        5.42950
C         -2.57260        2.28460        6.05530
C         -3.76010        2.82040        5.39680
O         -3.98930        2.84400        4.19490
C         -4.64110        3.32560        6.46040
C         -5.90530        3.89020        6.31110
C         -6.49750        4.25530        7.49660
C         -5.87870        4.06920        8.73950
C         -4.63160        3.51230        8.90040
C         -4.00870        3.13760        7.70730
C         -2.70360        2.51600        7.48020
C         -1.78130        2.23150        8.45480
C         -0.51530        1.64630        8.24560
N          0.53000        1.17470        8.16910
C         -1.95940        2.49830        9.82850
N         -2.02800        2.68360       10.95970
C         -7.03900        4.66450        9.49640
C         -6.88770        6.11250       10.02480
C         -5.89990        6.80040        9.11540
C         -6.48700        6.97700        7.93940
C         -7.88260        6.41130        8.03200
C         -8.20160        6.71690        9.50420
C         -7.72900        4.87210        8.11130
C         -1.33410        1.32060        4.07640
Se        -2.42510        1.77350        2.56980
C         -1.18080        0.84290        1.57410
C         -0.95400        0.42130        0.25770
C         -1.76680        0.56860       -0.88460
C         -1.39220       -0.09890       -2.09490
N         -2.28260        0.07050       -3.06060
S         -3.48430        0.99550       -2.49240
N         -2.91720        1.21360       -0.99070
C         -0.15650       -0.78240       -2.13170
C          0.50800       -1.42290       -3.18590
S          0.24240       -1.82900       -4.84270
C          1.84610       -2.52880       -4.91460
C          2.57390       -3.14530       -5.94420
C          2.02370       -3.49140       -7.28580
C          0.60000       -4.03890       -7.23060
C          3.84430       -3.50640       -5.50570
S          4.09860       -3.13800       -3.80020
C          2.53170       -2.43310       -3.69420
C          1.76310       -1.81170       -2.70530
N          1.89090       -1.45060       -1.39060
C          0.71180       -0.84060       -0.99990
C          0.24950       -0.33400        0.24230
N          0.73930       -0.39370        1.53990
C         -0.13440        0.30600        2.34660
C         -0.21260        0.56940        3.70380
C          1.55200       -1.42940        2.14020
C          0.80490       -2.76180        2.17050
C          3.19960       -1.43620       -0.77640
C          3.63690       -2.82380       -0.30990
C          4.89090       -4.19700       -6.15280
C          5.25090       -4.11840       -7.46950
C          4.94580       -2.98340       -8.36710
O          4.24310       -2.01930       -8.14110
C          5.78570       -3.19780       -9.56510
C          5.87930       -2.39520      -10.68310
C          6.75690       -2.78330      -11.69770
O          6.95160       -2.10550      -12.84860
C          6.23340       -0.91160      -13.06560
C          7.51050       -3.95720      -11.55000
C          7.41140       -4.75280      -10.42720
C          6.53730       -4.37420       -9.41420
C          6.20740       -4.98340       -8.13590
C          6.64570       -6.20050       -7.68110
C          7.56500       -7.01530       -8.37270
N          8.31440       -7.71830       -8.88500
C          6.21060       -6.81410       -6.48840
N          5.88160       -7.38270       -5.54610
H         -0.75230        1.25790        6.07370
H         -6.34660        4.01020        5.33410
H         -4.17420        3.37180        9.86540
H         -7.52570        4.00930       10.21610
H         -6.68980        6.18510       11.09080
H         -4.88790        7.02840        9.39450
H         -6.06360        7.38210        7.03900
H         -8.59160        6.75630        7.28400
H         -8.28270        7.78420        9.70470
H         -9.09010        6.20490        9.87120
H         -8.66640        4.35120        7.92590
H          2.67870       -4.23160       -7.75130
H          2.05290       -2.59470       -7.91250
H         -0.10860       -3.27200       -6.93200
H          0.31320       -4.40180       -8.21440
H          0.53620       -4.86580       -6.52660
H          0.50170        0.24030        4.44060
H          1.77350       -1.10760        3.15950
H          2.49790       -1.53870        1.61870
H          1.42000       -3.52510        2.63970
H         -0.11800       -2.66250        2.73770
H          0.55250       -3.08150        1.16130
H          3.19890       -0.70690        0.03480
H          3.91260       -1.08380       -1.53050
H          4.58920       -2.75320        0.20850
H          2.90430       -3.27340        0.35400
H          3.76370       -3.48010       -1.16650
H          5.49240       -4.82080       -5.50100
H          5.27700       -1.50290      -10.74170
H          6.55290       -0.55070      -14.04150
H          5.15430       -1.09160      -13.08090
H          6.46790       -0.16000      -12.30600
H          8.18190       -4.22300      -12.35110
H          8.01220       -5.64400      -10.34820
