
  xtb     02022220083D
 energy: -181.499270825284 gnorm: 0.000560186475 xtb: 6.4.1 (unknown)
105118  0     0  0            999 V2000
    3.9298    4.0084   -3.7285 C   0  0  0  0  0  0  0  0  0  0  0  0
    3.2934    5.1272   -3.2861 C   0  0  0  0  0  0  0  0  0  0  0  0
    4.0381    6.4081   -3.1661 C   0  0  0  0  0  0  0  0  0  0  0  0
    5.1129    6.6706   -3.6582 O   0  0  0  0  0  0  0  0  0  0  0  0
    3.2191    7.2489   -2.2697 C   0  0  0  0  0  0  0  0  0  0  0  0
    3.5507    8.4950   -1.7429 C   0  0  0  0  0  0  0  0  0  0  0  0
    2.5935    9.0249   -0.9112 C   0  0  0  0  0  0  0  0  0  0  0  0
    1.3953    8.3624   -0.6109 C   0  0  0  0  0  0  0  0  0  0  0  0
    1.0505    7.1361   -1.1271 C   0  0  0  0  0  0  0  0  0  0  0  0
    2.0057    6.5869   -1.9848 C   0  0  0  0  0  0  0  0  0  0  0  0
    1.9695    5.3424   -2.7468 C   0  0  0  0  0  0  0  0  0  0  0  0
    0.8357    4.6689   -3.1224 C   0  0  0  0  0  0  0  0  0  0  0  0
    0.8386    3.6672   -4.1156 C   0  0  0  0  0  0  0  0  0  0  0  0
    0.8039    2.8865   -4.9568 N   0  0  0  0  0  0  0  0  0  0  0  0
   -0.4542    4.9568   -2.6381 C   0  0  0  0  0  0  0  0  0  0  0  0
   -1.5231    5.1307   -2.2558 N   0  0  0  0  0  0  0  0  0  0  0  0
    0.9135    9.4728    0.2885 C   0  0  0  0  0  0  0  0  0  0  0  0
   -0.1685   10.4298   -0.2693 C   0  0  0  0  0  0  0  0  0  0  0  0
   -0.0134   10.4220   -1.7700 C   0  0  0  0  0  0  0  0  0  0  0  0
    1.1164   11.0519   -2.0630 C   0  0  0  0  0  0  0  0  0  0  0  0
    1.7456   11.4971   -0.7660 C   0  0  0  0  0  0  0  0  0  0  0  0
    0.4833   11.7813    0.0637 C   0  0  0  0  0  0  0  0  0  0  0  0
    2.2438   10.2151   -0.0534 C   0  0  0  0  0  0  0  0  0  0  0  0
    3.5964    2.6529   -3.5130 C   0  0  0  0  0  0  0  0  0  0  0  0
    4.1228    1.5538   -4.1787 C   0  0  0  0  0  0  0  0  0  0  0  0
    5.0882    1.6143   -5.3162 C   0  0  0  0  0  0  0  0  0  0  0  0
    6.5265    1.5052   -4.8027 C   0  0  0  0  0  0  0  0  0  0  0  0
    3.6464    0.3530   -3.6429 C   0  0  0  0  0  0  0  0  0  0  0  0
    3.9372   -1.3209   -4.0592 S   0  0  0  0  0  0  0  0  0  0  0  0
    2.8770   -1.7962   -2.7808 C   0  0  0  0  0  0  0  0  0  0  0  0
    2.3887   -2.9684   -2.1869 C   0  0  0  0  0  0  0  0  0  0  0  0
    2.7168   -4.3215   -2.4407 C   0  0  0  0  0  0  0  0  0  0  0  0
    2.1489   -5.3327   -1.5907 C   0  0  0  0  0  0  0  0  0  0  0  0
    2.5405   -6.5645   -1.8518 N   0  0  0  0  0  0  0  0  0  0  0  0
    3.6639   -6.5225   -3.2108 Se  0  0  0  0  0  2  0  0  0  0  0  0
    3.5443   -4.7699   -3.3643 N   0  0  0  0  0  0  0  0  0  0  0  0
    1.2115   -4.9361   -0.6073 C   0  0  0  0  0  0  0  0  0  0  0  0
    0.4403   -5.7122    0.2680 C   0  0  0  0  0  0  0  0  0  0  0  0
    0.2297   -7.3712    0.7075 S   0  0  0  0  0  0  0  0  0  0  0  0
   -1.0306   -6.8817    1.8247 C   0  0  0  0  0  0  0  0  0  0  0  0
   -1.8443   -7.6026    2.6929 C   0  0  0  0  0  0  0  0  0  0  0  0
   -1.7294   -9.0827    2.8646 C   0  0  0  0  0  0  0  0  0  0  0  0
   -0.8303   -9.4226    4.0562 C   0  0  0  0  0  0  0  0  0  0  0  0
   -2.7099   -6.7591    3.4008 C   0  0  0  0  0  0  0  0  0  0  0  0
   -2.4994   -5.0659    2.9594 S   0  0  0  0  0  0  0  0  0  0  0  0
   -1.2611   -5.4976    1.8410 C   0  0  0  0  0  0  0  0  0  0  0  0
   -0.4111   -4.8353    0.9485 C   0  0  0  0  0  0  0  0  0  0  0  0
   -0.1770   -3.5486    0.5453 N   0  0  0  0  0  0  0  0  0  0  0  0
    0.8259   -3.5779   -0.4071 C   0  0  0  0  0  0  0  0  0  0  0  0
    1.5045   -2.5689   -1.1435 C   0  0  0  0  0  0  0  0  0  0  0  0
    1.4925   -1.1859   -1.0924 N   0  0  0  0  0  0  0  0  0  0  0  0
    2.3246   -0.7217   -2.0743 C   0  0  0  0  0  0  0  0  0  0  0  0
    2.7711    0.5096   -2.5607 C   0  0  0  0  0  0  0  0  0  0  0  0
    2.5253    2.1751   -2.1939 S   0  0  0  0  0  0  0  0  0  0  0  0
    1.0562   -0.2885   -0.0469 C   0  0  0  0  0  0  0  0  0  0  0  0
    1.7791   -0.5709    1.2680 C   0  0  0  0  0  0  0  0  0  0  0  0
   -1.1512   -2.5261    0.8582 C   0  0  0  0  0  0  0  0  0  0  0  0
   -1.9733   -2.1450   -0.3704 C   0  0  0  0  0  0  0  0  0  0  0  0
   -3.6363   -7.2121    4.3535 C   0  0  0  0  0  0  0  0  0  0  0  0
   -4.5112   -6.5176    5.1378 C   0  0  0  0  0  0  0  0  0  0  0  0
   -5.5608   -7.3549    6.2726 S   0  0  0  0  0  0  0  0  0  0  0  0
   -6.2615   -5.8451    6.8273 C   0  0  0  0  0  0  0  0  0  0  0  0
   -7.4190   -5.7309    7.9721 S   0  0  0  0  0  0  0  0  0  0  0  0
   -5.7067   -4.8017    6.1587 N   0  0  0  0  0  0  0  0  0  0  0  0
   -6.0772   -3.4272    6.4343 C   0  0  0  0  0  0  0  0  0  0  0  0
   -5.3199   -2.8836    7.6393 C   0  0  0  0  0  0  0  0  0  0  0  0
   -4.7388   -5.0910    5.2146 C   0  0  0  0  0  0  0  0  0  0  0  0
   -4.1900   -4.2221    4.5571 O   0  0  0  0  0  0  0  0  0  0  0  0
    4.8765    4.1873   -4.2281 H   0  0  0  0  0  0  0  0  0  0  0  0
    4.4858    8.9719   -1.9918 H   0  0  0  0  0  0  0  0  0  0  0  0
    0.1303    6.6282   -0.8878 H   0  0  0  0  0  0  0  0  0  0  0  0
    0.7338    9.2016    1.3270 H   0  0  0  0  0  0  0  0  0  0  0  0
   -1.1704   10.2489    0.1106 H   0  0  0  0  0  0  0  0  0  0  0  0
   -0.6907    9.9241   -2.4388 H   0  0  0  0  0  0  0  0  0  0  0  0
    1.5720   11.1859   -3.0266 H   0  0  0  0  0  0  0  0  0  0  0  0
    2.4861   12.2893   -0.8385 H   0  0  0  0  0  0  0  0  0  0  0  0
   -0.0870   12.6283   -0.3143 H   0  0  0  0  0  0  0  0  0  0  0  0
    0.6833   11.9169    1.1258 H   0  0  0  0  0  0  0  0  0  0  0  0
    2.9302   10.4347    0.7623 H   0  0  0  0  0  0  0  0  0  0  0  0
    4.8834    0.7777   -5.9870 H   0  0  0  0  0  0  0  0  0  0  0  0
    4.9595    2.5421   -5.8733 H   0  0  0  0  0  0  0  0  0  0  0  0
    6.6660    0.5692   -4.2670 H   0  0  0  0  0  0  0  0  0  0  0  0
    7.2219    1.5341   -5.6371 H   0  0  0  0  0  0  0  0  0  0  0  0
    6.7579    2.3276   -4.1294 H   0  0  0  0  0  0  0  0  0  0  0  0
   -1.2889   -9.4977    1.9560 H   0  0  0  0  0  0  0  0  0  0  0  0
   -2.7136   -9.5333    3.0025 H   0  0  0  0  0  0  0  0  0  0  0  0
    0.1630   -9.0068    3.9059 H   0  0  0  0  0  0  0  0  0  0  0  0
   -0.7421  -10.5006    4.1620 H   0  0  0  0  0  0  0  0  0  0  0  0
   -1.2394   -9.0136    4.9773 H   0  0  0  0  0  0  0  0  0  0  0  0
    1.3019    0.7220   -0.3827 H   0  0  0  0  0  0  0  0  0  0  0  0
   -0.0267   -0.3309    0.0692 H   0  0  0  0  0  0  0  0  0  0  0  0
    2.8487   -0.4181    1.1433 H   0  0  0  0  0  0  0  0  0  0  0  0
    1.4212    0.1044    2.0403 H   0  0  0  0  0  0  0  0  0  0  0  0
    1.6196   -1.5962    1.5937 H   0  0  0  0  0  0  0  0  0  0  0  0
   -0.6692   -1.6579    1.3066 H   0  0  0  0  0  0  0  0  0  0  0  0
   -1.8136   -2.9515    1.6159 H   0  0  0  0  0  0  0  0  0  0  0  0
   -2.5171   -3.0131   -0.7354 H   0  0  0  0  0  0  0  0  0  0  0  0
   -2.6918   -1.3730   -0.1093 H   0  0  0  0  0  0  0  0  0  0  0  0
   -1.3395   -1.7795   -1.1752 H   0  0  0  0  0  0  0  0  0  0  0  0
   -3.6524   -8.2866    4.4895 H   0  0  0  0  0  0  0  0  0  0  0  0
   -7.1540   -3.3970    6.6155 H   0  0  0  0  0  0  0  0  0  0  0  0
   -5.8298   -2.8550    5.5370 H   0  0  0  0  0  0  0  0  0  0  0  0
   -5.5634   -3.4595    8.5289 H   0  0  0  0  0  0  0  0  0  0  0  0
   -5.6001   -1.8480    7.8074 H   0  0  0  0  0  0  0  0  0  0  0  0
   -4.2475   -2.9333    7.4649 H   0  0  0  0  0  0  0  0  0  0  0  0
  1  2  2  0  0  0  0
  2  3  1  0  0  0  0
  3  4  2  0  0  0  0
  3  5  1  0  0  0  0
  5  6  2  0  0  0  0
  6  7  1  0  0  0  0
  7  8  2  0  0  0  0
  8  9  1  0  0  0  0
  9 10  2  0  0  0  0
 10 11  1  0  0  0  0
 11 12  2  0  0  0  0
 12 13  1  0  0  0  0
 13 14  3  0  0  0  0
 12 15  1  0  0  0  0
 15 16  3  0  0  0  0
  8 17  1  0  0  0  0
 17 18  1  0  0  0  0
 18 19  1  0  0  0  0
 19 20  2  0  0  0  0
 20 21  1  0  0  0  0
 21 22  1  0  0  0  0
 21 23  1  0  0  0  0
  1 24  1  0  0  0  0
 24 25  2  0  0  0  0
 25 26  1  0  0  0  0
 26 27  1  0  0  0  0
 25 28  1  0  0  0  0
 28 29  1  0  0  0  0
 29 30  1  0  0  0  0
 30 31  1  0  0  0  0
 31 32  1  0  0  0  0
 32 33  1  0  0  0  0
 33 34  2  0  0  0  0
 34 35  1  0  0  0  0
 35 36  1  0  0  0  0
 33 37  1  0  0  0  0
 37 38  1  0  0  0  0
 38 39  1  0  0  0  0
 39 40  1  0  0  0  0
 40 41  1  0  0  0  0
 41 42  1  0  0  0  0
 42 43  1  0  0  0  0
 41 44  2  0  0  0  0
 44 45  1  0  0  0  0
 45 46  1  0  0  0  0
 46 47  1  0  0  0  0
 47 48  1  0  0  0  0
 48 49  1  0  0  0  0
 49 50  1  0  0  0  0
 50 51  1  0  0  0  0
 51 52  1  0  0  0  0
 52 53  1  0  0  0  0
 53 54  1  0  0  0  0
 51 55  1  0  0  0  0
 55 56  1  0  0  0  0
 48 57  1  0  0  0  0
 57 58  1  0  0  0  0
 44 59  1  0  0  0  0
 59 60  2  0  0  0  0
 60 61  1  0  0  0  0
 61 62  1  0  0  0  0
 62 63  2  0  0  0  0
 62 64  1  0  0  0  0
 64 65  1  0  0  0  0
 65 66  1  0  0  0  0
 64 67  1  0  0  0  0
 67 68  2  0  0  0  0
 11  2  1  0  0  0  0
 23 17  1  0  0  0  0
 54 24  1  0  0  0  0
 67 60  1  0  0  0  0
 10  5  1  0  0  0  0
 22 18  1  0  0  0  0
 53 28  2  0  0  0  0
 23  7  1  0  0  0  0
 52 30  2  0  0  0  0
 50 31  2  0  0  0  0
 36 32  2  0  0  0  0
 49 37  2  0  0  0  0
 47 38  2  0  0  0  0
 46 40  2  0  0  0  0
  1 69  1  0  0  0  0
  6 70  1  0  0  0  0
  9 71  1  0  0  0  0
 17 72  1  0  0  0  0
 18 73  1  0  0  0  0
 19 74  1  0  0  0  0
 20 75  1  0  0  0  0
 21 76  1  0  0  0  0
 22 77  1  0  0  0  0
 22 78  1  0  0  0  0
 23 79  1  0  0  0  0
 26 80  1  0  0  0  0
 26 81  1  0  0  0  0
 27 82  1  0  0  0  0
 27 83  1  0  0  0  0
 27 84  1  0  0  0  0
 42 85  1  0  0  0  0
 42 86  1  0  0  0  0
 43 87  1  0  0  0  0
 43 88  1  0  0  0  0
 43 89  1  0  0  0  0
 55 90  1  0  0  0  0
 55 91  1  0  0  0  0
 56 92  1  0  0  0  0
 56 93  1  0  0  0  0
 56 94  1  0  0  0  0
 57 95  1  0  0  0  0
 57 96  1  0  0  0  0
 58 97  1  0  0  0  0
 58 98  1  0  0  0  0
 58 99  1  0  0  0  0
 59100  1  0  0  0  0
 65101  1  0  0  0  0
 65102  1  0  0  0  0
 66103  1  0  0  0  0
 66104  1  0  0  0  0
 66105  1  0  0  0  0
M  END
