101

C          4.88700       -4.34530       -0.15560
C          5.90400       -3.64830       -0.75380
C          5.94580       -2.23240       -1.17840
O          5.11500       -1.35810       -1.01170
C          7.23490       -2.04980       -1.86740
C          7.69480       -0.88040       -2.46940
C          8.93430       -0.99940       -3.04890
C          9.65990       -2.19840       -3.03760
C          9.21730       -3.35800       -2.44790
C          7.96110       -3.25540       -1.84240
C          7.17670       -4.25390       -1.11990
C          7.61060       -5.52130       -0.82660
C          6.91360       -6.51020       -0.09890
N          6.44300       -7.38130        0.48460
C          8.87060       -6.03920       -1.19610
N          9.87230       -6.53830       -1.45360
C         10.81560       -1.59930       -3.79870
C         12.08870       -1.22800       -2.99900
C         11.64120       -0.95230       -1.58500
C         10.95620        0.18330       -1.59130
C         10.92790        0.69620       -3.01000
C         12.30060        0.20920       -3.50110
C         10.00920       -0.26240       -3.80790
C          3.59440       -3.97390        0.26030
Se         2.52670       -5.35810        1.06770
C          1.22300       -4.06810        1.22490
C         -0.08160       -3.90250        1.71320
C         -0.93760       -4.75260        2.44820
C         -2.18630       -4.23860        2.94230
N         -2.83710       -5.12610        3.67720
S         -1.96530       -6.48830        3.73730
N         -0.71700       -6.00020        2.82830
C         -2.59620       -2.94240        2.54860
C         -3.78940       -2.22460        2.71800
S         -5.29800       -2.37660        3.54910
C         -5.80480       -0.85190        2.84550
C         -6.97760       -0.11920        2.94960
C         -8.11780       -0.53790        3.81850
C         -8.03140        0.13490        5.19140
C         -6.91200        1.06280        2.18690
S         -5.37000        1.22560        1.34030
C         -4.83520       -0.26810        2.00980
C         -3.68540       -1.05670        1.94590
N         -2.46260       -1.01230        1.32400
C         -1.77080       -2.14330        1.70830
C         -0.45050       -2.56110        1.43590
N          0.61900       -1.90090        0.86610
C          1.63630       -2.81770        0.71790
C          2.92380       -2.76190        0.19540
C          0.91140       -0.48570        0.98850
C          1.92840       -0.22110        2.09880
C         -2.29660       -0.26760        0.09130
C         -3.27010       -0.75380       -0.98160
C         -7.96020        1.98330        2.12850
C         -8.07830        3.17960        1.45930
C         -7.07050        3.78800        0.59160
O         -5.96500        3.35840        0.31060
C         -7.66160        5.05040        0.10210
C         -7.10700        5.98420       -0.74840
C         -7.88540        7.09120       -1.05220
F         -7.38860        8.02890       -1.87670
C         -9.15990        7.26710       -0.53570
C         -9.70430        6.31880        0.31820
C         -8.95110        5.19960        0.64140
C         -9.23900        4.04610        1.49510
C        -10.40610        3.85360        2.19010
C        -11.49630        4.74890        2.17100
N        -12.41990        5.43010        2.20280
C        -10.70290        2.75390        3.02170
N        -11.02370        1.89630        3.71640
H          5.09500       -5.39300        0.03370
H          7.09790        0.01830       -2.45980
H          9.78910       -4.27030       -2.45450
H         11.04690       -2.06190       -4.75600
H         12.91330       -1.92620       -3.11390
H         11.81430       -1.62020       -0.76160
H         10.44220        0.65420       -0.77380
H         10.69700        1.75090       -3.13480
H         12.42470        0.27760       -4.58100
H         13.12850        0.71150       -3.00310
H          9.71660        0.15030       -4.77160
H         -9.07560       -0.29490        3.35640
H         -8.06620       -1.62060        3.94940
H         -8.08080        1.21680        5.09440
H         -8.85970       -0.19230        5.81280
H         -7.09820       -0.12860        5.68360
H          3.37780       -1.88830       -0.23810
H         -0.00690        0.04480        1.23540
H          1.30090       -0.11990        0.03350
H          1.56600       -0.62120        3.04350
H          2.07330        0.85020        2.20680
H          2.88640       -0.67900        1.87080
H         -2.47400        0.79210        0.29850
H         -1.28260       -0.40600       -0.27790
H         -3.08560       -0.21500       -1.90650
H         -3.13130       -1.81780       -1.16210
H         -4.29960       -0.57910       -0.68280
H         -8.81730        1.68980        2.71870
H         -6.11700        5.86000       -1.15730
H         -9.71990        8.14820       -0.80660
H        -10.69590        6.46770        0.71180
