
  xtb     02112207413D
 energy: -193.704015668029 gnorm: 0.000341314746 xtb: 6.4.1 (unknown)
107121  0     0  0            999 V2000
    0.1478    4.1769    3.6703 C   0  0  0  0  0  0  0  0  0  0  0  0
    1.3243    4.6376    4.1760 C   0  0  0  0  0  0  0  0  0  0  0  0
    2.5859    3.8544    4.1699 C   0  0  0  0  0  0  0  0  0  0  0  0
    2.7221    2.6723    3.9393 O   0  0  0  0  0  0  0  0  0  0  0  0
    3.6614    4.8457    4.3571 C   0  0  0  0  0  0  0  0  0  0  0  0
    5.0326    4.6017    4.3229 C   0  0  0  0  0  0  0  0  0  0  0  0
    5.8060    5.7267    4.4781 C   0  0  0  0  0  0  0  0  0  0  0  0
    5.2582    7.0060    4.6474 C   0  0  0  0  0  0  0  0  0  0  0  0
    3.9083    7.2625    4.6800 C   0  0  0  0  0  0  0  0  0  0  0  0
    3.1035    6.1296    4.5291 C   0  0  0  0  0  0  0  0  0  0  0  0
    1.6508    6.0151    4.4840 C   0  0  0  0  0  0  0  0  0  0  0  0
    0.7433    7.0028    4.7621 C   0  0  0  0  0  0  0  0  0  0  0  0
    1.0850    8.3298    5.0929 C   0  0  0  0  0  0  0  0  0  0  0  0
    1.3023    9.4246    5.3621 N   0  0  0  0  0  0  0  0  0  0  0  0
   -0.6524    6.7976    4.7947 C   0  0  0  0  0  0  0  0  0  0  0  0
   -1.7935    6.6867    4.8584 N   0  0  0  0  0  0  0  0  0  0  0  0
    6.6133    7.6626    4.7248 C   0  0  0  0  0  0  0  0  0  0  0  0
    7.1360    8.0795    6.1215 C   0  0  0  0  0  0  0  0  0  0  0  0
    6.4752    7.1604    7.1188 C   0  0  0  0  0  0  0  0  0  0  0  0
    6.9944    5.9503    6.9604 C   0  0  0  0  0  0  0  0  0  0  0  0
    8.0156    6.0289    5.8525 C   0  0  0  0  0  0  0  0  0  0  0  0
    8.5406    7.4572    6.0686 C   0  0  0  0  0  0  0  0  0  0  0  0
    7.2235    6.2376    4.5382 C   0  0  0  0  0  0  0  0  0  0  0  0
   -0.1800    2.8114    3.4477 C   0  0  0  0  0  0  0  0  0  0  0  0
   -0.0566    1.7007    4.2632 C   0  0  0  0  0  0  0  0  0  0  0  0
    0.3758    1.7344    5.6949 C   0  0  0  0  0  0  0  0  0  0  0  0
    1.5298    0.7773    5.9850 C   0  0  0  0  0  0  0  0  0  0  0  0
   -0.5514    0.5460    3.6322 C   0  0  0  0  0  0  0  0  0  0  0  0
   -0.7031   -1.2629    4.1724 Se  0  0  0  0  0  2  0  0  0  0  0  0
   -1.4039   -1.5488    2.4754 C   0  0  0  0  0  0  0  0  0  0  0  0
   -1.9143   -2.5996    1.7038 C   0  0  0  0  0  0  0  0  0  0  0  0
   -2.1944   -3.9360    2.0596 C   0  0  0  0  0  0  0  0  0  0  0  0
   -2.8307   -4.7833    1.0988 C   0  0  0  0  0  0  0  0  0  0  0  0
   -3.0864   -5.9915    1.5739 N   0  0  0  0  0  0  0  0  0  0  0  0
   -2.5660   -6.0547    3.1087 S   0  0  0  0  0  0  0  0  0  0  0  0
   -1.9942   -4.5413    3.2193 N   0  0  0  0  0  0  0  0  0  0  0  0
   -3.0355   -4.2910   -0.2079 C   0  0  0  0  0  0  0  0  0  0  0  0
   -3.4525   -4.9616   -1.3626 C   0  0  0  0  0  0  0  0  0  0  0  0
   -4.0299   -6.6567   -1.8659 Se  0  0  0  0  0  2  0  0  0  0  0  0
   -3.9888   -5.9504   -3.6297 C   0  0  0  0  0  0  0  0  0  0  0  0
   -4.2338   -6.5144   -4.8734 C   0  0  0  0  0  0  0  0  0  0  0  0
   -4.7050   -7.9222   -5.0378 C   0  0  0  0  0  0  0  0  0  0  0  0
   -6.2279   -7.9754   -5.1787 C   0  0  0  0  0  0  0  0  0  0  0  0
   -4.0256   -5.5913   -5.9142 C   0  0  0  0  0  0  0  0  0  0  0  0
   -3.5245   -4.0157   -5.3019 S   0  0  0  0  0  0  0  0  0  0  0  0
   -3.5929   -4.6010   -3.6833 C   0  0  0  0  0  0  0  0  0  0  0  0
   -3.3093   -4.0600   -2.4250 C   0  0  0  0  0  0  0  0  0  0  0  0
   -2.8633   -2.8501   -1.9555 N   0  0  0  0  0  0  0  0  0  0  0  0
   -2.6819   -2.9642   -0.5889 C   0  0  0  0  0  0  0  0  0  0  0  0
   -2.2331   -2.0696    0.4215 C   0  0  0  0  0  0  0  0  0  0  0  0
   -1.9831   -0.7105    0.4520 N   0  0  0  0  0  0  0  0  0  0  0  0
   -1.4730   -0.3974    1.6841 C   0  0  0  0  0  0  0  0  0  0  0  0
   -1.0342    0.7634    2.3355 C   0  0  0  0  0  0  0  0  0  0  0  0
   -0.9600    2.4343    1.9167 S   0  0  0  0  0  0  0  0  0  0  0  0
   -2.4152    0.3431   -0.4373 C   0  0  0  0  0  0  0  0  0  0  0  0
   -1.2554    0.9478   -1.2283 C   0  0  0  0  0  0  0  0  0  0  0  0
   -2.2590   -1.9348   -2.8985 C   0  0  0  0  0  0  0  0  0  0  0  0
   -0.7859   -2.2752   -3.1149 C   0  0  0  0  0  0  0  0  0  0  0  0
   -4.1824   -5.9101   -7.2644 C   0  0  0  0  0  0  0  0  0  0  0  0
   -4.0044   -5.1568   -8.4006 C   0  0  0  0  0  0  0  0  0  0  0  0
   -3.5850   -3.7471   -8.4606 C   0  0  0  0  0  0  0  0  0  0  0  0
   -3.3320   -2.9966   -7.5347 O   0  0  0  0  0  0  0  0  0  0  0  0
   -3.5328   -3.4414   -9.8879 C   0  0  0  0  0  0  0  0  0  0  0  0
   -3.1461   -2.0750  -10.8404 S   0  0  0  0  0  0  0  0  0  0  0  0
   -3.4642   -3.0100  -12.2728 C   0  0  0  0  0  0  0  0  0  0  0  0
   -3.2692   -2.2194  -13.9598 Br  0  0  0  0  0  0  0  0  0  0  0  0
   -3.8468   -4.3011  -12.0312 C   0  0  0  0  0  0  0  0  0  0  0  0
   -3.8848   -4.5469  -10.6476 C   0  0  0  0  0  0  0  0  0  0  0  0
   -4.1913   -5.6502   -9.7510 C   0  0  0  0  0  0  0  0  0  0  0  0
   -4.5746   -6.8984  -10.1713 C   0  0  0  0  0  0  0  0  0  0  0  0
   -4.8831   -7.9942   -9.3424 C   0  0  0  0  0  0  0  0  0  0  0  0
   -5.1480   -8.9275   -8.7264 N   0  0  0  0  0  0  0  0  0  0  0  0
   -4.6994   -7.2101  -11.5414 C   0  0  0  0  0  0  0  0  0  0  0  0
   -4.8054   -7.4855  -12.6503 N   0  0  0  0  0  0  0  0  0  0  0  0
   -0.5854    4.8949    3.3190 H   0  0  0  0  0  0  0  0  0  0  0  0
    5.4143    3.6027    4.1801 H   0  0  0  0  0  0  0  0  0  0  0  0
    3.4984    8.2523    4.7955 H   0  0  0  0  0  0  0  0  0  0  0  0
    6.8231    8.4110    3.9632 H   0  0  0  0  0  0  0  0  0  0  0  0
    7.0663    9.1436    6.3300 H   0  0  0  0  0  0  0  0  0  0  0  0
    5.6822    7.4631    7.7772 H   0  0  0  0  0  0  0  0  0  0  0  0
    6.7222    5.0391    7.4602 H   0  0  0  0  0  0  0  0  0  0  0  0
    8.7477    5.2264    5.8157 H   0  0  0  0  0  0  0  0  0  0  0  0
    9.0861    7.5683    7.0043 H   0  0  0  0  0  0  0  0  0  0  0  0
    9.1476    7.8260    5.2428 H   0  0  0  0  0  0  0  0  0  0  0  0
    7.8316    6.0555    3.6540 H   0  0  0  0  0  0  0  0  0  0  0  0
    0.6611    2.7517    5.9657 H   0  0  0  0  0  0  0  0  0  0  0  0
   -0.4867    1.4480    6.3070 H   0  0  0  0  0  0  0  0  0  0  0  0
    2.3752    1.0107    5.3447 H   0  0  0  0  0  0  0  0  0  0  0  0
    1.2286   -0.2551    5.8054 H   0  0  0  0  0  0  0  0  0  0  0  0
    1.8342    0.8712    7.0244 H   0  0  0  0  0  0  0  0  0  0  0  0
   -4.4102   -8.4814   -4.1441 H   0  0  0  0  0  0  0  0  0  0  0  0
   -4.2422   -8.3954   -5.9052 H   0  0  0  0  0  0  0  0  0  0  0  0
   -6.5534   -7.4235   -6.0573 H   0  0  0  0  0  0  0  0  0  0  0  0
   -6.5526   -9.0068   -5.2813 H   0  0  0  0  0  0  0  0  0  0  0  0
   -6.7022   -7.5433   -4.3002 H   0  0  0  0  0  0  0  0  0  0  0  0
   -2.8616    1.1308    0.1802 H   0  0  0  0  0  0  0  0  0  0  0  0
   -3.2027   -0.0444   -1.0858 H   0  0  0  0  0  0  0  0  0  0  0  0
   -1.6374    1.6634   -1.9511 H   0  0  0  0  0  0  0  0  0  0  0  0
   -0.5804    1.4696   -0.5560 H   0  0  0  0  0  0  0  0  0  0  0  0
   -0.6855    0.1852   -1.7511 H   0  0  0  0  0  0  0  0  0  0  0  0
   -2.3651   -0.9080   -2.5679 H   0  0  0  0  0  0  0  0  0  0  0  0
   -2.8008   -2.0415   -3.8414 H   0  0  0  0  0  0  0  0  0  0  0  0
   -0.3487   -1.5859   -3.8317 H   0  0  0  0  0  0  0  0  0  0  0  0
   -0.6872   -3.2855   -3.5043 H   0  0  0  0  0  0  0  0  0  0  0  0
   -0.2351   -2.2127   -2.1779 H   0  0  0  0  0  0  0  0  0  0  0  0
   -4.4905   -6.9338   -7.4298 H   0  0  0  0  0  0  0  0  0  0  0  0
   -4.0792   -5.0071  -12.8067 H   0  0  0  0  0  0  0  0  0  0  0  0
  1  2  2  0  0  0  0
  2  3  1  0  0  0  0
  3  4  2  0  0  0  0
  3  5  1  0  0  0  0
  5  6  2  0  0  0  0
  6  7  1  0  0  0  0
  7  8  2  0  0  0  0
  8  9  1  0  0  0  0
  9 10  2  0  0  0  0
 10 11  1  0  0  0  0
 11 12  2  0  0  0  0
 12 13  1  0  0  0  0
 13 14  3  0  0  0  0
 12 15  1  0  0  0  0
 15 16  3  0  0  0  0
  8 17  1  0  0  0  0
 17 18  1  0  0  0  0
 18 19  1  0  0  0  0
 19 20  2  0  0  0  0
 20 21  1  0  0  0  0
 21 22  1  0  0  0  0
 21 23  1  0  0  0  0
  1 24  1  0  0  0  0
 24 25  2  0  0  0  0
 25 26  1  0  0  0  0
 26 27  1  0  0  0  0
 25 28  1  0  0  0  0
 28 29  1  0  0  0  0
 29 30  1  0  0  0  0
 30 31  1  0  0  0  0
 31 32  1  0  0  0  0
 32 33  1  0  0  0  0
 33 34  2  0  0  0  0
 34 35  1  0  0  0  0
 35 36  1  0  0  0  0
 33 37  1  0  0  0  0
 37 38  1  0  0  0  0
 38 39  1  0  0  0  0
 39 40  1  0  0  0  0
 40 41  1  0  0  0  0
 41 42  1  0  0  0  0
 42 43  1  0  0  0  0
 41 44  2  0  0  0  0
 44 45  1  0  0  0  0
 45 46  1  0  0  0  0
 46 47  1  0  0  0  0
 47 48  1  0  0  0  0
 48 49  1  0  0  0  0
 49 50  1  0  0  0  0
 50 51  1  0  0  0  0
 51 52  1  0  0  0  0
 52 53  1  0  0  0  0
 53 54  1  0  0  0  0
 51 55  1  0  0  0  0
 55 56  1  0  0  0  0
 48 57  1  0  0  0  0
 57 58  1  0  0  0  0
 44 59  1  0  0  0  0
 59 60  2  0  0  0  0
 60 61  1  0  0  0  0
 61 62  2  0  0  0  0
 61 63  1  0  0  0  0
 63 64  1  0  0  0  0
 64 65  1  0  0  0  0
 65 66  1  0  0  0  0
 65 67  2  0  0  0  0
 67 68  1  0  0  0  0
 68 69  1  0  0  0  0
 69 70  2  0  0  0  0
 70 71  1  0  0  0  0
 71 72  3  0  0  0  0
 70 73  1  0  0  0  0
 73 74  3  0  0  0  0
 11  2  1  0  0  0  0
 23 17  1  0  0  0  0
 54 24  1  0  0  0  0
 69 60  1  0  0  0  0
 10  5  1  0  0  0  0
 22 18  1  0  0  0  0
 53 28  2  0  0  0  0
 68 63  2  0  0  0  0
 23  7  1  0  0  0  0
 52 30  2  0  0  0  0
 50 31  2  0  0  0  0
 36 32  2  0  0  0  0
 49 37  2  0  0  0  0
 47 38  2  0  0  0  0
 46 40  2  0  0  0  0
  1 75  1  0  0  0  0
  6 76  1  0  0  0  0
  9 77  1  0  0  0  0
 17 78  1  0  0  0  0
 18 79  1  0  0  0  0
 19 80  1  0  0  0  0
 20 81  1  0  0  0  0
 21 82  1  0  0  0  0
 22 83  1  0  0  0  0
 22 84  1  0  0  0  0
 23 85  1  0  0  0  0
 26 86  1  0  0  0  0
 26 87  1  0  0  0  0
 27 88  1  0  0  0  0
 27 89  1  0  0  0  0
 27 90  1  0  0  0  0
 42 91  1  0  0  0  0
 42 92  1  0  0  0  0
 43 93  1  0  0  0  0
 43 94  1  0  0  0  0
 43 95  1  0  0  0  0
 55 96  1  0  0  0  0
 55 97  1  0  0  0  0
 56 98  1  0  0  0  0
 56 99  1  0  0  0  0
 56100  1  0  0  0  0
 57101  1  0  0  0  0
 57102  1  0  0  0  0
 58103  1  0  0  0  0
 58104  1  0  0  0  0
 58105  1  0  0  0  0
 59106  1  0  0  0  0
 67107  1  0  0  0  0
M  END
