108

C         -2.96900       -4.60820       -2.77160
C         -2.98440       -4.52550       -4.13380
C         -3.88230       -5.43600       -4.89660
O         -4.49590       -6.38100       -4.45340
C         -3.89930       -4.91380       -6.27700
C         -4.66880       -5.36910       -7.34490
C         -4.48090       -4.66620       -8.51120
C         -3.60610       -3.57570       -8.60700
C         -2.83640       -3.11870       -7.56400
C         -2.99750       -3.83430       -6.37540
C         -2.31620       -3.67760       -5.09140
C         -1.11960       -3.02760       -4.91550
C         -0.47370       -2.26110       -5.90530
N          0.09200       -1.59690       -6.65230
C         -0.34430       -3.10420       -3.74580
N          0.35820       -3.14000       -2.83730
C         -3.92240       -3.34610      -10.06320
C         -2.87830       -3.81590      -11.10570
C         -2.11320       -4.94690      -10.46400
C         -2.93010       -5.98790      -10.37440
C         -4.26200       -5.57990      -10.95410
C         -3.79380       -4.61000      -12.05090
C         -4.88750       -4.56920       -9.96040
C         -2.48210       -3.72500       -1.78320
S         -2.00700       -4.47350       -0.25360
C         -1.52350       -2.95040        0.34350
C         -0.91990       -2.39410        1.48540
C         -0.31330       -2.95390        2.63350
C          0.42990       -2.09740        3.52320
N          1.01320       -2.77360        4.49980
S          0.65740       -4.34250        4.32650
N         -0.25590       -4.22480        2.99700
C          0.40720       -0.69900        3.31430
C          0.93430        0.39720        4.01850
S          1.99750        0.71600        5.34360
C          1.80700        2.43280        5.06710
C          2.42340        3.56300        5.62430
C          3.34340        3.51530        6.80090
C          2.73180        2.75210        7.97560
C          1.99850        4.72490        4.99270
S          0.77920        4.41340        3.76030
C          0.92700        2.71930        4.01590
C          0.44220        1.55900        3.40810
N         -0.34830        1.22890        2.33740
C         -0.34140       -0.14820        2.24040
C         -0.85740       -1.00170        1.24570
N         -1.34660       -0.70800       -0.02090
C         -1.76280       -1.91170       -0.56980
C         -2.33530       -2.33820       -1.77820
C         -2.91450       -1.43340       -2.82050
C         -3.97270       -0.51080       -2.21020
C         -0.69360        0.28610       -0.86050
C          0.67490       -0.20410       -1.32910
C         -1.39530        2.11460        1.87270
C         -2.34540        2.48950        3.00990
C          2.37090        6.07740        5.18110
C          3.57280        6.60430        5.54200
C          3.63420        8.01620        6.02610
O          2.73700        8.82320        5.97130
C          4.98320        8.16210        6.60130
C          5.54240        9.24080        7.28400
O          4.82450       10.35710        7.47720
C          6.85550        9.10370        7.74730
C          7.56760        7.93760        7.54200
C          7.01690        6.86190        6.85620
C          5.72390        6.98520        6.38100
C          4.90650        6.05710        5.59860
C          5.39420        5.00900        4.86020
C          4.64660        4.30660        3.89430
N          4.11140        3.73160        3.05690
C          6.73250        4.56820        4.89740
N          7.80090        4.14790        4.90030
H         -3.43200       -5.51290       -2.38480
H         -5.33850       -6.20660       -7.22810
H         -2.17020       -2.27600       -7.64800
H         -4.35240       -2.37770      -10.31160
H         -2.28150       -3.01750      -11.53840
H         -1.10640       -4.85750      -10.10010
H         -2.74200       -6.94310       -9.92030
H         -4.92430       -6.38890      -11.25080
H         -4.60000       -4.01400      -12.47670
H         -3.24470       -5.10900      -12.84790
H         -5.94610       -4.40250      -10.15100
H          3.57890        4.53140        7.12180
H          4.27730        3.02660        6.50290
H          1.78620        3.20360        8.26750
H          3.40860        2.78630        8.82550
H          2.55680        1.71160        7.71790
H         -2.12420       -0.84080       -3.29230
H         -3.39130       -2.03000       -3.59800
H         -4.36360        0.16130       -2.97040
H         -4.79600       -1.10350       -1.81780
H         -3.56550        0.08290       -1.39620
H         -0.56030        1.20900       -0.29940
H         -1.33670        0.48900       -1.71710
H          1.33920       -0.33120       -0.47710
H          1.11390        0.52310       -2.00670
H          0.59210       -1.15880       -1.84430
H         -0.93800        3.01950        1.45960
H         -1.96850        1.60390        1.09950
H         -1.82570        3.04720        3.78370
H         -3.15010        3.10770        2.62190
H         -2.77480        1.59290        3.45180
H          1.58240        6.81010        5.02990
H          5.33980       11.02070        7.95370
H          7.31430        9.92860        8.27620
H          8.57550        7.86180        7.92070
H          7.58920        5.96090        6.71310
