
  xtb     02022216263D
 energy: -177.446421148079 gnorm: 0.000451041022 xtb: 6.4.1 (unknown)
 95109  0     0  0            999 V2000
   -1.3671    1.6030   -4.7032 C   0  0  0  0  0  0  0  0  0  0  0  0
   -2.3810    2.1180   -5.4623 C   0  0  0  0  0  0  0  0  0  0  0  0
   -3.8267    2.2007   -5.1481 C   0  0  0  0  0  0  0  0  0  0  0  0
   -4.4536    1.6166   -4.2877 O   0  0  0  0  0  0  0  0  0  0  0  0
   -4.3876    3.1747   -6.1026 C   0  0  0  0  0  0  0  0  0  0  0  0
   -5.6930    3.6601   -6.1218 C   0  0  0  0  0  0  0  0  0  0  0  0
   -5.9308    4.5844   -7.1100 C   0  0  0  0  0  0  0  0  0  0  0  0
   -4.9415    5.0000   -8.0120 C   0  0  0  0  0  0  0  0  0  0  0  0
   -3.6514    4.5259   -8.0065 C   0  0  0  0  0  0  0  0  0  0  0  0
   -3.3905    3.5791   -7.0115 C   0  0  0  0  0  0  0  0  0  0  0  0
   -2.1592    2.8651   -6.6907 C   0  0  0  0  0  0  0  0  0  0  0  0
   -1.0282    2.8466   -7.4648 C   0  0  0  0  0  0  0  0  0  0  0  0
   -0.8788    3.5628   -8.6712 C   0  0  0  0  0  0  0  0  0  0  0  0
   -0.6837    4.1174   -9.6574 N   0  0  0  0  0  0  0  0  0  0  0  0
    0.1275    2.0775   -7.2103 C   0  0  0  0  0  0  0  0  0  0  0  0
    1.0954    1.4711   -7.0867 N   0  0  0  0  0  0  0  0  0  0  0  0
   -5.8755    5.9469   -8.7228 C   0  0  0  0  0  0  0  0  0  0  0  0
   -6.4467    5.5037  -10.0922 C   0  0  0  0  0  0  0  0  0  0  0  0
   -6.4532    3.9951  -10.0856 C   0  0  0  0  0  0  0  0  0  0  0  0
   -7.3894    3.5981   -9.2341 C   0  0  0  0  0  0  0  0  0  0  0  0
   -8.0332    4.8311   -8.6497 C   0  0  0  0  0  0  0  0  0  0  0  0
   -7.9394    5.7823   -9.8534 C   0  0  0  0  0  0  0  0  0  0  0  0
   -6.9782    5.4809   -7.7204 C   0  0  0  0  0  0  0  0  0  0  0  0
   -1.3810    0.8798   -3.4941 C   0  0  0  0  0  0  0  0  0  0  0  0
   -2.4070    0.2898   -2.7790 C   0  0  0  0  0  0  0  0  0  0  0  0
   -2.0026   -0.3293   -1.6015 C   0  0  0  0  0  0  0  0  0  0  0  0
   -2.9379   -1.1606   -0.3779 S   0  0  0  0  0  0  0  0  0  0  0  0
   -1.4915   -1.4102    0.5322 C   0  0  0  0  0  0  0  0  0  0  0  0
   -1.0894   -1.9437    1.7686 C   0  0  0  0  0  0  0  0  0  0  0  0
   -1.8090   -2.4415    2.8797 C   0  0  0  0  0  0  0  0  0  0  0  0
   -1.1036   -2.7253    4.1021 C   0  0  0  0  0  0  0  0  0  0  0  0
   -1.9176   -3.0988    5.0764 N   0  0  0  0  0  0  0  0  0  0  0  0
   -3.4330   -3.1053    4.5102 S   0  0  0  0  0  0  0  0  0  0  0  0
   -3.1139   -2.6261    2.9987 N   0  0  0  0  0  0  0  0  0  0  0  0
    0.3080   -2.6458    4.1176 C   0  0  0  0  0  0  0  0  0  0  0  0
    1.2761   -2.9481    5.0905 C   0  0  0  0  0  0  0  0  0  0  0  0
    2.5318   -2.8243    4.4779 C   0  0  0  0  0  0  0  0  0  0  0  0
    2.3807   -2.4373    3.1677 N   0  0  0  0  0  0  0  0  0  0  0  0
    3.3816   -2.7957    2.1830 C   0  0  0  0  0  0  0  0  0  0  0  0
    3.6182   -4.3052    2.1550 C   0  0  0  0  0  0  0  0  0  0  0  0
    1.0247   -2.2841    2.9457 C   0  0  0  0  0  0  0  0  0  0  0  0
    0.3196   -1.7757    1.8348 C   0  0  0  0  0  0  0  0  0  0  0  0
    0.7584   -1.1126    0.7033 N   0  0  0  0  0  0  0  0  0  0  0  0
   -0.3445   -0.8935   -0.0865 C   0  0  0  0  0  0  0  0  0  0  0  0
   -0.6258   -0.2707   -1.3049 C   0  0  0  0  0  0  0  0  0  0  0  0
    0.3111    0.6213   -2.6406 Se  0  0  0  0  0  2  0  0  0  0  0  0
    1.8935   -0.2182    0.6010 C   0  0  0  0  0  0  0  0  0  0  0  0
    1.4992    1.2170    0.9474 C   0  0  0  0  0  0  0  0  0  0  0  0
    3.5850   -3.0988    5.3527 C   0  0  0  0  0  0  0  0  0  0  0  0
    3.1078   -3.4177    6.6413 C   0  0  0  0  0  0  0  0  0  0  0  0
    1.3612   -3.4004    6.7546 S   0  0  0  0  0  0  0  0  0  0  0  0
    4.0700   -3.6778    7.6089 C   0  0  0  0  0  0  0  0  0  0  0  0
    5.3744   -3.5830    7.1565 C   0  0  0  0  0  0  0  0  0  0  0  0
    5.4433   -3.1236    5.2995 Se  0  0  0  0  0  2  0  0  0  0  0  0
    6.6154   -3.7481    7.8002 C   0  0  0  0  0  0  0  0  0  0  0  0
    6.9515   -4.0322    9.0953 C   0  0  0  0  0  0  0  0  0  0  0  0
    6.0692   -4.2566   10.2744 C   0  0  0  0  0  0  0  0  0  0  0  0
    4.8569   -4.2444   10.3271 O   0  0  0  0  0  0  0  0  0  0  0  0
    6.9846   -4.5012   11.3979 C   0  0  0  0  0  0  0  0  0  0  0  0
    6.8928   -4.7791   12.7717 C   0  0  0  0  0  0  0  0  0  0  0  0
    8.1323   -4.9163   13.3238 C   0  0  0  0  0  0  0  0  0  0  0  0
    9.4264   -4.7121   12.1984 S   0  0  0  0  0  0  0  0  0  0  0  0
    8.2919   -4.4339   10.9436 C   0  0  0  0  0  0  0  0  0  0  0  0
    8.3389   -4.1492    9.5361 C   0  0  0  0  0  0  0  0  0  0  0  0
    9.5021   -4.0259    8.8167 C   0  0  0  0  0  0  0  0  0  0  0  0
    9.6225   -3.7549    7.4411 C   0  0  0  0  0  0  0  0  0  0  0  0
    9.8026   -3.5348    6.3275 N   0  0  0  0  0  0  0  0  0  0  0  0
   10.7527   -4.1732    9.4538 C   0  0  0  0  0  0  0  0  0  0  0  0
   11.7747   -4.2932    9.9616 N   0  0  0  0  0  0  0  0  0  0  0  0
   -0.3625    1.8189   -5.0554 H   0  0  0  0  0  0  0  0  0  0  0  0
   -6.4216    3.3179   -5.4035 H   0  0  0  0  0  0  0  0  0  0  0  0
   -2.8994    4.8617   -8.7009 H   0  0  0  0  0  0  0  0  0  0  0  0
   -5.5879    6.9964   -8.7127 H   0  0  0  0  0  0  0  0  0  0  0  0
   -5.9791    5.9780  -10.9508 H   0  0  0  0  0  0  0  0  0  0  0  0
   -5.7588    3.3915  -10.6400 H   0  0  0  0  0  0  0  0  0  0  0  0
   -7.6339    2.5958   -8.9347 H   0  0  0  0  0  0  0  0  0  0  0  0
   -9.0108    4.6931   -8.1952 H   0  0  0  0  0  0  0  0  0  0  0  0
   -8.5650    5.4686  -10.6875 H   0  0  0  0  0  0  0  0  0  0  0  0
   -8.1526    6.8208   -9.6035 H   0  0  0  0  0  0  0  0  0  0  0  0
   -7.4127    6.2266   -7.0573 H   0  0  0  0  0  0  0  0  0  0  0  0
   -3.4300    0.3280   -3.1095 H   0  0  0  0  0  0  0  0  0  0  0  0
    3.0406   -2.4862    1.1965 H   0  0  0  0  0  0  0  0  0  0  0  0
    4.3164   -2.2788    2.4314 H   0  0  0  0  0  0  0  0  0  0  0  0
    2.6861   -4.8284    1.9526 H   0  0  0  0  0  0  0  0  0  0  0  0
    4.3318   -4.5452    1.3719 H   0  0  0  0  0  0  0  0  0  0  0  0
    4.0174   -4.6573    3.1036 H   0  0  0  0  0  0  0  0  0  0  0  0
    2.6756   -0.5346    1.2870 H   0  0  0  0  0  0  0  0  0  0  0  0
    2.2695   -0.2631   -0.4283 H   0  0  0  0  0  0  0  0  0  0  0  0
    2.3741    1.8581    0.8906 H   0  0  0  0  0  0  0  0  0  0  0  0
    0.7496    1.5937    0.2550 H   0  0  0  0  0  0  0  0  0  0  0  0
    1.0954    1.2623    1.9566 H   0  0  0  0  0  0  0  0  0  0  0  0
    3.8366   -3.9272    8.6292 H   0  0  0  0  0  0  0  0  0  0  0  0
    7.4571   -3.6140    7.1274 H   0  0  0  0  0  0  0  0  0  0  0  0
    5.9710   -4.8715   13.3154 H   0  0  0  0  0  0  0  0  0  0  0  0
    8.3727   -5.1300   14.3470 H   0  0  0  0  0  0  0  0  0  0  0  0
  1  2  2  0  0  0  0
  2  3  1  0  0  0  0
  3  4  2  0  0  0  0
  3  5  1  0  0  0  0
  5  6  2  0  0  0  0
  6  7  1  0  0  0  0
  7  8  2  0  0  0  0
  8  9  1  0  0  0  0
  9 10  2  0  0  0  0
 10 11  1  0  0  0  0
 11 12  2  0  0  0  0
 12 13  1  0  0  0  0
 13 14  3  0  0  0  0
 12 15  1  0  0  0  0
 15 16  3  0  0  0  0
  8 17  1  0  0  0  0
 17 18  1  0  0  0  0
 18 19  1  0  0  0  0
 19 20  2  0  0  0  0
 20 21  1  0  0  0  0
 21 22  1  0  0  0  0
 21 23  1  0  0  0  0
  1 24  1  0  0  0  0
 24 25  2  0  0  0  0
 25 26  1  0  0  0  0
 26 27  1  0  0  0  0
 27 28  1  0  0  0  0
 28 29  1  0  0  0  0
 29 30  1  0  0  0  0
 30 31  1  0  0  0  0
 31 32  2  0  0  0  0
 32 33  1  0  0  0  0
 33 34  1  0  0  0  0
 31 35  1  0  0  0  0
 35 36  1  0  0  0  0
 36 37  2  0  0  0  0
 37 38  1  0  0  0  0
 38 39  1  0  0  0  0
 39 40  1  0  0  0  0
 38 41  1  0  0  0  0
 41 42  1  0  0  0  0
 42 43  1  0  0  0  0
 43 44  1  0  0  0  0
 44 45  1  0  0  0  0
 45 46  1  0  0  0  0
 43 47  1  0  0  0  0
 47 48  1  0  0  0  0
 37 49  1  0  0  0  0
 49 50  2  0  0  0  0
 50 51  1  0  0  0  0
 50 52  1  0  0  0  0
 52 53  2  0  0  0  0
 53 54  1  0  0  0  0
 53 55  1  0  0  0  0
 55 56  2  0  0  0  0
 56 57  1  0  0  0  0
 57 58  2  0  0  0  0
 57 59  1  0  0  0  0
 59 60  1  0  0  0  0
 60 61  2  0  0  0  0
 61 62  1  0  0  0  0
 62 63  1  0  0  0  0
 63 64  1  0  0  0  0
 64 65  2  0  0  0  0
 65 66  1  0  0  0  0
 66 67  3  0  0  0  0
 65 68  1  0  0  0  0
 68 69  3  0  0  0  0
 11  2  1  0  0  0  0
 23 17  1  0  0  0  0
 46 24  1  0  0  0  0
 54 49  1  0  0  0  0
 64 56  1  0  0  0  0
 10  5  1  0  0  0  0
 22 18  1  0  0  0  0
 45 26  2  0  0  0  0
 63 59  2  0  0  0  0
 23  7  1  0  0  0  0
 44 28  2  0  0  0  0
 42 29  2  0  0  0  0
 34 30  2  0  0  0  0
 41 35  2  0  0  0  0
 51 36  1  0  0  0  0
  1 70  1  0  0  0  0
  6 71  1  0  0  0  0
  9 72  1  0  0  0  0
 17 73  1  0  0  0  0
 18 74  1  0  0  0  0
 19 75  1  0  0  0  0
 20 76  1  0  0  0  0
 21 77  1  0  0  0  0
 22 78  1  0  0  0  0
 22 79  1  0  0  0  0
 23 80  1  0  0  0  0
 25 81  1  0  0  0  0
 39 82  1  0  0  0  0
 39 83  1  0  0  0  0
 40 84  1  0  0  0  0
 40 85  1  0  0  0  0
 40 86  1  0  0  0  0
 47 87  1  0  0  0  0
 47 88  1  0  0  0  0
 48 89  1  0  0  0  0
 48 90  1  0  0  0  0
 48 91  1  0  0  0  0
 52 92  1  0  0  0  0
 55 93  1  0  0  0  0
 60 94  1  0  0  0  0
 61 95  1  0  0  0  0
M  END
