105

C         -4.73150       -4.57290       -1.15170
C         -5.71350       -3.91430       -1.84570
C         -5.73440       -2.52530       -2.35270
O         -4.81850       -1.72980       -2.45540
C         -7.13130       -2.25430       -2.73660
C         -7.64640       -1.04130       -3.18810
C         -8.99590       -1.06740       -3.44240
C         -9.77620       -2.21770       -3.26360
C         -9.27760       -3.42340       -2.83100
C         -7.90520       -3.41760       -2.56550
C         -7.02850       -4.48630       -2.09390
C         -7.38790       -5.80460       -1.98370
C         -6.53480       -6.87380       -1.63470
N         -5.91580       -7.80920       -1.38590
C         -8.67870       -6.30280       -2.26050
N         -9.70200       -6.78210       -2.46480
C        -11.04550       -1.51760       -3.67910
C        -12.03000       -1.09030       -2.56230
C        -11.20520       -0.89050       -1.31520
C        -10.46740        0.19810       -1.48760
C        -10.77960        0.75370       -2.85510
C        -12.26440        0.37340       -2.96890
C        -10.17580       -0.23690       -3.88140
C         -3.42850       -4.19520       -0.77810
Se        -2.45850       -5.41380        0.35630
C         -1.10600       -4.16450        0.30640
C          0.18650       -3.94380        0.80250
C          1.04490       -4.76460        1.56500
C          2.36490       -4.29700        1.87750
N          3.06970       -5.19430        2.54820
S          2.15270       -6.50960        2.77070
N          0.81580       -5.98560        2.01980
C          2.71790       -2.97270        1.52720
C          3.82180       -2.18220        1.87190
S          5.31300       -2.32790        2.73610
C          5.57830       -0.60920        2.50470
C          6.60290        0.23940        2.90240
C          7.76330       -0.22360        3.72120
C          7.50720        0.01400        5.21200
C          6.36250        1.56150        2.48870
S          4.85180        1.71250        1.59160
C          4.55240        0.02660        1.78470
C          3.55690       -0.88250        1.41660
N          2.34600       -0.85140        0.77830
C          1.81750       -2.12590        0.81500
C          0.60140       -2.66810        0.33140
N         -0.38700       -2.15580       -0.48730
C         -1.43340       -3.04940       -0.48960
C         -2.68910       -3.06340       -1.08570
C         -0.23260       -1.24990       -1.60590
C         -0.08320       -2.01510       -2.92120
C          1.69240        0.41220        0.51270
C          2.28010        1.12900       -0.70320
C          7.22940        2.62140        2.77680
C          7.15740        3.95490        2.45600
C          6.11100        4.59950        1.65310
O          5.12190        4.07600        1.16360
C          6.49300        6.01010        1.54080
C          5.85490        7.03830        0.87710
C          6.41340        8.30600        0.90470
C          7.60490        8.53640        1.59490
O          8.22420        9.73240        1.67650
C          7.65760       10.84950        1.03110
C          8.25250        7.48880        2.27060
C          7.69510        6.22950        2.24160
C          8.12780        4.96210        2.83440
C          9.24410        4.79840        3.61380
C         10.13890        5.83740        3.94690
N         10.91070        6.62620        4.26330
C          9.66880        3.59130        4.20650
N         10.08210        2.65340        4.72660
H         -5.00410       -5.55630       -0.78180
H         -7.00860       -0.17950       -3.30870
H         -9.89300       -4.29700       -2.69720
H        -11.55670       -1.93010       -4.54660
H        -12.90350       -1.72900       -2.46250
H        -11.20040       -1.57210       -0.48480
H         -9.72290        0.60750       -0.82990
H        -10.51520        1.79470       -3.02230
H        -12.66520        0.48540       -3.97540
H        -12.89250        0.91190       -2.26070
H        -10.11730        0.18630       -4.88240
H          7.89580       -1.29360        3.54890
H          8.68110        0.28690        3.42600
H          8.35260       -0.34500        5.79170
H          6.61270       -0.51580        5.53120
H          7.37670        1.07390        5.41660
H         -3.08600       -2.28110       -1.70790
H          0.65440       -0.64480       -1.45980
H         -1.11240       -0.60130       -1.65000
H          0.77300       -2.68500       -2.87170
H         -0.97140       -2.60280       -3.13500
H          0.07090       -1.31140       -3.73480
H          0.62140        0.23690        0.40430
H          1.83730        1.05110        1.39100
H          2.36460        0.46570       -1.56140
H          3.27160        1.50800       -0.47310
H          1.64860        1.97150       -0.97000
H          8.09640        2.31920        3.34810
H          4.93470        6.84960        0.34590
H          5.91560        9.10950        0.38600
H          7.59680       10.69900       -0.05110
H          6.66330       11.07930        1.42590
H          8.32910       11.67980        1.24170
H          9.16950        7.71510        2.78790
