101

C          4.26800        4.32580        0.69290
C          4.49810        4.37580        2.04260
C          3.93750        3.53480        3.12290
O          3.31320        2.49320        3.03930
C          4.28450        4.21100        4.38510
C          3.89260        3.82780        5.66590
C          4.33310        4.66730        6.65960
C          5.11000        5.80440        6.39920
C          5.51470        6.18530        5.14210
C          5.07570        5.34380        4.11560
C          5.29410        5.41870        2.67380
C          6.16010        6.28240        2.05510
C          6.92300        7.26140        2.72670
N          7.57330        8.08170        3.19850
C          6.47150        6.30580        0.67830
N          6.80810        6.38810       -0.41710
C          5.16580        6.19680        7.85410
C          4.24580        7.35110        8.32350
C          3.06580        7.36990        7.38380
C          2.33350        6.29220        7.63160
C          3.00550        5.52480        8.74330
C          3.60260        6.68760        9.55190
C          4.30350        4.92810        8.14470
C          3.51830        3.43960       -0.10420
Se         3.37970        3.86490       -1.97740
C          2.33660        2.35190       -2.10060
C          1.61900        1.60380       -3.04450
C          1.50180        1.73380       -4.44490
C          0.75490        0.75090       -5.17530
N          0.78260        0.96660       -6.48080
S          1.66660        2.29290       -6.76570
N          2.04930        2.64570       -5.23150
C          0.03970       -0.23490       -4.45540
C         -0.90870       -1.17820       -4.86910
S         -1.61360       -1.76450       -6.33480
C         -2.66250       -2.79510       -5.37880
C         -3.65390       -3.69880       -5.73190
C         -4.05810       -3.94200       -7.14890
C         -5.25670       -3.06840       -7.53000
C         -4.24410       -4.28260       -4.59540
S         -3.52500       -3.69030       -3.09470
C         -2.45950       -2.67580       -3.99190
C         -1.44690       -1.75520       -3.70990
N         -0.84110       -1.23120       -2.59820
C          0.09410       -0.30790       -3.03160
C          1.01210        0.52520       -2.34570
N          1.41120        0.57420       -1.02410
C          2.19660        1.69230       -0.86340
C          2.83940        2.27610        0.22290
C          1.54420       -0.53800       -0.10810
C          2.98600       -1.04170       -0.04860
C         -1.48390       -1.36470       -1.30490
C         -1.92400       -0.01950       -0.73880
C         -5.27940       -5.21650       -4.67450
C         -5.98800       -5.86710       -3.69140
C         -5.80130       -5.71790       -2.24840
O         -4.99630       -5.01150       -1.66610
C         -6.79580       -6.60790       -1.61410
C         -7.02190       -6.82150       -0.27080
C         -8.02720       -7.71730        0.07550
Cl        -8.35440       -8.02280        1.73950
C         -8.77410       -8.37130       -0.89730
C         -8.53740       -8.14950       -2.24590
C         -7.53890       -7.25970       -2.61340
C         -7.05610       -6.81950       -3.92170
C         -7.54710       -7.25160       -5.12790
C         -7.09710       -6.84200       -6.39990
N         -6.79200       -6.56260       -7.47220
C         -8.59380       -8.18730       -5.26660
N         -9.43940       -8.94080       -5.45510
H          4.71290        5.13040        0.11600
H          3.29130        2.94530        5.82010
H          6.11070        7.06370        4.96010
H          6.15850        6.25210        8.29630
H          4.75380        8.29970        8.47460
H          2.92000        8.11150        6.62040
H          1.45370        5.95350        7.11620
H          2.38430        4.81050        9.27750
H          4.32560        6.36890       10.30140
H          2.84100        7.31160       10.01710
H          4.73410        4.15300        8.77570
H         -4.30830       -4.99110       -7.31240
H         -3.21360       -3.68720       -7.79230
H         -5.52940       -3.25110       -8.56520
H         -6.11510       -3.29660       -6.90260
H         -5.00980       -2.01580       -7.41310
H          2.81210        1.90200        1.23100
H          0.91360       -1.35150       -0.45350
H          1.21760       -0.21820        0.88590
H          3.65470       -0.27200        0.32630
H          3.32160       -1.34160       -1.03950
H          3.04180       -1.90160        0.61340
H         -0.84290       -1.89160       -0.59330
H         -2.36230       -1.99490       -1.46440
H         -2.46970       -0.17930        0.18660
H         -1.07380        0.62470       -0.53370
H         -2.57870        0.48670       -1.44460
H         -5.56240       -5.45240       -5.69110
H         -6.43640       -6.30910        0.47600
H         -9.54760       -9.06020       -0.59650
H         -9.13090       -8.66960       -2.97950
