
  xtb     02022209183D
 energy: -186.993466069869 gnorm: 0.000727896806 xtb: 6.4.1 (unknown)
105118  0     0  0            999 V2000
    4.8631   -0.3123   -0.2860 C   0  0  0  0  0  0  0  0  0  0  0  0
    5.4334   -0.0955   -1.5171 C   0  0  0  0  0  0  0  0  0  0  0  0
    4.7862   -0.0641   -2.8462 C   0  0  0  0  0  0  0  0  0  0  0  0
    3.6026   -0.0611   -3.1254 O   0  0  0  0  0  0  0  0  0  0  0  0
    5.8849   -0.0796   -3.8321 C   0  0  0  0  0  0  0  0  0  0  0  0
    5.7552   -0.1099   -5.2189 C   0  0  0  0  0  0  0  0  0  0  0  0
    6.9529   -0.1202   -5.8921 C   0  0  0  0  0  0  0  0  0  0  0  0
    8.1900   -0.1114   -5.2346 C   0  0  0  0  0  0  0  0  0  0  0  0
    8.3314   -0.0861   -3.8675 C   0  0  0  0  0  0  0  0  0  0  0  0
    7.1231   -0.0647   -3.1639 C   0  0  0  0  0  0  0  0  0  0  0  0
    6.8666   -0.0137   -1.7271 C   0  0  0  0  0  0  0  0  0  0  0  0
    7.8283    0.1790   -0.7659 C   0  0  0  0  0  0  0  0  0  0  0  0
    9.2113    0.2706   -1.0240 C   0  0  0  0  0  0  0  0  0  0  0  0
   10.3500    0.3487   -1.1511 N   0  0  0  0  0  0  0  0  0  0  0  0
    7.5877    0.3696    0.6092 C   0  0  0  0  0  0  0  0  0  0  0  0
    7.4809    0.5627    1.7376 N   0  0  0  0  0  0  0  0  0  0  0  0
    8.9677   -0.1269   -6.5272 C   0  0  0  0  0  0  0  0  0  0  0  0
    9.5854    1.2149   -6.9744 C   0  0  0  0  0  0  0  0  0  0  0  0
    9.8505    1.0172   -8.4494 C   0  0  0  0  0  0  0  0  0  0  0  0
    8.6791    1.0105   -9.0726 C   0  0  0  0  0  0  0  0  0  0  0  0
    7.6024    1.2036   -8.0292 C   0  0  0  0  0  0  0  0  0  0  0  0
    8.3473    2.1179   -7.0480 C   0  0  0  0  0  0  0  0  0  0  0  0
    7.5881   -0.1348   -7.2605 C   0  0  0  0  0  0  0  0  0  0  0  0
    3.5176   -0.3081    0.1168 C   0  0  0  0  0  0  0  0  0  0  0  0
    2.3701    0.1314   -0.5763 C   0  0  0  0  0  0  0  0  0  0  0  0
    1.3139   -0.0227    0.2998 C   0  0  0  0  0  0  0  0  0  0  0  0
    1.8203   -0.5345    1.5148 C   0  0  0  0  0  0  0  0  0  0  0  0
    3.1505   -0.7123    1.3998 N   0  0  0  0  0  0  0  0  0  0  0  0
    3.9970   -1.1944    2.4658 C   0  0  0  0  0  0  0  0  0  0  0  0
    4.5908   -0.0492    3.2818 C   0  0  0  0  0  0  0  0  0  0  0  0
    0.7374   -0.6207    2.4091 C   0  0  0  0  0  0  0  0  0  0  0  0
    0.6588   -0.9191    3.7873 C   0  0  0  0  0  0  0  0  0  0  0  0
   -0.5921   -0.7434    4.4719 C   0  0  0  0  0  0  0  0  0  0  0  0
   -0.5010   -0.9908    5.7685 N   0  0  0  0  0  0  0  0  0  0  0  0
    1.0213   -1.4176    6.1080 S   0  0  0  0  0  0  0  0  0  0  0  0
    1.6262   -1.3049    4.6073 N   0  0  0  0  0  0  0  0  0  0  0  0
   -1.7430   -0.4198    3.7205 C   0  0  0  0  0  0  0  0  0  0  0  0
   -3.0953   -0.3303    4.0801 C   0  0  0  0  0  0  0  0  0  0  0  0
   -4.0783   -0.3930    5.4991 S   0  0  0  0  0  0  0  0  0  0  0  0
   -5.4956   -0.1905    4.4954 C   0  0  0  0  0  0  0  0  0  0  0  0
   -6.8576   -0.1212    4.7934 C   0  0  0  0  0  0  0  0  0  0  0  0
   -7.4057   -0.1325    6.1795 C   0  0  0  0  0  0  0  0  0  0  0  0
   -7.6682    1.2982    6.6568 C   0  0  0  0  0  0  0  0  0  0  0  0
   -7.6202    0.0785    3.6461 C   0  0  0  0  0  0  0  0  0  0  0  0
   -6.6250    0.1191    2.1885 S   0  0  0  0  0  0  0  0  0  0  0  0
   -5.1953   -0.0840    3.1292 C   0  0  0  0  0  0  0  0  0  0  0  0
   -3.8222   -0.1551    2.8945 C   0  0  0  0  0  0  0  0  0  0  0  0
   -2.9711   -0.0935    1.8213 N   0  0  0  0  0  0  0  0  0  0  0  0
   -1.6810   -0.2366    2.3098 C   0  0  0  0  0  0  0  0  0  0  0  0
   -0.4148   -0.1936    1.6789 C   0  0  0  0  0  0  0  0  0  0  0  0
   -0.0395    0.1873    0.4047 N   0  0  0  0  0  0  0  0  0  0  0  0
   -0.6892    1.0828   -0.5256 C   0  0  0  0  0  0  0  0  0  0  0  0
   -0.9498    0.4094   -1.8715 C   0  0  0  0  0  0  0  0  0  0  0  0
   -3.4757   -0.4367    0.5078 C   0  0  0  0  0  0  0  0  0  0  0  0
   -3.2214   -1.9090    0.1930 C   0  0  0  0  0  0  0  0  0  0  0  0
   -9.0248    0.1460    3.5793 C   0  0  0  0  0  0  0  0  0  0  0  0
   -9.8165    0.6447    2.5846 C   0  0  0  0  0  0  0  0  0  0  0  0
  -11.2264    0.1768    2.4686 C   0  0  0  0  0  0  0  0  0  0  0  0
  -11.8483   -0.4573    3.2889 O   0  0  0  0  0  0  0  0  0  0  0  0
  -11.6447    0.6153    1.1279 C   0  0  0  0  0  0  0  0  0  0  0  0
  -10.6029    1.3998    0.5308 C   0  0  0  0  0  0  0  0  0  0  0  0
  -10.9105    1.8472   -0.7138 C   0  0  0  0  0  0  0  0  0  0  0  0
  -12.4810    1.3121   -1.1971 S   0  0  0  0  0  0  0  0  0  0  0  0
  -12.7324    0.4794    0.3208 C   0  0  0  0  0  0  0  0  0  0  0  0
  -14.1758   -0.3511    0.6379 Cl  0  0  0  0  0  0  0  0  0  0  0  0
   -9.5178    1.5350    1.4850 C   0  0  0  0  0  0  0  0  0  0  0  0
   -8.5636    2.5209    1.4465 C   0  0  0  0  0  0  0  0  0  0  0  0
   -7.7362    2.8431    2.5391 C   0  0  0  0  0  0  0  0  0  0  0  0
   -7.0944    3.1603    3.4371 N   0  0  0  0  0  0  0  0  0  0  0  0
   -8.4086    3.3548    0.3238 C   0  0  0  0  0  0  0  0  0  0  0  0
   -8.2524    4.0227   -0.5970 N   0  0  0  0  0  0  0  0  0  0  0  0
    5.5624   -0.5249    0.5121 H   0  0  0  0  0  0  0  0  0  0  0  0
    4.7818   -0.1228   -5.6841 H   0  0  0  0  0  0  0  0  0  0  0  0
    9.2904   -0.0902   -3.3775 H   0  0  0  0  0  0  0  0  0  0  0  0
    9.6382   -0.9725   -6.6688 H   0  0  0  0  0  0  0  0  0  0  0  0
   10.4197    1.5564   -6.3679 H   0  0  0  0  0  0  0  0  0  0  0  0
   10.8264    0.8521   -8.8668 H   0  0  0  0  0  0  0  0  0  0  0  0
    8.4810    0.8385  -10.1144 H   0  0  0  0  0  0  0  0  0  0  0  0
    6.6305    1.5355   -8.3847 H   0  0  0  0  0  0  0  0  0  0  0  0
    7.8397    2.2534   -6.0948 H   0  0  0  0  0  0  0  0  0  0  0  0
    8.5725    3.0908   -7.4819 H   0  0  0  0  0  0  0  0  0  0  0  0
    7.3387   -0.9858   -7.8919 H   0  0  0  0  0  0  0  0  0  0  0  0
    2.3656    0.4957   -1.5812 H   0  0  0  0  0  0  0  0  0  0  0  0
    4.7882   -1.8235    2.0510 H   0  0  0  0  0  0  0  0  0  0  0  0
    3.3682   -1.8023    3.1208 H   0  0  0  0  0  0  0  0  0  0  0  0
    5.2490    0.5718    2.6797 H   0  0  0  0  0  0  0  0  0  0  0  0
    5.1666   -0.4563    4.1073 H   0  0  0  0  0  0  0  0  0  0  0  0
    3.7915    0.5658    3.6874 H   0  0  0  0  0  0  0  0  0  0  0  0
   -6.6782   -0.6093    6.8392 H   0  0  0  0  0  0  0  0  0  0  0  0
   -8.3355   -0.7040    6.2131 H   0  0  0  0  0  0  0  0  0  0  0  0
   -8.3917    1.7883    6.0097 H   0  0  0  0  0  0  0  0  0  0  0  0
   -8.0538    1.2879    7.6727 H   0  0  0  0  0  0  0  0  0  0  0  0
   -6.7481    1.8764    6.6369 H   0  0  0  0  0  0  0  0  0  0  0  0
   -1.6013    1.4734   -0.0729 H   0  0  0  0  0  0  0  0  0  0  0  0
   -0.0169    1.9340   -0.6873 H   0  0  0  0  0  0  0  0  0  0  0  0
   -1.5460   -0.4921   -1.7581 H   0  0  0  0  0  0  0  0  0  0  0  0
   -1.4716    1.0963   -2.5325 H   0  0  0  0  0  0  0  0  0  0  0  0
   -0.0064    0.1332   -2.3341 H   0  0  0  0  0  0  0  0  0  0  0  0
   -3.0378    0.1931   -0.2619 H   0  0  0  0  0  0  0  0  0  0  0  0
   -4.5507   -0.2407    0.5250 H   0  0  0  0  0  0  0  0  0  0  0  0
   -3.6420   -2.1582   -0.7773 H   0  0  0  0  0  0  0  0  0  0  0  0
   -2.1538   -2.1181    0.1793 H   0  0  0  0  0  0  0  0  0  0  0  0
   -3.6864   -2.5422    0.9454 H   0  0  0  0  0  0  0  0  0  0  0  0
   -9.5608   -0.3395    4.3898 H   0  0  0  0  0  0  0  0  0  0  0  0
  -10.3257    2.4434   -1.3857 H   0  0  0  0  0  0  0  0  0  0  0  0
  1  2  2  0  0  0  0
  2  3  1  0  0  0  0
  3  4  2  0  0  0  0
  3  5  1  0  0  0  0
  5  6  2  0  0  0  0
  6  7  1  0  0  0  0
  7  8  2  0  0  0  0
  8  9  1  0  0  0  0
  9 10  2  0  0  0  0
 10 11  1  0  0  0  0
 11 12  2  0  0  0  0
 12 13  1  0  0  0  0
 13 14  3  0  0  0  0
 12 15  1  0  0  0  0
 15 16  3  0  0  0  0
  8 17  1  0  0  0  0
 17 18  1  0  0  0  0
 18 19  1  0  0  0  0
 19 20  2  0  0  0  0
 20 21  1  0  0  0  0
 21 22  1  0  0  0  0
 21 23  1  0  0  0  0
  1 24  1  0  0  0  0
 24 25  2  0  0  0  0
 25 26  1  0  0  0  0
 26 27  2  0  0  0  0
 27 28  1  0  0  0  0
 28 29  1  0  0  0  0
 29 30  1  0  0  0  0
 27 31  1  0  0  0  0
 31 32  1  0  0  0  0
 32 33  1  0  0  0  0
 33 34  2  0  0  0  0
 34 35  1  0  0  0  0
 35 36  1  0  0  0  0
 33 37  1  0  0  0  0
 37 38  1  0  0  0  0
 38 39  1  0  0  0  0
 39 40  1  0  0  0  0
 40 41  1  0  0  0  0
 41 42  1  0  0  0  0
 42 43  1  0  0  0  0
 41 44  2  0  0  0  0
 44 45  1  0  0  0  0
 45 46  1  0  0  0  0
 46 47  1  0  0  0  0
 47 48  1  0  0  0  0
 48 49  1  0  0  0  0
 49 50  1  0  0  0  0
 50 51  1  0  0  0  0
 51 52  1  0  0  0  0
 52 53  1  0  0  0  0
 48 54  1  0  0  0  0
 54 55  1  0  0  0  0
 44 56  1  0  0  0  0
 56 57  2  0  0  0  0
 57 58  1  0  0  0  0
 58 59  2  0  0  0  0
 58 60  1  0  0  0  0
 60 61  1  0  0  0  0
 61 62  2  0  0  0  0
 62 63  1  0  0  0  0
 63 64  1  0  0  0  0
 64 65  1  0  0  0  0
 61 66  1  0  0  0  0
 66 67  2  0  0  0  0
 67 68  1  0  0  0  0
 68 69  3  0  0  0  0
 67 70  1  0  0  0  0
 70 71  3  0  0  0  0
 11  2  1  0  0  0  0
 23 17  1  0  0  0  0
 28 24  1  0  0  0  0
 50 31  2  0  0  0  0
 66 57  1  0  0  0  0
 10  5  1  0  0  0  0
 22 18  1  0  0  0  0
 51 26  1  0  0  0  0
 64 60  2  0  0  0  0
 23  7  1  0  0  0  0
 36 32  2  0  0  0  0
 49 37  2  0  0  0  0
 47 38  2  0  0  0  0
 46 40  2  0  0  0  0
  1 72  1  0  0  0  0
  6 73  1  0  0  0  0
  9 74  1  0  0  0  0
 17 75  1  0  0  0  0
 18 76  1  0  0  0  0
 19 77  1  0  0  0  0
 20 78  1  0  0  0  0
 21 79  1  0  0  0  0
 22 80  1  0  0  0  0
 22 81  1  0  0  0  0
 23 82  1  0  0  0  0
 25 83  1  0  0  0  0
 29 84  1  0  0  0  0
 29 85  1  0  0  0  0
 30 86  1  0  0  0  0
 30 87  1  0  0  0  0
 30 88  1  0  0  0  0
 42 89  1  0  0  0  0
 42 90  1  0  0  0  0
 43 91  1  0  0  0  0
 43 92  1  0  0  0  0
 43 93  1  0  0  0  0
 52 94  1  0  0  0  0
 52 95  1  0  0  0  0
 53 96  1  0  0  0  0
 53 97  1  0  0  0  0
 53 98  1  0  0  0  0
 54 99  1  0  0  0  0
 54100  1  0  0  0  0
 55101  1  0  0  0  0
 55102  1  0  0  0  0
 55103  1  0  0  0  0
 56104  1  0  0  0  0
 62105  1  0  0  0  0
M  END
