133

C         -4.02610        5.90030       -1.92310
C         -4.28040        6.35420       -0.66560
C         -5.51520        7.13130       -0.38220
O         -6.24040        7.66530       -1.19060
C         -5.69320        7.04890        1.08250
C         -6.77780        7.50650        1.82800
C         -6.67410        7.26200        3.17660
C         -5.57750        6.60220        3.74850
C         -4.49690        6.15110        3.02880
C         -4.58020        6.39770        1.65610
C         -3.61920        6.11080        0.59660
C         -2.27080        5.92350        0.76550
C         -1.35950        5.99330       -0.30850
N         -0.59270        6.09910       -1.15690
C         -1.64350        5.72260        2.00880
N         -1.08290        5.51270        2.98890
C         -6.14510        6.69710        5.14260
C         -5.53110        7.77310        6.06290
C         -6.57120        7.96110        7.14370
C         -7.60560        8.59190        6.60270
C         -7.28230        8.84060        5.14700
C         -5.76580        9.05020        5.24590
C         -7.36440        7.43860        4.50620
C         -3.20380        4.82380       -2.32260
C         -2.78660        4.57030       -3.62530
C         -3.00960        5.54120       -4.70480
C         -2.41190        6.79330       -4.56630
C         -2.57870        7.76110       -5.53620
C         -3.36440        7.49030       -6.64440
C         -3.97300        6.25640       -6.77280
C         -3.80490        5.26120       -5.81680
C         -4.51500        3.94620       -5.98650
C         -4.01310        3.18070       -7.21100
C         -2.04850        3.38240       -3.70960
S         -1.22070        2.57850       -5.02330
C         -0.69040        1.36210       -3.91560
C          0.05610        0.17700       -3.91010
C          0.62020       -0.54490       -4.98430
C          1.25540       -1.79790       -4.71360
N          1.69960       -2.38920       -5.81160
S          1.34930       -1.44480       -7.07840
N          0.61520       -0.24620       -6.27400
C          1.36880       -2.22680       -3.37300
C          2.01720       -3.34400       -2.83670
S          2.90170       -4.73180       -3.37370
C          3.15710       -5.17150       -1.69460
C          3.84150       -6.21400       -1.09160
C          4.50820       -7.30170       -1.82380
C          5.89950       -7.39840       -1.89670
C          6.79370       -6.33920       -1.31720
C          6.98860       -5.20620       -2.32750
C          6.45270       -8.46190       -2.59680
C          5.65590       -9.41140       -3.20800
C          4.27760       -9.30110       -3.14400
C          3.70740       -8.24680       -2.45770
C          3.78490       -6.13190        0.31520
S          2.87250       -4.72410        0.85930
C          2.57790       -4.27150       -0.77730
C          1.91880       -3.23770       -1.44370
N          1.22620       -2.10620       -1.10990
C          0.85120       -1.46780       -2.27560
C          0.10920       -0.28610       -2.55920
N         -0.63930        0.58540       -1.78740
C         -1.11360        1.57560       -2.60010
C         -1.90610        2.71970       -2.48280
S         -2.72490        3.54670       -1.21120
C         -1.02350        0.60150       -0.39520
C         -0.18550        1.59430        0.41140
C          1.13460       -1.74710        0.28670
C          0.03170       -2.52630        1.00300
C          4.39400       -7.08390        1.13140
C          4.46590       -7.17070        2.50510
C          3.83230       -6.25750        3.45270
O          3.16830       -5.26370        3.21210
C          4.14820       -6.78200        4.79850
C          3.77740       -6.27680        6.02630
C          4.20710       -6.96100        7.15970
C          3.85770       -6.41760        8.51770
F          3.83460       -7.36050        9.46980
F          2.65760       -5.81930        8.54050
F          4.74660       -5.49070        8.92720
C          4.98400       -8.10870        7.05360
C          5.35170       -8.60990        5.81200
C          4.93330       -7.94040        4.67290
C          5.16290       -8.19720        3.24710
C          5.93530       -9.21490        2.74790
C          6.22600       -9.44650        1.38680
N          6.53290       -9.70530        0.31050
C          6.57980      -10.18220        3.54780
N          7.12590      -11.00210        4.13760
H         -4.59380        6.37160       -2.71980
H         -7.60740        8.00460        1.35140
H         -3.65960        5.63720        3.47250
H         -6.31870        5.75020        5.65040
H         -4.51580        7.56630        6.38990
H         -6.47370        7.57960        8.14310
H         -8.54480        8.84260        7.05980
H         -7.86260        9.60730        4.64080
H         -5.51040        9.94870        5.80490
H         -5.25510        9.06240        4.28480
H         -8.35180        6.98890        4.59260
H         -1.80260        6.98840       -3.69560
H         -2.10540        8.72450       -5.42360
H         -3.51080        8.24480       -7.40290
H         -4.60510        6.06010       -7.62660
H         -5.58550        4.13860       -6.10280
H         -4.38380        3.33090       -5.09490
H         -4.52990        2.22750       -7.29420
H         -2.94600        2.99020       -7.12990
H         -4.19030        3.74850       -8.12060
H          6.36890       -5.93020       -0.39880
H          7.76230       -6.77920       -1.07420
H          7.64690       -4.44280       -1.91930
H          6.03370       -4.74640       -2.57330
H          7.42730       -5.59000       -3.24540
H          7.52750       -8.54710       -2.65310
H          6.10950      -10.23640       -3.73580
H          3.64690      -10.03460       -3.62320
H          2.63270       -8.15320       -2.39490
H         -0.97150       -0.40240        0.01490
H         -2.07120        0.91930       -0.35640
H         -0.36960        2.60890        0.06770
H          0.87960        1.39870        0.30620
H         -0.45280        1.53610        1.46260
H          1.00370       -0.67340        0.38140
H          2.09300       -2.00520        0.74910
H         -0.92210       -2.43950        0.48570
H          0.29270       -3.57990        1.05320
H         -0.07990       -2.15520        2.01770
H          4.88560       -7.86880        0.56790
H          3.17310       -5.38560        6.09720
H          5.30240       -8.61920        7.94950
H          5.95190       -9.50270        5.75840
