129

C          2.18330       -2.61230        6.94010
C          1.20760       -3.28440        7.61470
C         -0.09680       -3.75970        7.09010
O         -0.71600       -3.37950        6.11800
C         -0.50000       -4.86470        7.98490
C         -1.58930       -5.71710        7.81450
C         -1.69920       -6.68490        8.78370
C         -0.79110       -6.80210        9.84470
C          0.28290       -5.96490       10.02930
C          0.40960       -4.97000        9.05470
C          1.41940       -3.93040        8.89990
C          2.35030       -3.56690        9.83700
C          3.23820       -2.47830        9.70230
N          3.97360       -1.59640        9.68010
C          2.50380       -4.19600       11.08910
N          2.67910       -4.66850       12.12110
C         -1.49730       -8.00370       10.42210
C         -2.37950       -7.75710       11.66370
C         -3.29190       -8.96160       11.70350
C         -4.15480       -8.84740       10.70200
C         -3.83990       -7.56370        9.96820
C         -3.36050       -6.69950       11.14160
C         -2.51280       -7.86990        9.24220
C          2.13330       -1.96810        5.66400
C          3.33110       -1.93350        4.90730
C          3.37740       -1.40560        3.64570
C          2.21640       -0.84080        3.10510
C          1.86240       -0.22370        1.89190
C          0.51570        0.15540        1.98370
N          0.00480       -0.20180        3.19300
C          1.01740       -0.81340        3.89490
C          0.97600       -1.37210        5.15530
C         -1.33730        0.03930        3.65510
C         -1.40450        1.27780        4.54670
C          0.16510        0.77190        0.77010
C         -0.97940        1.45460        0.31040
C         -0.97390        2.05560       -0.97990
N         -2.14250        2.68270       -1.13720
N         -2.78160        2.46290       -0.01090
C         -4.11120        2.95060        0.21130
C         -5.14850        1.94930       -0.28960
N         -2.15180        1.73790        0.88330
C          0.11270        1.83820       -1.85260
C          1.23740        1.07910       -1.41580
C          1.32110        0.69110       -0.05710
N          2.36420        0.11230        0.65230
C          3.76290        0.43800        0.48410
C          4.23590        1.45070        1.52750
N          2.06200        0.81730       -2.49710
C          3.06830       -0.21040       -2.64050
C          4.43550        0.36020       -3.01890
C          1.48410        1.40210       -3.60150
C          0.30880        2.06940       -3.22270
N         -0.29270        2.62990       -4.30640
C         -1.43570        3.50650       -4.28250
C         -1.02110        4.97160       -4.40820
C          0.49190        2.33690       -5.39720
C          1.61260        1.52970       -4.99880
C          2.47720        1.04530       -5.98880
C          2.26030        1.39470       -7.29420
C          1.20550        2.25890       -7.67690
C          0.29460        2.69900       -6.71210
C          1.09460        2.60710       -9.05770
C          0.57360        3.73570       -9.62260
C          0.28770        5.02280       -8.94730
O          0.22330        5.27170       -7.76000
C          0.15710        6.01470      -10.03690
C         -0.03610        7.37550       -9.91340
C         -0.11900        8.13390      -11.08190
O         -0.30090        9.47290      -11.12110
C         -0.39880       10.17990       -9.90560
C         -0.00910        7.50000      -12.32790
C          0.18020        6.13770      -12.44090
C          0.26800        5.37620      -11.28090
C          0.47010        3.95360      -11.05780
C          0.47900        2.98440      -12.02750
C          0.35590        3.25120      -13.40630
N          0.27210        3.40550      -14.54130
C          0.56420        1.59710      -11.78890
N          0.60730        0.45390      -11.68290
H          3.17360       -2.63730        7.38350
H         -2.25870       -5.59980        6.97670
H          0.98220       -6.07240       10.84180
H         -0.90240       -8.91220       10.49600
H         -1.83120       -7.52720       12.57310
H         -3.18350       -9.77390       12.39810
H         -4.91090       -9.54520       10.39290
H         -4.62350       -7.15810        9.33380
H         -4.15830       -6.49140       11.85260
H         -2.88760       -5.76630       10.84120
H         -2.59640       -8.69050        8.53170
H          4.22030       -2.37240        5.33550
H          4.29460       -1.42460        3.07570
H          0.07910       -1.33660        5.74760
H         -1.96570        0.19330        2.77500
H         -1.68340       -0.84280        4.20120
H         -1.09410        2.15560        3.98490
H         -2.42270        1.42910        4.89380
H         -0.75240        1.16650        5.40990
H         -4.22510        3.11310        1.28500
H         -4.20810        3.89820       -0.32280
H         -6.14890        2.33730       -0.12080
H         -5.01480        1.77270       -1.35410
H         -5.04400        1.00500        0.23900
H          3.89310        0.87940       -0.49980
H          4.35880       -0.47840        0.55580
H          4.13060        1.05500        2.53360
H          5.28180        1.69120        1.35510
H          3.65050        2.36480        1.45240
H          2.74070       -0.88550       -3.44100
H          3.12270       -0.79140       -1.71920
H          4.84980        0.98660       -2.23300
H          4.35200        0.96850       -3.91460
H          5.12960       -0.45390       -3.21000
H         -2.10570        3.23510       -5.10430
H         -1.94970        3.33990       -3.33210
H         -0.49930        5.14590       -5.34610
H         -0.36350        5.24430       -3.58610
H         -1.90190        5.60700       -4.37380
H          3.29540        0.38810       -5.73650
H          2.92450        1.02610       -8.06220
H         -0.56450        3.27750       -7.00230
H          1.54750        1.89220       -9.73610
H         -0.11650        7.80760       -8.92870
H         -1.26800        9.85770       -9.32440
H          0.50660       10.06570       -9.30210
H         -0.51800       11.22560      -10.18330
H         -0.07470        8.11780      -13.20950
H          0.26650        5.68960      -13.41710
