
  xtb     02022207183D
 energy: -186.775497378439 gnorm: 0.000621450322 xtb: 6.4.1 (unknown)
104117  0     0  0            999 V2000
    1.7715   -4.0220    3.7492 C   0  0  0  0  0  0  0  0  0  0  0  0
    2.8623   -3.6812    4.4830 C   0  0  0  0  0  0  0  0  0  0  0  0
    3.2407   -4.4720    5.6839 C   0  0  0  0  0  0  0  0  0  0  0  0
    2.8057   -5.5571    6.0011 O   0  0  0  0  0  0  0  0  0  0  0  0
    4.2066   -3.6304    6.4154 C   0  0  0  0  0  0  0  0  0  0  0  0
    4.7747   -3.8867    7.6623 C   0  0  0  0  0  0  0  0  0  0  0  0
    5.6360   -2.9086    8.0975 C   0  0  0  0  0  0  0  0  0  0  0  0
    5.9105   -1.7516    7.3548 C   0  0  0  0  0  0  0  0  0  0  0  0
    5.3663   -1.4883    6.1205 C   0  0  0  0  0  0  0  0  0  0  0  0
    4.4943   -2.4762    5.6553 C   0  0  0  0  0  0  0  0  0  0  0  0
    3.7873   -2.5713    4.3817 C   0  0  0  0  0  0  0  0  0  0  0  0
    4.1431   -1.9309    3.2234 C   0  0  0  0  0  0  0  0  0  0  0  0
    5.1256   -0.9245    3.1430 C   0  0  0  0  0  0  0  0  0  0  0  0
    5.9097   -0.0948    3.0210 N   0  0  0  0  0  0  0  0  0  0  0  0
    3.6373   -2.2928    1.9576 C   0  0  0  0  0  0  0  0  0  0  0  0
    3.2979   -2.6091    0.9069 N   0  0  0  0  0  0  0  0  0  0  0  0
    6.8488   -1.2053    8.4018 C   0  0  0  0  0  0  0  0  0  0  0  0
    6.2987   -0.0849    9.3096 C   0  0  0  0  0  0  0  0  0  0  0  0
    7.2305   -0.0953   10.4999 C   0  0  0  0  0  0  0  0  0  0  0  0
    6.9771   -1.1928   11.2012 C   0  0  0  0  0  0  0  0  0  0  0  0
    5.8692   -1.9425   10.4970 C   0  0  0  0  0  0  0  0  0  0  0  0
    5.0700   -0.7618    9.9305 C   0  0  0  0  0  0  0  0  0  0  0  0
    6.5480   -2.4975    9.2270 C   0  0  0  0  0  0  0  0  0  0  0  0
    1.0501   -3.2028    2.8409 C   0  0  0  0  0  0  0  0  0  0  0  0
    0.9753   -1.4626    3.1077 S   0  0  0  0  0  0  0  0  0  0  0  0
    0.0104   -1.3075    1.7073 C   0  0  0  0  0  0  0  0  0  0  0  0
   -0.5345   -0.2791    0.9320 C   0  0  0  0  0  0  0  0  0  0  0  0
   -0.3980    1.1236    1.0231 C   0  0  0  0  0  0  0  0  0  0  0  0
   -0.8346    1.9319   -0.0788 C   0  0  0  0  0  0  0  0  0  0  0  0
   -0.5662    3.2160    0.0988 N   0  0  0  0  0  0  0  0  0  0  0  0
    0.1660    3.3933    1.5311 S   0  0  0  0  0  0  0  0  0  0  0  0
    0.1715    1.8385    1.9803 N   0  0  0  0  0  0  0  0  0  0  0  0
   -1.5062    1.3103   -1.1544 C   0  0  0  0  0  0  0  0  0  0  0  0
   -2.0766    1.8363   -2.3246 C   0  0  0  0  0  0  0  0  0  0  0  0
   -2.2152    3.3467   -3.1517 S   0  0  0  0  0  0  0  0  0  0  0  0
   -3.1252    2.5515   -4.4176 C   0  0  0  0  0  0  0  0  0  0  0  0
   -3.6788    3.0088   -5.6228 C   0  0  0  0  0  0  0  0  0  0  0  0
   -3.7333    4.4560   -5.9946 C   0  0  0  0  0  0  0  0  0  0  0  0
   -2.3473    5.0906   -6.1006 C   0  0  0  0  0  0  0  0  0  0  0  0
   -4.3064    1.9751   -6.3040 C   0  0  0  0  0  0  0  0  0  0  0  0
   -4.2613    0.4530   -5.4115 S   0  0  0  0  0  0  0  0  0  0  0  0
   -3.3226    1.1862   -4.1690 C   0  0  0  0  0  0  0  0  0  0  0  0
   -2.7109    0.7777   -2.9819 C   0  0  0  0  0  0  0  0  0  0  0  0
   -2.5463   -0.3875   -2.2747 N   0  0  0  0  0  0  0  0  0  0  0  0
   -1.7745   -0.0882   -1.1609 C   0  0  0  0  0  0  0  0  0  0  0  0
   -1.1626   -0.9060   -0.1764 C   0  0  0  0  0  0  0  0  0  0  0  0
   -0.9728   -2.2744   -0.0818 N   0  0  0  0  0  0  0  0  0  0  0  0
   -0.2481   -2.5287    1.0671 C   0  0  0  0  0  0  0  0  0  0  0  0
    0.3309   -3.6275    1.7311 C   0  0  0  0  0  0  0  0  0  0  0  0
    0.2513   -5.0819    1.3785 C   0  0  0  0  0  0  0  0  0  0  0  0
   -0.9161   -5.7507    2.1118 C   0  0  0  0  0  0  0  0  0  0  0  0
   -1.0645   -3.2085   -1.1842 C   0  0  0  0  0  0  0  0  0  0  0  0
   -2.1761   -4.2506   -1.0133 C   0  0  0  0  0  0  0  0  0  0  0  0
   -3.5568   -1.4155   -2.4116 C   0  0  0  0  0  0  0  0  0  0  0  0
   -4.9176   -0.9176   -1.9241 C   0  0  0  0  0  0  0  0  0  0  0  0
   -5.0309    1.9647   -7.5219 C   0  0  0  0  0  0  0  0  0  0  0  0
   -4.6906    2.6145   -8.6715 C   0  0  0  0  0  0  0  0  0  0  0  0
   -3.3139    3.1018   -8.9784 C   0  0  0  0  0  0  0  0  0  0  0  0
   -2.3315    3.0373   -8.2739 O   0  0  0  0  0  0  0  0  0  0  0  0
   -3.3982    3.5306  -10.3724 C   0  0  0  0  0  0  0  0  0  0  0  0
   -2.3135    4.1836  -11.5241 S   0  0  0  0  0  0  0  0  0  0  0  0
   -3.5853    4.1612  -12.7166 C   0  0  0  0  0  0  0  0  0  0  0  0
   -3.2825    4.7207  -14.2958 Cl  0  0  0  0  0  0  0  0  0  0  0  0
   -4.7749    3.6710  -12.2503 C   0  0  0  0  0  0  0  0  0  0  0  0
   -4.6627    3.3045  -10.8973 C   0  0  0  0  0  0  0  0  0  0  0  0
   -5.5077    2.7370   -9.8639 C   0  0  0  0  0  0  0  0  0  0  0  0
   -6.8371    2.4394  -10.0097 C   0  0  0  0  0  0  0  0  0  0  0  0
   -7.5072    2.6170  -11.2380 C   0  0  0  0  0  0  0  0  0  0  0  0
   -8.0706    2.7529  -12.2283 N   0  0  0  0  0  0  0  0  0  0  0  0
   -7.6748    1.9484   -8.9888 C   0  0  0  0  0  0  0  0  0  0  0  0
   -8.4119    1.5619   -8.1979 N   0  0  0  0  0  0  0  0  0  0  0  0
    1.3763   -5.0134    3.9455 H   0  0  0  0  0  0  0  0  0  0  0  0
    4.5396   -4.7898    8.2034 H   0  0  0  0  0  0  0  0  0  0  0  0
    5.5816   -0.5964    5.5552 H   0  0  0  0  0  0  0  0  0  0  0  0
    7.8698   -1.0225    8.0722 H   0  0  0  0  0  0  0  0  0  0  0  0
    6.1485    0.8702    8.8138 H   0  0  0  0  0  0  0  0  0  0  0  0
    7.9912    0.6432   10.6728 H   0  0  0  0  0  0  0  0  0  0  0  0
    7.4838   -1.5542   12.0768 H   0  0  0  0  0  0  0  0  0  0  0  0
    5.3275   -2.6795   11.0837 H   0  0  0  0  0  0  0  0  0  0  0  0
    4.6190   -0.1562   10.7149 H   0  0  0  0  0  0  0  0  0  0  0  0
    4.3081   -1.0477    9.2077 H   0  0  0  0  0  0  0  0  0  0  0  0
    7.3691   -3.1778    9.4452 H   0  0  0  0  0  0  0  0  0  0  0  0
   -4.2700    4.5738   -6.9366 H   0  0  0  0  0  0  0  0  0  0  0  0
   -4.3007    4.9747   -5.2145 H   0  0  0  0  0  0  0  0  0  0  0  0
   -2.4424    6.1279   -6.4114 H   0  0  0  0  0  0  0  0  0  0  0  0
   -1.8369    5.0610   -5.1420 H   0  0  0  0  0  0  0  0  0  0  0  0
   -1.7484    4.5564   -6.8324 H   0  0  0  0  0  0  0  0  0  0  0  0
    1.1844   -5.5698    1.6617 H   0  0  0  0  0  0  0  0  0  0  0  0
    0.1390   -5.2065    0.3034 H   0  0  0  0  0  0  0  0  0  0  0  0
   -1.8522   -5.2382    1.9013 H   0  0  0  0  0  0  0  0  0  0  0  0
   -0.7567   -5.7239    3.1866 H   0  0  0  0  0  0  0  0  0  0  0  0
   -1.0080   -6.7898    1.8045 H   0  0  0  0  0  0  0  0  0  0  0  0
   -0.0978   -3.7124   -1.2821 H   0  0  0  0  0  0  0  0  0  0  0  0
   -1.2127   -2.6283   -2.0966 H   0  0  0  0  0  0  0  0  0  0  0  0
   -1.8490   -5.0803   -0.3971 H   0  0  0  0  0  0  0  0  0  0  0  0
   -3.0523   -3.8181   -0.5344 H   0  0  0  0  0  0  0  0  0  0  0  0
   -2.4641   -4.6466   -1.9839 H   0  0  0  0  0  0  0  0  0  0  0  0
   -3.2761   -2.2844   -1.8308 H   0  0  0  0  0  0  0  0  0  0  0  0
   -3.6185   -1.6888   -3.4694 H   0  0  0  0  0  0  0  0  0  0  0  0
   -5.6495   -1.7161   -2.0074 H   0  0  0  0  0  0  0  0  0  0  0  0
   -4.8537   -0.6072   -0.8831 H   0  0  0  0  0  0  0  0  0  0  0  0
   -5.2596   -0.0743   -2.5178 H   0  0  0  0  0  0  0  0  0  0  0  0
   -5.9093    1.3288   -7.5322 H   0  0  0  0  0  0  0  0  0  0  0  0
   -5.6592    3.5822  -12.8531 H   0  0  0  0  0  0  0  0  0  0  0  0
  1  2  2  0  0  0  0
  2  3  1  0  0  0  0
  3  4  2  0  0  0  0
  3  5  1  0  0  0  0
  5  6  2  0  0  0  0
  6  7  1  0  0  0  0
  7  8  2  0  0  0  0
  8  9  1  0  0  0  0
  9 10  2  0  0  0  0
 10 11  1  0  0  0  0
 11 12  2  0  0  0  0
 12 13  1  0  0  0  0
 13 14  3  0  0  0  0
 12 15  1  0  0  0  0
 15 16  3  0  0  0  0
  8 17  1  0  0  0  0
 17 18  1  0  0  0  0
 18 19  1  0  0  0  0
 19 20  2  0  0  0  0
 20 21  1  0  0  0  0
 21 22  1  0  0  0  0
 21 23  1  0  0  0  0
  1 24  1  0  0  0  0
 24 25  1  0  0  0  0
 25 26  1  0  0  0  0
 26 27  1  0  0  0  0
 27 28  1  0  0  0  0
 28 29  1  0  0  0  0
 29 30  2  0  0  0  0
 30 31  1  0  0  0  0
 31 32  1  0  0  0  0
 29 33  1  0  0  0  0
 33 34  1  0  0  0  0
 34 35  1  0  0  0  0
 35 36  1  0  0  0  0
 36 37  1  0  0  0  0
 37 38  1  0  0  0  0
 38 39  1  0  0  0  0
 37 40  2  0  0  0  0
 40 41  1  0  0  0  0
 41 42  1  0  0  0  0
 42 43  1  0  0  0  0
 43 44  1  0  0  0  0
 44 45  1  0  0  0  0
 45 46  1  0  0  0  0
 46 47  1  0  0  0  0
 47 48  1  0  0  0  0
 48 49  1  0  0  0  0
 49 50  1  0  0  0  0
 50 51  1  0  0  0  0
 47 52  1  0  0  0  0
 52 53  1  0  0  0  0
 44 54  1  0  0  0  0
 54 55  1  0  0  0  0
 40 56  1  0  0  0  0
 56 57  2  0  0  0  0
 57 58  1  0  0  0  0
 58 59  2  0  0  0  0
 58 60  1  0  0  0  0
 60 61  1  0  0  0  0
 61 62  1  0  0  0  0
 62 63  1  0  0  0  0
 62 64  2  0  0  0  0
 64 65  1  0  0  0  0
 65 66  1  0  0  0  0
 66 67  2  0  0  0  0
 67 68  1  0  0  0  0
 68 69  3  0  0  0  0
 67 70  1  0  0  0  0
 70 71  3  0  0  0  0
 11  2  1  0  0  0  0
 23 17  1  0  0  0  0
 49 24  2  0  0  0  0
 66 57  1  0  0  0  0
 10  5  1  0  0  0  0
 22 18  1  0  0  0  0
 48 26  2  0  0  0  0
 65 60  2  0  0  0  0
 23  7  1  0  0  0  0
 46 27  2  0  0  0  0
 32 28  2  0  0  0  0
 45 33  2  0  0  0  0
 43 34  2  0  0  0  0
 42 36  2  0  0  0  0
  1 72  1  0  0  0  0
  6 73  1  0  0  0  0
  9 74  1  0  0  0  0
 17 75  1  0  0  0  0
 18 76  1  0  0  0  0
 19 77  1  0  0  0  0
 20 78  1  0  0  0  0
 21 79  1  0  0  0  0
 22 80  1  0  0  0  0
 22 81  1  0  0  0  0
 23 82  1  0  0  0  0
 38 83  1  0  0  0  0
 38 84  1  0  0  0  0
 39 85  1  0  0  0  0
 39 86  1  0  0  0  0
 39 87  1  0  0  0  0
 50 88  1  0  0  0  0
 50 89  1  0  0  0  0
 51 90  1  0  0  0  0
 51 91  1  0  0  0  0
 51 92  1  0  0  0  0
 52 93  1  0  0  0  0
 52 94  1  0  0  0  0
 53 95  1  0  0  0  0
 53 96  1  0  0  0  0
 53 97  1  0  0  0  0
 54 98  1  0  0  0  0
 54 99  1  0  0  0  0
 55100  1  0  0  0  0
 55101  1  0  0  0  0
 55102  1  0  0  0  0
 56103  1  0  0  0  0
 64104  1  0  0  0  0
M  END
