110

C          3.45990        1.13600       -5.51440
C          2.38320        1.16760       -6.36450
C          0.97100        1.20810       -5.97630
O          0.51160        1.24410       -4.84590
C          0.19530        1.20530       -7.22700
C         -1.19130        1.22680       -7.35390
C         -1.63380        1.21090       -8.65470
C         -0.75990        1.18270       -9.74940
C          0.61030        1.16660       -9.63740
C          1.08240        1.17540       -8.32210
C          2.45310        1.15580       -7.81240
C          3.58460        1.12940       -8.58860
C          3.58770        1.11720       -9.99920
N          3.67540        1.10100      -11.14410
C          4.91270        1.11040       -8.11500
N          6.02300        1.09570       -7.81760
C         -1.88710        1.16960      -10.75100
C         -2.22970       -0.17850      -11.43190
C         -1.80130       -1.26350      -10.47540
C         -2.62840       -1.23920       -9.43880
C         -3.63120       -0.13720       -9.67580
C         -3.75000       -0.20400      -11.20680
C         -2.86110        1.19900       -9.53110
C          3.52550        1.11910       -4.11640
C          4.73610        1.04650       -3.40860
C          6.09920        0.94220       -4.01100
C          6.42600       -0.51050       -4.36490
C          4.52740        1.01360       -2.03560
Se         5.71790        0.90240       -0.55960
C          4.16620        0.94040        0.46560
C          3.79460        0.93090        1.81430
C          4.59670        0.96290        2.97510
C          3.95680        1.05190        4.25040
N          4.81980        1.12340        5.25100
S          6.31890        1.08090        4.63260
N          5.91700        0.96830        3.06590
C          2.54820        0.98510        4.30630
C          1.69960        0.88370        5.41150
Se         1.81890        0.86520        7.26730
C         -0.04990        0.52890        7.20200
C         -0.99730        0.31790        8.19120
C         -0.64370        0.28160        9.64180
C         -0.37920       -1.15550       10.09770
C         -2.27490        0.08010        7.64830
S         -2.25860        0.14160        5.88560
C         -0.56620        0.46690        5.89310
C          0.40670        0.67340        4.91050
N          0.43950        0.66390        3.54070
C          1.74040        0.87540        3.13560
C          2.37130        0.96920        1.86480
N          1.89890        1.03950        0.56450
C          2.98240        1.02340       -0.27750
C          3.17340        1.07020       -1.66420
S          2.13380        1.16360       -3.03670
C          0.66060        1.59270        0.05830
C          0.68460        3.11880        0.12280
C         -0.72180        0.22700        2.80070
C         -1.73820        1.35250        2.61090
C         -3.39760       -0.18280        8.43240
C         -4.70370       -0.44930        8.08390
C         -5.24310       -0.49410        6.72590
O         -4.65080       -0.31160        5.67570
C         -6.68060       -0.80210        6.86890
C         -7.63310       -0.95020        5.88290
C         -8.93640       -1.24220        6.26660
Cl       -10.15350       -1.43540        5.07000
C         -9.25790       -1.37870        7.62030
Cl       -10.87280       -1.73950        8.08210
C         -8.29240       -1.22770        8.61090
C         -6.99280       -0.93690        8.23250
C         -5.77580       -0.72320        9.01700
C         -5.70310       -0.78550       10.38630
C         -4.54170       -0.59240       11.16210
N         -3.64380       -0.45100       11.86560
C         -6.80380       -1.06060       11.22470
N         -7.65260       -1.27760       11.96660
H          4.43310        1.10750       -5.98460
H         -1.82730        1.25170       -6.48270
H          1.26600        1.14730      -10.49150
H         -1.91600        2.00530      -11.44730
H         -1.87250       -0.27130      -12.45390
H         -0.93340       -1.88010      -10.61940
H         -2.58950       -1.83150       -8.54330
H         -4.55100       -0.19290       -9.09940
H         -4.26730        0.65110      -11.63980
H         -4.21160       -1.12740      -11.55330
H         -3.52790        2.05340       -9.43160
H          6.18890        1.56380       -4.90290
H          6.82190        1.29870       -3.27000
H          6.37500       -1.13470       -3.47500
H          7.42760       -0.57300       -4.78040
H          5.72360       -0.89480       -5.10090
H          0.26770        0.87180        9.78030
H         -1.43210        0.71950       10.25520
H         -1.26720       -1.77000        9.96950
H         -0.10410       -1.16440       11.14820
H          0.43270       -1.58990        9.51790
H          0.56740        1.27060       -0.98180
H         -0.19270        1.21350        0.60760
H         -0.24480        3.51860       -0.27260
H          0.80720        3.45690        1.15030
H          1.50860        3.50970       -0.46910
H         -0.39450       -0.20580        1.85400
H         -1.19660       -0.57290        3.37860
H         -2.53430        1.02260        1.94960
H         -2.18080        1.61440        3.56790
H         -1.27510        2.24350        2.19430
H         -3.18770       -0.17640        9.49300
H         -7.37110       -0.84210        4.84230
H         -8.58010       -1.34020        9.64310
