
  xtb     02102223233D
 energy: -162.754147615303 gnorm: 0.000336919378 xtb: 6.4.1 (unknown)
 91102  0     0  0            999 V2000
    2.5755   -4.0789    2.7437 C   0  0  0  0  0  0  0  0  0  0  0  0
    3.7867   -3.8817    2.1410 C   0  0  0  0  0  0  0  0  0  0  0  0
    4.2881   -2.6858    1.4242 C   0  0  0  0  0  0  0  0  0  0  0  0
    3.9391   -1.5258    1.5284 O   0  0  0  0  0  0  0  0  0  0  0  0
    5.3463   -3.1765    0.5245 C   0  0  0  0  0  0  0  0  0  0  0  0
    5.9969   -2.4452   -0.4675 C   0  0  0  0  0  0  0  0  0  0  0  0
    6.8915   -3.1809   -1.2054 C   0  0  0  0  0  0  0  0  0  0  0  0
    7.1290   -4.5427   -0.9713 C   0  0  0  0  0  0  0  0  0  0  0  0
    6.5135   -5.2689    0.0208 C   0  0  0  0  0  0  0  0  0  0  0  0
    5.5945   -4.5388    0.7811 C   0  0  0  0  0  0  0  0  0  0  0  0
    4.7317   -4.9597    1.8805 C   0  0  0  0  0  0  0  0  0  0  0  0
    4.8424   -6.1315    2.5784 C   0  0  0  0  0  0  0  0  0  0  0  0
    4.0734   -6.4709    3.7129 C   0  0  0  0  0  0  0  0  0  0  0  0
    3.5060   -6.8044    4.6536 N   0  0  0  0  0  0  0  0  0  0  0  0
    5.7936   -7.1336    2.2929 C   0  0  0  0  0  0  0  0  0  0  0  0
    6.5410   -7.9849    2.1075 N   0  0  0  0  0  0  0  0  0  0  0  0
    8.1055   -4.6494   -2.1166 C   0  0  0  0  0  0  0  0  0  0  0  0
    7.5757   -5.3067   -3.4094 C   0  0  0  0  0  0  0  0  0  0  0  0
    8.5468   -4.8477   -4.4733 C   0  0  0  0  0  0  0  0  0  0  0  0
    8.3277   -3.5572   -4.6904 C   0  0  0  0  0  0  0  0  0  0  0  0
    7.2050   -3.1223   -3.7766 C   0  0  0  0  0  0  0  0  0  0  0  0
    6.3753   -4.4124   -3.7465 C   0  0  0  0  0  0  0  0  0  0  0  0
    7.8454   -3.1301   -2.3720 C   0  0  0  0  0  0  0  0  0  0  0  0
    1.4790   -3.2024    2.8831 C   0  0  0  0  0  0  0  0  0  0  0  0
   -0.0920   -3.9540    3.2318 S   0  0  0  0  0  0  0  0  0  0  0  0
   -0.8677   -2.4450    3.0077 C   0  0  0  0  0  0  0  0  0  0  0  0
   -2.1494   -1.8806    2.9361 C   0  0  0  0  0  0  0  0  0  0  0  0
   -3.4292   -2.4306    3.1694 C   0  0  0  0  0  0  0  0  0  0  0  0
   -4.5859   -1.6041    2.9797 C   0  0  0  0  0  0  0  0  0  0  0  0
   -5.7125   -2.2385    3.2627 N   0  0  0  0  0  0  0  0  0  0  0  0
   -5.3500   -3.7461    3.7274 S   0  0  0  0  0  0  0  0  0  0  0  0
   -3.7419   -3.6495    3.5799 N   0  0  0  0  0  0  0  0  0  0  0  0
   -4.4146   -0.3030    2.4560 C   0  0  0  0  0  0  0  0  0  0  0  0
   -5.3443    0.6116    1.9448 C   0  0  0  0  0  0  0  0  0  0  0  0
   -4.6146    1.6669    1.3720 C   0  0  0  0  0  0  0  0  0  0  0  0
   -3.2736    1.4558    1.5603 N   0  0  0  0  0  0  0  0  0  0  0  0
   -2.3134    2.2420    0.8194 C   0  0  0  0  0  0  0  0  0  0  0  0
   -1.6972    1.4463   -0.3288 C   0  0  0  0  0  0  0  0  0  0  0  0
   -3.1198    0.2438    2.2094 C   0  0  0  0  0  0  0  0  0  0  0  0
   -1.9758   -0.5136    2.5668 C   0  0  0  0  0  0  0  0  0  0  0  0
   -0.6180   -0.2413    2.5088 N   0  0  0  0  0  0  0  0  0  0  0  0
    0.0510   -1.4163    2.7429 C   0  0  0  0  0  0  0  0  0  0  0  0
    1.3757   -1.8352    2.6889 C   0  0  0  0  0  0  0  0  0  0  0  0
    0.0772    1.0187    2.6730 C   0  0  0  0  0  0  0  0  0  0  0  0
   -0.4698    1.8102    3.8578 C   0  0  0  0  0  0  0  0  0  0  0  0
   -5.3975    2.6054    0.7092 C   0  0  0  0  0  0  0  0  0  0  0  0
   -6.7413    2.2741    0.7683 C   0  0  0  0  0  0  0  0  0  0  0  0
   -7.0292    0.7914    1.7027 S   0  0  0  0  0  0  0  0  0  0  0  0
   -7.8674    2.8724    0.1708 C   0  0  0  0  0  0  0  0  0  0  0  0
   -7.9675    3.8854   -0.7396 C   0  0  0  0  0  0  0  0  0  0  0  0
   -9.5661    4.3051   -1.3544 S   0  0  0  0  0  0  0  0  0  0  0  0
   -8.8925    5.4588   -2.4773 C   0  0  0  0  0  0  0  0  0  0  0  0
   -9.7079    6.1505   -3.3384 C   0  0  0  0  0  0  0  0  0  0  0  0
   -9.3085    7.0899   -4.3034 C   0  0  0  0  0  0  0  0  0  0  0  0
   -9.0508    7.8580   -5.1182 N   0  0  0  0  0  0  0  0  0  0  0  0
  -11.0995    5.9221   -3.3039 C   0  0  0  0  0  0  0  0  0  0  0  0
  -12.2323    5.7433   -3.2859 N   0  0  0  0  0  0  0  0  0  0  0  0
   -7.5432    5.5378   -2.3426 N   0  0  0  0  0  0  0  0  0  0  0  0
   -6.6802    6.3851   -3.1455 C   0  0  0  0  0  0  0  0  0  0  0  0
   -6.3236    5.7242   -4.4718 C   0  0  0  0  0  0  0  0  0  0  0  0
   -6.9598    4.7032   -1.3963 C   0  0  0  0  0  0  0  0  0  0  0  0
   -5.7596    4.7183   -1.2008 O   0  0  0  0  0  0  0  0  0  0  0  0
    2.3585   -5.0905    3.0678 H   0  0  0  0  0  0  0  0  0  0  0  0
    5.7799   -1.3992   -0.6178 H   0  0  0  0  0  0  0  0  0  0  0  0
    6.7061   -6.3151    0.1911 H   0  0  0  0  0  0  0  0  0  0  0  0
    9.1119   -4.9712   -1.8573 H   0  0  0  0  0  0  0  0  0  0  0  0
    7.3991   -6.3763   -3.3366 H   0  0  0  0  0  0  0  0  0  0  0  0
    9.3043   -5.4751   -4.9048 H   0  0  0  0  0  0  0  0  0  0  0  0
    8.8655   -2.8908   -5.3390 H   0  0  0  0  0  0  0  0  0  0  0  0
    6.6903   -2.2013   -4.0375 H   0  0  0  0  0  0  0  0  0  0  0  0
    5.5902   -4.4187   -2.9925 H   0  0  0  0  0  0  0  0  0  0  0  0
    5.9470   -4.6487   -4.7192 H   0  0  0  0  0  0  0  0  0  0  0  0
    8.6782   -2.4359   -2.2788 H   0  0  0  0  0  0  0  0  0  0  0  0
   -2.8604    3.0936    0.4108 H   0  0  0  0  0  0  0  0  0  0  0  0
   -1.5510    2.6401    1.4889 H   0  0  0  0  0  0  0  0  0  0  0  0
   -2.4743    1.1442   -1.0271 H   0  0  0  0  0  0  0  0  0  0  0  0
   -1.1971    0.5506    0.0314 H   0  0  0  0  0  0  0  0  0  0  0  0
   -0.9761    2.0616   -0.8601 H   0  0  0  0  0  0  0  0  0  0  0  0
    2.2297   -1.2193    2.4805 H   0  0  0  0  0  0  0  0  0  0  0  0
    1.1229    0.7685    2.8622 H   0  0  0  0  0  0  0  0  0  0  0  0
    0.0510    1.6043    1.7527 H   0  0  0  0  0  0  0  0  0  0  0  0
    0.0787    2.7423    3.9638 H   0  0  0  0  0  0  0  0  0  0  0  0
   -0.3545    1.2352    4.7740 H   0  0  0  0  0  0  0  0  0  0  0  0
   -1.5259    2.0372    3.7321 H   0  0  0  0  0  0  0  0  0  0  0  0
   -5.0501    3.4767    0.1887 H   0  0  0  0  0  0  0  0  0  0  0  0
   -8.8098    2.4140    0.4496 H   0  0  0  0  0  0  0  0  0  0  0  0
   -7.1690    7.3466   -3.3069 H   0  0  0  0  0  0  0  0  0  0  0  0
   -5.7733    6.5346   -2.5529 H   0  0  0  0  0  0  0  0  0  0  0  0
   -7.2120    5.5511   -5.0743 H   0  0  0  0  0  0  0  0  0  0  0  0
   -5.8225    4.7750   -4.2947 H   0  0  0  0  0  0  0  0  0  0  0  0
   -5.6558    6.3745   -5.0286 H   0  0  0  0  0  0  0  0  0  0  0  0
  1  2  2  0  0  0  0
  2  3  1  0  0  0  0
  3  4  2  0  0  0  0
  3  5  1  0  0  0  0
  5  6  2  0  0  0  0
  6  7  1  0  0  0  0
  7  8  2  0  0  0  0
  8  9  1  0  0  0  0
  9 10  2  0  0  0  0
 10 11  1  0  0  0  0
 11 12  2  0  0  0  0
 12 13  1  0  0  0  0
 13 14  3  0  0  0  0
 12 15  1  0  0  0  0
 15 16  3  0  0  0  0
  8 17  1  0  0  0  0
 17 18  1  0  0  0  0
 18 19  1  0  0  0  0
 19 20  2  0  0  0  0
 20 21  1  0  0  0  0
 21 22  1  0  0  0  0
 21 23  1  0  0  0  0
  1 24  1  0  0  0  0
 24 25  1  0  0  0  0
 25 26  1  0  0  0  0
 26 27  1  0  0  0  0
 27 28  1  0  0  0  0
 28 29  1  0  0  0  0
 29 30  2  0  0  0  0
 30 31  1  0  0  0  0
 31 32  1  0  0  0  0
 29 33  1  0  0  0  0
 33 34  1  0  0  0  0
 34 35  2  0  0  0  0
 35 36  1  0  0  0  0
 36 37  1  0  0  0  0
 37 38  1  0  0  0  0
 36 39  1  0  0  0  0
 39 40  1  0  0  0  0
 40 41  1  0  0  0  0
 41 42  1  0  0  0  0
 42 43  1  0  0  0  0
 41 44  1  0  0  0  0
 44 45  1  0  0  0  0
 35 46  1  0  0  0  0
 46 47  2  0  0  0  0
 47 48  1  0  0  0  0
 47 49  1  0  0  0  0
 49 50  2  0  0  0  0
 50 51  1  0  0  0  0
 51 52  1  0  0  0  0
 52 53  2  0  0  0  0
 53 54  1  0  0  0  0
 54 55  3  0  0  0  0
 53 56  1  0  0  0  0
 56 57  3  0  0  0  0
 52 58  1  0  0  0  0
 58 59  1  0  0  0  0
 59 60  1  0  0  0  0
 58 61  1  0  0  0  0
 61 62  2  0  0  0  0
 11  2  1  0  0  0  0
 23 17  1  0  0  0  0
 43 24  2  0  0  0  0
 61 50  1  0  0  0  0
 10  5  1  0  0  0  0
 22 18  1  0  0  0  0
 42 26  2  0  0  0  0
 23  7  1  0  0  0  0
 40 27  2  0  0  0  0
 32 28  2  0  0  0  0
 39 33  2  0  0  0  0
 48 34  1  0  0  0  0
  1 63  1  0  0  0  0
  6 64  1  0  0  0  0
  9 65  1  0  0  0  0
 17 66  1  0  0  0  0
 18 67  1  0  0  0  0
 19 68  1  0  0  0  0
 20 69  1  0  0  0  0
 21 70  1  0  0  0  0
 22 71  1  0  0  0  0
 22 72  1  0  0  0  0
 23 73  1  0  0  0  0
 37 74  1  0  0  0  0
 37 75  1  0  0  0  0
 38 76  1  0  0  0  0
 38 77  1  0  0  0  0
 38 78  1  0  0  0  0
 43 79  1  0  0  0  0
 44 80  1  0  0  0  0
 44 81  1  0  0  0  0
 45 82  1  0  0  0  0
 45 83  1  0  0  0  0
 45 84  1  0  0  0  0
 46 85  1  0  0  0  0
 49 86  1  0  0  0  0
 59 87  1  0  0  0  0
 59 88  1  0  0  0  0
 60 89  1  0  0  0  0
 60 90  1  0  0  0  0
 60 91  1  0  0  0  0
M  END
