122

C         -4.09230        4.08660        3.31430
C         -5.12890        4.29570        2.44650
C         -5.10320        4.04440        0.99260
O         -4.26190        3.44230        0.35270
C         -6.26340        4.76920        0.43950
C         -6.62070        4.87050       -0.90260
C         -7.73520        5.64210       -1.12850
C         -8.44190        6.27290       -0.09610
C         -8.10370        6.17730        1.23290
C         -6.97400        5.39390        1.48380
C         -6.32200        5.06210        2.74620
C         -6.80460        5.33090        4.00070
C         -7.97460        6.07170        4.26330
N         -8.91260        6.67230        4.54300
C         -6.22520        4.84960        5.19380
N         -5.83410        4.45510        6.19900
C         -9.42780        6.90260       -1.04800
C         -9.24780        8.40400       -1.38330
C         -7.78260        8.71280       -1.20040
C         -7.11700        8.11240       -2.17790
C         -8.12050        7.38610       -3.03940
C         -9.32100        8.33810       -2.91720
C         -8.64330        6.19560       -2.19790
C         -2.92770        3.30180        3.14840
S         -1.46250        4.03690        3.82470
C         -0.53720        2.73520        3.22660
C          0.81100        2.35400        3.11950
C          2.01710        2.90060        3.61080
C          3.25110        2.20130        3.36200
N          4.28910        2.79650        3.92770
S          3.76760        4.12010        4.69960
N          2.19440        3.98880        4.34250
C          3.24350        1.07120        2.51290
C          4.27540        0.33170        1.90920
S          6.00360        0.24230        1.92630
C          5.92890       -0.96130        0.66400
C          6.93160       -1.67300       -0.03420
C          8.39110       -1.45690        0.21710
C          8.89010       -0.22640       -0.54210
C          6.38390       -2.50780       -0.96580
S          4.63290       -2.44770       -0.99790
C          4.63130       -1.26740        0.26580
C          3.67790       -0.53210        0.98730
N          2.31430       -0.40130        1.02810
C          2.02930        0.57640        1.96970
C          0.80670        1.13210        2.40530
N         -0.49670        0.72670        2.16970
C         -1.32800        1.73780        2.63440
C         -2.69820        2.04890        2.58150
C         -3.77370        1.14110        2.07380
C         -4.87560        0.88210        3.10240
C         -0.86480       -0.67500        2.21560
C         -1.42190       -1.06410        3.58490
C          1.51640       -0.77530       -0.12310
C          1.18430        0.43710       -0.98860
C          7.10760       -3.42550       -1.90740
C          6.34890       -3.56910       -3.18580
C          5.46910       -4.55580       -3.39890
C          5.13880       -5.54270       -2.40230
C          4.07890       -6.40860       -2.56180
C          3.17810       -6.33080       -3.71810
O          3.01960       -5.34540       -4.41160
N          2.47110       -7.49110       -4.01430
C          1.70300       -7.48550       -5.25520
C          2.53710       -7.99070       -6.42490
C          2.47160       -8.61250       -3.23680
S          1.75670      -10.00780       -3.75080
N          3.04220       -8.52540       -2.00060
C          3.80780       -7.44890       -1.56600
O          4.22480       -7.43640       -0.42380
C          2.89990       -9.64020       -1.06990
C          4.01500      -10.66130       -1.25120
C          5.99940       -5.58040       -1.17900
C          7.31670       -4.82900       -1.32190
H         -4.09280        4.67850        4.22430
H         -6.04660        4.37230       -1.66820
H         -8.65260        6.67150        2.01720
H        -10.47180        6.63310       -0.90140
H         -9.94470        9.06600       -0.87630
H         -7.38700        9.27090       -0.37210
H         -6.05430        8.06810       -2.32890
H         -7.79110        7.12150       -4.04090
H        -10.25190        7.91250       -3.28950
H         -9.14290        9.30310       -3.38930
H         -9.17530        5.46230       -2.80120
H          8.96400       -2.33580       -0.08120
H          8.53730       -1.29910        1.28760
H          8.75060       -0.35450       -1.61360
H          8.34080        0.65700       -0.22650
H          9.94700       -0.06540       -0.34570
H         -3.33380        0.19060        1.77790
H         -4.20760        1.58910        1.17750
H         -4.46370        0.45150        4.01360
H         -5.39040        1.80010        3.36980
H         -5.60440        0.18610        2.69350
H          0.03830       -1.26120        2.04980
H         -1.58760       -0.89800        1.42470
H         -1.66120       -2.12440        3.59390
H         -0.68000       -0.86770        4.35620
H         -2.31940       -0.50180        3.82140
H          0.59550       -1.27580        0.17590
H          2.11310       -1.48930       -0.69620
H          0.64920        0.11630       -1.87780
H          0.56170        1.14070       -0.44130
H          2.09660        0.94420       -1.29440
H          8.08520       -2.97740       -2.11600
H          6.51170       -2.81870       -3.94560
H          4.93590       -4.58870       -4.33470
H          0.82320       -8.11470       -5.11400
H          1.39640       -6.45260       -5.42910
H          2.85010       -9.01750       -6.25250
H          1.94390       -7.95600       -7.33380
H          3.41750       -7.36620       -6.55740
H          1.92700      -10.10310       -1.24050
H          2.93830       -9.21580       -0.06510
H          3.88720      -11.46760       -0.53510
H          3.98770      -11.07930       -2.25450
H          4.98320      -10.19510       -1.08420
H          5.41040       -5.15610       -0.35990
H          6.19860       -6.61260       -0.88550
H          7.97860       -5.38010       -1.99430
H          7.80040       -4.76170       -0.34640
