
  xtb     02022207493D
 energy: -188.872334553869 gnorm: 0.000162992919 xtb: 6.4.1 (unknown)
108121  0     0  0            999 V2000
   -2.9690   -4.6082   -2.7716 C   0  0  0  0  0  0  0  0  0  0  0  0
   -2.9844   -4.5255   -4.1338 C   0  0  0  0  0  0  0  0  0  0  0  0
   -3.8823   -5.4360   -4.8966 C   0  0  0  0  0  0  0  0  0  0  0  0
   -4.4959   -6.3810   -4.4534 O   0  0  0  0  0  0  0  0  0  0  0  0
   -3.8993   -4.9138   -6.2770 C   0  0  0  0  0  0  0  0  0  0  0  0
   -4.6688   -5.3691   -7.3449 C   0  0  0  0  0  0  0  0  0  0  0  0
   -4.4809   -4.6662   -8.5112 C   0  0  0  0  0  0  0  0  0  0  0  0
   -3.6061   -3.5757   -8.6070 C   0  0  0  0  0  0  0  0  0  0  0  0
   -2.8364   -3.1187   -7.5640 C   0  0  0  0  0  0  0  0  0  0  0  0
   -2.9975   -3.8343   -6.3754 C   0  0  0  0  0  0  0  0  0  0  0  0
   -2.3162   -3.6776   -5.0914 C   0  0  0  0  0  0  0  0  0  0  0  0
   -1.1196   -3.0276   -4.9155 C   0  0  0  0  0  0  0  0  0  0  0  0
   -0.4737   -2.2611   -5.9053 C   0  0  0  0  0  0  0  0  0  0  0  0
    0.0920   -1.5969   -6.6523 N   0  0  0  0  0  0  0  0  0  0  0  0
   -0.3443   -3.1042   -3.7458 C   0  0  0  0  0  0  0  0  0  0  0  0
    0.3582   -3.1400   -2.8373 N   0  0  0  0  0  0  0  0  0  0  0  0
   -3.9224   -3.3461  -10.0632 C   0  0  0  0  0  0  0  0  0  0  0  0
   -2.8783   -3.8159  -11.1057 C   0  0  0  0  0  0  0  0  0  0  0  0
   -2.1132   -4.9469  -10.4640 C   0  0  0  0  0  0  0  0  0  0  0  0
   -2.9301   -5.9879  -10.3744 C   0  0  0  0  0  0  0  0  0  0  0  0
   -4.2620   -5.5799  -10.9541 C   0  0  0  0  0  0  0  0  0  0  0  0
   -3.7938   -4.6100  -12.0509 C   0  0  0  0  0  0  0  0  0  0  0  0
   -4.8875   -4.5692   -9.9604 C   0  0  0  0  0  0  0  0  0  0  0  0
   -2.4821   -3.7250   -1.7832 C   0  0  0  0  0  0  0  0  0  0  0  0
   -2.0070   -4.4735   -0.2536 S   0  0  0  0  0  0  0  0  0  0  0  0
   -1.5235   -2.9504    0.3435 C   0  0  0  0  0  0  0  0  0  0  0  0
   -0.9199   -2.3941    1.4854 C   0  0  0  0  0  0  0  0  0  0  0  0
   -0.3133   -2.9539    2.6335 C   0  0  0  0  0  0  0  0  0  0  0  0
    0.4299   -2.0974    3.5232 C   0  0  0  0  0  0  0  0  0  0  0  0
    1.0132   -2.7736    4.4998 N   0  0  0  0  0  0  0  0  0  0  0  0
    0.6574   -4.3425    4.3265 S   0  0  0  0  0  0  0  0  0  0  0  0
   -0.2559   -4.2248    2.9970 N   0  0  0  0  0  0  0  0  0  0  0  0
    0.4072   -0.6990    3.3143 C   0  0  0  0  0  0  0  0  0  0  0  0
    0.9343    0.3972    4.0185 C   0  0  0  0  0  0  0  0  0  0  0  0
    1.9975    0.7160    5.3436 S   0  0  0  0  0  0  0  0  0  0  0  0
    1.8070    2.4328    5.0671 C   0  0  0  0  0  0  0  0  0  0  0  0
    2.4234    3.5630    5.6243 C   0  0  0  0  0  0  0  0  0  0  0  0
    3.3434    3.5153    6.8009 C   0  0  0  0  0  0  0  0  0  0  0  0
    2.7318    2.7521    7.9756 C   0  0  0  0  0  0  0  0  0  0  0  0
    1.9985    4.7249    4.9927 C   0  0  0  0  0  0  0  0  0  0  0  0
    0.7792    4.4134    3.7603 S   0  0  0  0  0  0  0  0  0  0  0  0
    0.9270    2.7193    4.0159 C   0  0  0  0  0  0  0  0  0  0  0  0
    0.4422    1.5590    3.4081 C   0  0  0  0  0  0  0  0  0  0  0  0
   -0.3483    1.2289    2.3374 N   0  0  0  0  0  0  0  0  0  0  0  0
   -0.3414   -0.1482    2.2404 C   0  0  0  0  0  0  0  0  0  0  0  0
   -0.8574   -1.0017    1.2457 C   0  0  0  0  0  0  0  0  0  0  0  0
   -1.3466   -0.7080   -0.0209 N   0  0  0  0  0  0  0  0  0  0  0  0
   -1.7628   -1.9117   -0.5698 C   0  0  0  0  0  0  0  0  0  0  0  0
   -2.3353   -2.3382   -1.7782 C   0  0  0  0  0  0  0  0  0  0  0  0
   -2.9145   -1.4334   -2.8205 C   0  0  0  0  0  0  0  0  0  0  0  0
   -3.9727   -0.5108   -2.2102 C   0  0  0  0  0  0  0  0  0  0  0  0
   -0.6936    0.2861   -0.8605 C   0  0  0  0  0  0  0  0  0  0  0  0
    0.6749   -0.2041   -1.3291 C   0  0  0  0  0  0  0  0  0  0  0  0
   -1.3953    2.1146    1.8727 C   0  0  0  0  0  0  0  0  0  0  0  0
   -2.3454    2.4895    3.0099 C   0  0  0  0  0  0  0  0  0  0  0  0
    2.3709    6.0774    5.1811 C   0  0  0  0  0  0  0  0  0  0  0  0
    3.5728    6.6043    5.5420 C   0  0  0  0  0  0  0  0  0  0  0  0
    3.6342    8.0162    6.0261 C   0  0  0  0  0  0  0  0  0  0  0  0
    2.7370    8.8232    5.9713 O   0  0  0  0  0  0  0  0  0  0  0  0
    4.9832    8.1621    6.6013 C   0  0  0  0  0  0  0  0  0  0  0  0
    5.5424    9.2408    7.2840 C   0  0  0  0  0  0  0  0  0  0  0  0
    4.8245   10.3571    7.4772 O   0  0  0  0  0  0  0  0  0  0  0  0
    6.8555    9.1037    7.7473 C   0  0  0  0  0  0  0  0  0  0  0  0
    7.5676    7.9376    7.5420 C   0  0  0  0  0  0  0  0  0  0  0  0
    7.0169    6.8619    6.8562 C   0  0  0  0  0  0  0  0  0  0  0  0
    5.7239    6.9852    6.3810 C   0  0  0  0  0  0  0  0  0  0  0  0
    4.9065    6.0571    5.5986 C   0  0  0  0  0  0  0  0  0  0  0  0
    5.3942    5.0090    4.8602 C   0  0  0  0  0  0  0  0  0  0  0  0
    4.6466    4.3066    3.8943 C   0  0  0  0  0  0  0  0  0  0  0  0
    4.1114    3.7316    3.0569 N   0  0  0  0  0  0  0  0  0  0  0  0
    6.7325    4.5682    4.8974 C   0  0  0  0  0  0  0  0  0  0  0  0
    7.8009    4.1479    4.9003 N   0  0  0  0  0  0  0  0  0  0  0  0
   -3.4320   -5.5129   -2.3848 H   0  0  0  0  0  0  0  0  0  0  0  0
   -5.3385   -6.2066   -7.2281 H   0  0  0  0  0  0  0  0  0  0  0  0
   -2.1702   -2.2760   -7.6480 H   0  0  0  0  0  0  0  0  0  0  0  0
   -4.3524   -2.3777  -10.3116 H   0  0  0  0  0  0  0  0  0  0  0  0
   -2.2815   -3.0175  -11.5384 H   0  0  0  0  0  0  0  0  0  0  0  0
   -1.1064   -4.8575  -10.1001 H   0  0  0  0  0  0  0  0  0  0  0  0
   -2.7420   -6.9431   -9.9203 H   0  0  0  0  0  0  0  0  0  0  0  0
   -4.9243   -6.3889  -11.2508 H   0  0  0  0  0  0  0  0  0  0  0  0
   -4.6000   -4.0140  -12.4767 H   0  0  0  0  0  0  0  0  0  0  0  0
   -3.2447   -5.1090  -12.8479 H   0  0  0  0  0  0  0  0  0  0  0  0
   -5.9461   -4.4025  -10.1510 H   0  0  0  0  0  0  0  0  0  0  0  0
    3.5789    4.5314    7.1218 H   0  0  0  0  0  0  0  0  0  0  0  0
    4.2773    3.0266    6.5029 H   0  0  0  0  0  0  0  0  0  0  0  0
    1.7862    3.2036    8.2675 H   0  0  0  0  0  0  0  0  0  0  0  0
    3.4086    2.7863    8.8255 H   0  0  0  0  0  0  0  0  0  0  0  0
    2.5568    1.7116    7.7179 H   0  0  0  0  0  0  0  0  0  0  0  0
   -2.1242   -0.8408   -3.2923 H   0  0  0  0  0  0  0  0  0  0  0  0
   -3.3913   -2.0300   -3.5980 H   0  0  0  0  0  0  0  0  0  0  0  0
   -4.3636    0.1613   -2.9704 H   0  0  0  0  0  0  0  0  0  0  0  0
   -4.7960   -1.1035   -1.8178 H   0  0  0  0  0  0  0  0  0  0  0  0
   -3.5655    0.0829   -1.3962 H   0  0  0  0  0  0  0  0  0  0  0  0
   -0.5603    1.2090   -0.2994 H   0  0  0  0  0  0  0  0  0  0  0  0
   -1.3367    0.4890   -1.7171 H   0  0  0  0  0  0  0  0  0  0  0  0
    1.3392   -0.3312   -0.4771 H   0  0  0  0  0  0  0  0  0  0  0  0
    1.1139    0.5231   -2.0067 H   0  0  0  0  0  0  0  0  0  0  0  0
    0.5921   -1.1588   -1.8443 H   0  0  0  0  0  0  0  0  0  0  0  0
   -0.9380    3.0195    1.4596 H   0  0  0  0  0  0  0  0  0  0  0  0
   -1.9685    1.6039    1.0995 H   0  0  0  0  0  0  0  0  0  0  0  0
   -1.8257    3.0472    3.7837 H   0  0  0  0  0  0  0  0  0  0  0  0
   -3.1501    3.1077    2.6219 H   0  0  0  0  0  0  0  0  0  0  0  0
   -2.7748    1.5929    3.4518 H   0  0  0  0  0  0  0  0  0  0  0  0
    1.5824    6.8101    5.0299 H   0  0  0  0  0  0  0  0  0  0  0  0
    5.3398   11.0207    7.9537 H   0  0  0  0  0  0  0  0  0  0  0  0
    7.3143    9.9286    8.2762 H   0  0  0  0  0  0  0  0  0  0  0  0
    8.5755    7.8618    7.9207 H   0  0  0  0  0  0  0  0  0  0  0  0
    7.5892    5.9609    6.7131 H   0  0  0  0  0  0  0  0  0  0  0  0
  1  2  2  0  0  0  0
  2  3  1  0  0  0  0
  3  4  2  0  0  0  0
  3  5  1  0  0  0  0
  5  6  2  0  0  0  0
  6  7  1  0  0  0  0
  7  8  2  0  0  0  0
  8  9  1  0  0  0  0
  9 10  2  0  0  0  0
 10 11  1  0  0  0  0
 11 12  2  0  0  0  0
 12 13  1  0  0  0  0
 13 14  3  0  0  0  0
 12 15  1  0  0  0  0
 15 16  3  0  0  0  0
  8 17  1  0  0  0  0
 17 18  1  0  0  0  0
 18 19  1  0  0  0  0
 19 20  2  0  0  0  0
 20 21  1  0  0  0  0
 21 22  1  0  0  0  0
 21 23  1  0  0  0  0
  1 24  1  0  0  0  0
 24 25  1  0  0  0  0
 25 26  1  0  0  0  0
 26 27  1  0  0  0  0
 27 28  1  0  0  0  0
 28 29  1  0  0  0  0
 29 30  2  0  0  0  0
 30 31  1  0  0  0  0
 31 32  1  0  0  0  0
 29 33  1  0  0  0  0
 33 34  1  0  0  0  0
 34 35  1  0  0  0  0
 35 36  1  0  0  0  0
 36 37  1  0  0  0  0
 37 38  1  0  0  0  0
 38 39  1  0  0  0  0
 37 40  2  0  0  0  0
 40 41  1  0  0  0  0
 41 42  1  0  0  0  0
 42 43  1  0  0  0  0
 43 44  1  0  0  0  0
 44 45  1  0  0  0  0
 45 46  1  0  0  0  0
 46 47  1  0  0  0  0
 47 48  1  0  0  0  0
 48 49  1  0  0  0  0
 49 50  1  0  0  0  0
 50 51  1  0  0  0  0
 47 52  1  0  0  0  0
 52 53  1  0  0  0  0
 44 54  1  0  0  0  0
 54 55  1  0  0  0  0
 40 56  1  0  0  0  0
 56 57  2  0  0  0  0
 57 58  1  0  0  0  0
 58 59  2  0  0  0  0
 58 60  1  0  0  0  0
 60 61  2  0  0  0  0
 61 62  1  0  0  0  0
 61 63  1  0  0  0  0
 63 64  2  0  0  0  0
 64 65  1  0  0  0  0
 65 66  2  0  0  0  0
 66 67  1  0  0  0  0
 67 68  2  0  0  0  0
 68 69  1  0  0  0  0
 69 70  3  0  0  0  0
 68 71  1  0  0  0  0
 71 72  3  0  0  0  0
 11  2  1  0  0  0  0
 23 17  1  0  0  0  0
 49 24  2  0  0  0  0
 67 57  1  0  0  0  0
 10  5  1  0  0  0  0
 22 18  1  0  0  0  0
 48 26  2  0  0  0  0
 66 60  1  0  0  0  0
 23  7  1  0  0  0  0
 46 27  2  0  0  0  0
 32 28  2  0  0  0  0
 45 33  2  0  0  0  0
 43 34  2  0  0  0  0
 42 36  2  0  0  0  0
  1 73  1  0  0  0  0
  6 74  1  0  0  0  0
  9 75  1  0  0  0  0
 17 76  1  0  0  0  0
 18 77  1  0  0  0  0
 19 78  1  0  0  0  0
 20 79  1  0  0  0  0
 21 80  1  0  0  0  0
 22 81  1  0  0  0  0
 22 82  1  0  0  0  0
 23 83  1  0  0  0  0
 38 84  1  0  0  0  0
 38 85  1  0  0  0  0
 39 86  1  0  0  0  0
 39 87  1  0  0  0  0
 39 88  1  0  0  0  0
 50 89  1  0  0  0  0
 50 90  1  0  0  0  0
 51 91  1  0  0  0  0
 51 92  1  0  0  0  0
 51 93  1  0  0  0  0
 52 94  1  0  0  0  0
 52 95  1  0  0  0  0
 53 96  1  0  0  0  0
 53 97  1  0  0  0  0
 53 98  1  0  0  0  0
 54 99  1  0  0  0  0
 54100  1  0  0  0  0
 55101  1  0  0  0  0
 55102  1  0  0  0  0
 55103  1  0  0  0  0
 56104  1  0  0  0  0
 62105  1  0  0  0  0
 63106  1  0  0  0  0
 64107  1  0  0  0  0
 65108  1  0  0  0  0
M  END
