130

C          2.00380       -2.76870        5.75130
C          2.34260       -2.33020        7.00190
C          2.50480       -0.91200        7.39540
O          2.44560        0.06690        6.68020
C          2.60680       -0.91580        8.86730
C          2.72860        0.19520        9.69810
C          2.74730       -0.10550       11.03930
C          2.64110       -1.41710       11.52130
C          2.51980       -2.52260       10.71350
C          2.50760       -2.23780        9.34520
C          2.38900       -3.13700        8.20140
C          2.42510       -4.50760        8.24760
C          2.49860       -5.26610        9.43330
N          2.54990       -5.94480       10.35830
C          2.44010       -5.34420        7.11230
N          2.48650       -6.08350        6.23440
C          2.69630       -0.97770       12.96270
C          4.02510       -1.17170       13.73300
C          5.12720       -1.14500       12.70330
C          5.22970        0.09770       12.25130
C          4.19690        0.93350       12.96550
C          4.18210        0.23430       14.33440
C          2.81660        0.48380       12.42670
C          2.12460       -2.05400        4.54010
C          3.04930       -1.09270        4.13840
C          4.23140       -0.71710        4.90430
C          4.98820       -1.68600        5.56070
C          6.07140       -1.31820        6.33050
C          6.43110        0.01910        6.46440
C          7.54950        0.41620        7.38240
C          7.02070        0.55650        8.81180
C          5.69630        0.97650        5.77820
C          4.61340        0.61840        4.99980
C          2.75260       -0.60550        2.85630
S          3.51650        0.60080        1.84760
C          2.31590        0.31130        0.63750
C          1.93040        0.80960       -0.61420
C          2.44170        1.88880       -1.36810
C          1.75010        2.28840       -2.55700
N          2.30010        3.34620       -3.13200
S          3.58390        3.79610       -2.25390
N          3.48410        2.66080       -1.10450
C          0.64110        1.52740       -2.98780
C         -0.15990        1.64860       -4.12970
S         -0.35170        2.70100       -5.48840
C         -1.66020        1.67880       -6.05200
C         -2.48650        1.73620       -7.16930
C         -2.41060        2.75970       -8.20480
C         -2.42510        2.41590       -9.55660
C         -2.40030        3.39670      -10.52590
C         -2.35990        4.74180      -10.17870
C         -2.43890        5.80270      -11.23390
C         -3.90500        6.16600      -11.48370
C         -2.30810        5.07940       -8.83110
C         -2.32430        4.10580       -7.85370
C         -3.41990        0.67620       -7.17800
S         -3.18390       -0.42440       -5.82100
C         -1.91080        0.57320       -5.21980
C         -1.04970        0.56770       -4.11950
N         -0.84070       -0.20140       -3.00530
C          0.18530        0.37620       -2.27720
C          0.77810        0.07510       -1.02110
N          0.47090       -0.83190       -0.01930
C          1.38870       -0.67730        0.98370
C          1.63790       -1.20520        2.25530
S          0.94600       -2.40920        3.27740
C         -0.74810       -1.56380        0.24190
C         -1.93860       -0.62370        0.41390
C         -1.37960       -1.54360       -2.96450
C         -0.28130       -2.59040       -3.13250
C         -4.47730        0.62140       -8.08540
C         -5.47390       -0.31590       -8.24550
C         -5.60250       -1.56840       -7.50230
O         -4.88640       -1.98540       -6.60650
C         -6.79000       -2.24950       -8.05230
C         -7.33440       -3.46850       -7.70030
C         -8.47260       -3.90120       -8.36410
C         -9.03250       -3.10870       -9.35440
I        -10.76880       -3.78890      -10.34760
C         -8.49540       -1.88090       -9.71930
C         -7.35810       -1.44910       -9.05790
C         -6.55570       -0.23050       -9.20070
C         -6.81950        0.78480      -10.08490
C         -6.07140        1.96940      -10.24940
N         -5.53330        2.96150      -10.46700
C         -7.91050        0.78830      -10.97980
N         -8.77530        0.85530      -11.73200
H          1.53880       -3.74440        5.66060
H          2.79310        1.18940        9.28430
H          2.42440       -3.52420       11.09870
H          1.82700       -1.22790       13.56780
H          4.03010       -2.01410       14.41950
H          5.66430       -2.01720       12.37960
H          5.86970        0.47330       11.47520
H          4.35780        2.00840       12.95440
H          3.34550        0.53210       14.96500
H          5.11620        0.35740       14.88030
H          2.02450        1.18550       12.68200
H          4.72850       -2.73010        5.45680
H          6.64870       -2.07870        6.83730
H          7.97820        1.36680        7.06010
H          8.33640       -0.34040        7.36230
H          6.59950       -0.38760        9.15270
H          6.23820        1.31180        8.84910
H          7.82260        0.84700        9.48720
H          5.97010        2.01850        5.86090
H          4.03210        1.37630        4.49890
H         -2.43260        1.37360       -9.84290
H         -2.42070        3.11550      -11.56830
H         -1.89170        6.69260      -10.91580
H         -1.99450        5.43840      -12.16200
H         -4.34720        6.58890      -10.58480
H         -3.98520        6.89360      -12.28790
H         -4.47090        5.27770      -11.75220
H         -2.26380        6.12010       -8.54440
H         -2.30500        4.38330       -6.81030
H         -0.92620       -2.30300       -0.53870
H         -0.58670       -2.11320        1.17250
H         -1.77170        0.03310        1.26450
H         -2.84250       -1.19920        0.59400
H         -2.08380       -0.00500       -0.46860
H         -1.95310       -1.70250       -2.05120
H         -2.08030       -1.62180       -3.79910
H          0.47890       -2.49580       -2.36030
H         -0.71050       -3.58740       -3.08510
H          0.20180       -2.46850       -4.09930
H         -4.51150        1.47460       -8.75200
H         -6.87860       -4.06500       -6.92530
H         -8.92100       -4.84950       -8.11110
H         -8.96000       -1.29470      -10.49470
