
  xtb     02102222223D
 energy: -172.222314603875 gnorm: 0.000280740977 xtb: 6.4.1 (unknown)
 92104  0     0  0            999 V2000
    1.2757   -2.7815   -4.1896 C   0  0  0  0  0  0  0  0  0  0  0  0
    0.1288   -3.3481   -4.6735 C   0  0  0  0  0  0  0  0  0  0  0  0
   -1.2382   -3.3249   -4.1033 C   0  0  0  0  0  0  0  0  0  0  0  0
   -1.6874   -2.6171   -3.2218 O   0  0  0  0  0  0  0  0  0  0  0  0
   -1.9922   -4.3672   -4.8213 C   0  0  0  0  0  0  0  0  0  0  0  0
   -3.3007   -4.7715   -4.5640 C   0  0  0  0  0  0  0  0  0  0  0  0
   -3.7436   -5.7845   -5.3789 C   0  0  0  0  0  0  0  0  0  0  0  0
   -2.9450   -6.3532   -6.3808 C   0  0  0  0  0  0  0  0  0  0  0  0
   -1.6569   -5.9577   -6.6513 C   0  0  0  0  0  0  0  0  0  0  0  0
   -1.1861   -4.9283   -5.8309 C   0  0  0  0  0  0  0  0  0  0  0  0
    0.1059   -4.2503   -5.8166 C   0  0  0  0  0  0  0  0  0  0  0  0
    1.0790   -4.3832   -6.7713 C   0  0  0  0  0  0  0  0  0  0  0  0
    2.2746   -3.6348   -6.8399 C   0  0  0  0  0  0  0  0  0  0  0  0
    3.2534   -3.0542   -6.9937 N   0  0  0  0  0  0  0  0  0  0  0  0
    0.9964   -5.2596   -7.8744 C   0  0  0  0  0  0  0  0  0  0  0  0
    1.0013   -5.9495   -8.7920 N   0  0  0  0  0  0  0  0  0  0  0  0
   -4.0190   -7.3273   -6.7948 C   0  0  0  0  0  0  0  0  0  0  0  0
   -3.8766   -8.7973   -6.3282 C   0  0  0  0  0  0  0  0  0  0  0  0
   -3.0659   -8.7672   -5.0564 C   0  0  0  0  0  0  0  0  0  0  0  0
   -3.8207   -8.2294   -4.1077 C   0  0  0  0  0  0  0  0  0  0  0  0
   -5.1559   -7.8861   -4.7209 C   0  0  0  0  0  0  0  0  0  0  0  0
   -5.2820   -9.0226   -5.7480 C   0  0  0  0  0  0  0  0  0  0  0  0
   -4.9085   -6.6941   -5.6788 C   0  0  0  0  0  0  0  0  0  0  0  0
    1.4963   -1.8971   -3.1145 C   0  0  0  0  0  0  0  0  0  0  0  0
    3.1935   -1.5782   -2.7040 S   0  0  0  0  0  0  0  0  0  0  0  0
    2.6960   -0.5249   -1.4532 C   0  0  0  0  0  0  0  0  0  0  0  0
    3.2269    0.2532   -0.4168 C   0  0  0  0  0  0  0  0  0  0  0  0
    4.5527    0.3876    0.0512 C   0  0  0  0  0  0  0  0  0  0  0  0
    4.7916    1.1481    1.2416 C   0  0  0  0  0  0  0  0  0  0  0  0
    6.0654    1.1377    1.6017 N   0  0  0  0  0  0  0  0  0  0  0  0
    6.8936    0.2521    0.5303 S   0  0  0  0  0  0  0  0  0  0  0  0
    5.6592   -0.1554   -0.4320 N   0  0  0  0  0  0  0  0  0  0  0  0
    3.7119    1.8361    1.8384 C   0  0  0  0  0  0  0  0  0  0  0  0
    3.6809    2.7392    2.9072 C   0  0  0  0  0  0  0  0  0  0  0  0
    2.3672    3.2393    2.9882 C   0  0  0  0  0  0  0  0  0  0  0  0
    1.5927    2.6546    2.0185 N   0  0  0  0  0  0  0  0  0  0  0  0
    0.3057    3.2332    1.7015 C   0  0  0  0  0  0  0  0  0  0  0  0
   -0.7590    2.8931    2.7437 C   0  0  0  0  0  0  0  0  0  0  0  0
    2.3858    1.7710    1.3107 C   0  0  0  0  0  0  0  0  0  0  0  0
    2.1230    0.8752    0.2420 C   0  0  0  0  0  0  0  0  0  0  0  0
    0.9569    0.4357   -0.3579 N   0  0  0  0  0  0  0  0  0  0  0  0
    1.2971   -0.4105   -1.3814 C   0  0  0  0  0  0  0  0  0  0  0  0
    0.6163   -1.1908   -2.3096 C   0  0  0  0  0  0  0  0  0  0  0  0
   -0.4144    0.4769    0.0984 C   0  0  0  0  0  0  0  0  0  0  0  0
   -1.3132    1.2838   -0.8382 C   0  0  0  0  0  0  0  0  0  0  0  0
    2.1854    4.1968    3.9742 C   0  0  0  0  0  0  0  0  0  0  0  0
    3.3605    4.4233    4.6825 C   0  0  0  0  0  0  0  0  0  0  0  0
    4.7123    3.4430    4.0721 S   0  0  0  0  0  0  0  0  0  0  0  0
    3.6528    5.2871    5.7480 C   0  0  0  0  0  0  0  0  0  0  0  0
    2.8426    6.0778    6.5283 C   0  0  0  0  0  0  0  0  0  0  0  0
    1.3689    6.1204    6.5804 C   0  0  0  0  0  0  0  0  0  0  0  0
    0.5519    5.6004    5.8453 O   0  0  0  0  0  0  0  0  0  0  0  0
    1.0365    6.9393    7.7668 C   0  0  0  0  0  0  0  0  0  0  0  0
   -0.2111    7.2302    8.2784 C   0  0  0  0  0  0  0  0  0  0  0  0
   -0.2897    8.0162    9.4221 C   0  0  0  0  0  0  0  0  0  0  0  0
   -1.8255    8.3989   10.0912 Cl  0  0  0  0  0  0  0  0  0  0  0  0
    0.8811    8.4877   10.0214 C   0  0  0  0  0  0  0  0  0  0  0  0
    0.7747    9.5479   11.5841 Br  0  0  0  0  0  0  0  0  0  0  0  0
    2.1369    8.1979    9.5016 C   0  0  0  0  0  0  0  0  0  0  0  0
    2.2156    7.4164    8.3608 C   0  0  0  0  0  0  0  0  0  0  0  0
    3.3548    6.9458    7.5760 C   0  0  0  0  0  0  0  0  0  0  0  0
    4.6533    7.3367    7.7723 C   0  0  0  0  0  0  0  0  0  0  0  0
    5.0655    8.1997    8.8106 C   0  0  0  0  0  0  0  0  0  0  0  0
    5.4635    8.8922    9.6347 N   0  0  0  0  0  0  0  0  0  0  0  0
    5.7581    6.9913    6.9637 C   0  0  0  0  0  0  0  0  0  0  0  0
    6.7089    6.7867    6.3530 N   0  0  0  0  0  0  0  0  0  0  0  0
    2.1947   -3.0739   -4.6845 H   0  0  0  0  0  0  0  0  0  0  0  0
   -3.8805   -4.3061   -3.7822 H   0  0  0  0  0  0  0  0  0  0  0  0
   -1.0552   -6.4078   -7.4229 H   0  0  0  0  0  0  0  0  0  0  0  0
   -4.3606   -7.2502   -7.8250 H   0  0  0  0  0  0  0  0  0  0  0  0
   -3.5361   -9.4839   -7.0984 H   0  0  0  0  0  0  0  0  0  0  0  0
   -2.0395   -9.0781   -4.9931 H   0  0  0  0  0  0  0  0  0  0  0  0
   -3.5507   -8.0009   -3.0932 H   0  0  0  0  0  0  0  0  0  0  0  0
   -5.9806   -7.7444   -4.0271 H   0  0  0  0  0  0  0  0  0  0  0  0
   -6.0806   -8.8668   -6.4719 H   0  0  0  0  0  0  0  0  0  0  0  0
   -5.3933  -10.0006   -5.2821 H   0  0  0  0  0  0  0  0  0  0  0  0
   -5.8327   -6.2047   -5.9797 H   0  0  0  0  0  0  0  0  0  0  0  0
    0.0083    2.9132    0.7066 H   0  0  0  0  0  0  0  0  0  0  0  0
    0.4323    4.3217    1.6749 H   0  0  0  0  0  0  0  0  0  0  0  0
   -0.5231    3.3579    3.6966 H   0  0  0  0  0  0  0  0  0  0  0  0
   -1.7244    3.2633    2.4100 H   0  0  0  0  0  0  0  0  0  0  0  0
   -0.8339    1.8202    2.9064 H   0  0  0  0  0  0  0  0  0  0  0  0
   -0.4483   -1.2744   -2.4173 H   0  0  0  0  0  0  0  0  0  0  0  0
   -0.4401    0.8657    1.1130 H   0  0  0  0  0  0  0  0  0  0  0  0
   -0.7823   -0.5550    0.1287 H   0  0  0  0  0  0  0  0  0  0  0  0
   -0.9101    2.2764   -1.0275 H   0  0  0  0  0  0  0  0  0  0  0  0
   -1.4137    0.7789   -1.7944 H   0  0  0  0  0  0  0  0  0  0  0  0
   -2.3010    1.3859   -0.3974 H   0  0  0  0  0  0  0  0  0  0  0  0
    1.2745    4.7166    4.2001 H   0  0  0  0  0  0  0  0  0  0  0  0
    4.7063    5.3006    6.0012 H   0  0  0  0  0  0  0  0  0  0  0  0
   -1.1025    6.8547    7.8015 H   0  0  0  0  0  0  0  0  0  0  0  0
    3.0136    8.5805    9.9984 H   0  0  0  0  0  0  0  0  0  0  0  0
  1  2  2  0  0  0  0
  2  3  1  0  0  0  0
  3  4  2  0  0  0  0
  3  5  1  0  0  0  0
  5  6  2  0  0  0  0
  6  7  1  0  0  0  0
  7  8  2  0  0  0  0
  8  9  1  0  0  0  0
  9 10  2  0  0  0  0
 10 11  1  0  0  0  0
 11 12  2  0  0  0  0
 12 13  1  0  0  0  0
 13 14  3  0  0  0  0
 12 15  1  0  0  0  0
 15 16  3  0  0  0  0
  8 17  1  0  0  0  0
 17 18  1  0  0  0  0
 18 19  1  0  0  0  0
 19 20  2  0  0  0  0
 20 21  1  0  0  0  0
 21 22  1  0  0  0  0
 21 23  1  0  0  0  0
  1 24  1  0  0  0  0
 24 25  1  0  0  0  0
 25 26  1  0  0  0  0
 26 27  1  0  0  0  0
 27 28  1  0  0  0  0
 28 29  1  0  0  0  0
 29 30  2  0  0  0  0
 30 31  1  0  0  0  0
 31 32  1  0  0  0  0
 29 33  1  0  0  0  0
 33 34  1  0  0  0  0
 34 35  2  0  0  0  0
 35 36  1  0  0  0  0
 36 37  1  0  0  0  0
 37 38  1  0  0  0  0
 36 39  1  0  0  0  0
 39 40  1  0  0  0  0
 40 41  1  0  0  0  0
 41 42  1  0  0  0  0
 42 43  1  0  0  0  0
 41 44  1  0  0  0  0
 44 45  1  0  0  0  0
 35 46  1  0  0  0  0
 46 47  2  0  0  0  0
 47 48  1  0  0  0  0
 47 49  1  0  0  0  0
 49 50  2  0  0  0  0
 50 51  1  0  0  0  0
 51 52  2  0  0  0  0
 51 53  1  0  0  0  0
 53 54  2  0  0  0  0
 54 55  1  0  0  0  0
 55 56  1  0  0  0  0
 55 57  2  0  0  0  0
 57 58  1  0  0  0  0
 57 59  1  0  0  0  0
 59 60  2  0  0  0  0
 60 61  1  0  0  0  0
 61 62  2  0  0  0  0
 62 63  1  0  0  0  0
 63 64  3  0  0  0  0
 62 65  1  0  0  0  0
 65 66  3  0  0  0  0
 11  2  1  0  0  0  0
 23 17  1  0  0  0  0
 43 24  2  0  0  0  0
 61 50  1  0  0  0  0
 10  5  1  0  0  0  0
 22 18  1  0  0  0  0
 42 26  2  0  0  0  0
 60 53  1  0  0  0  0
 23  7  1  0  0  0  0
 40 27  2  0  0  0  0
 32 28  2  0  0  0  0
 39 33  2  0  0  0  0
 48 34  1  0  0  0  0
  1 67  1  0  0  0  0
  6 68  1  0  0  0  0
  9 69  1  0  0  0  0
 17 70  1  0  0  0  0
 18 71  1  0  0  0  0
 19 72  1  0  0  0  0
 20 73  1  0  0  0  0
 21 74  1  0  0  0  0
 22 75  1  0  0  0  0
 22 76  1  0  0  0  0
 23 77  1  0  0  0  0
 37 78  1  0  0  0  0
 37 79  1  0  0  0  0
 38 80  1  0  0  0  0
 38 81  1  0  0  0  0
 38 82  1  0  0  0  0
 43 83  1  0  0  0  0
 44 84  1  0  0  0  0
 44 85  1  0  0  0  0
 45 86  1  0  0  0  0
 45 87  1  0  0  0  0
 45 88  1  0  0  0  0
 46 89  1  0  0  0  0
 49 90  1  0  0  0  0
 54 91  1  0  0  0  0
 59 92  1  0  0  0  0
M  END
