130

C         -5.19870       -4.04050        1.52320
C         -4.82090       -4.50800        2.75490
C         -3.59190       -4.15790        3.47080
O         -2.66010       -3.48290        3.06270
C         -3.69930       -4.77480        4.80260
C         -2.77950       -4.68400        5.84500
C         -3.15870       -5.35250        6.98390
C         -4.36380       -6.06070        7.07930
C         -5.27610       -6.16480        6.05560
C         -4.91060       -5.49150        4.88600
C         -5.60740       -5.37910        3.60480
C         -6.76730       -6.02890        3.26770
C         -7.39590       -5.99120        2.00460
N         -7.96350       -6.03720        1.00650
C         -7.48980       -6.87050        4.13890
N         -8.13060       -7.56250        4.79390
C         -4.10250       -6.47020        8.50760
C         -4.86760       -5.69290        9.59960
C         -4.07490       -5.96270       10.85820
C         -2.93280       -5.29340       10.76720
C         -2.93420       -4.56000        9.44530
C         -4.43110       -4.24930        9.31780
C         -2.75760       -5.68200        8.40010
C         -4.52310       -3.21020        0.62030
C         -5.10110       -2.82980       -0.60300
C         -6.48110       -3.17550       -0.97640
C         -7.52440       -2.56460       -0.28620
C         -8.83810       -2.85610       -0.59640
C         -9.11760       -3.77020       -1.59710
C         -8.08310       -4.38360       -2.27830
C         -6.75620       -4.09940       -1.98620
C         -5.65620       -4.84800       -2.68310
C         -5.18850       -6.02600       -1.82520
C         -4.23020       -2.05750       -1.36280
S         -4.37580       -1.27970       -2.92900
C         -2.77470       -0.65010       -2.72930
C         -1.84760        0.14480       -3.42010
C         -1.86830        0.70310       -4.71830
C         -0.71840        1.42490       -5.18440
N         -0.85540        1.84200       -6.43260
S         -2.30670        1.37230       -6.97530
N         -2.81710        0.61850       -5.63690
C          0.34530        1.67120       -4.28620
C          1.46770        2.50270       -4.38560
S          2.22810        3.53730       -5.54600
C          3.37860        4.01750       -4.31210
C          4.43310        4.91850       -4.30900
C          4.83790        5.77020       -5.43670
C          5.45690        5.24410       -6.57210
C          5.81850        3.78930       -6.66370
C          7.11450        3.51440       -5.89730
C          5.82140        6.11590       -7.58910
C          5.57880        7.47350       -7.49590
C          4.96560        7.98870       -6.36730
C          4.60190        7.13940       -5.34120
C          5.05920        4.98160       -3.04810
S          4.29400        3.91810       -1.87170
C          3.17100        3.38810       -3.06860
C          2.08100        2.51760       -3.12410
N          1.39080        1.70570       -2.26320
C          0.33160        1.15780       -2.95560
C         -0.70830        0.27380       -2.57320
N         -0.91760       -0.47580       -1.42950
C         -2.17160       -1.02210       -1.52190
C         -2.99190       -1.83510       -0.73600
S         -2.88910       -2.58570        0.81290
C          0.05150       -1.13030       -0.57560
C          0.35750       -2.54170       -1.07670
C          1.63510        1.78410       -0.83970
C          2.89800        1.02610       -0.42830
C          6.19660        5.76050       -2.83460
C          6.95620        5.94550       -1.70220
C          6.67000        5.39720       -0.37790
O          5.76620        4.64390       -0.05700
C          7.70500        5.94810        0.52050
C          7.86430        5.75050        1.87590
C          8.92420        6.38460        2.51250
Cl         9.15790        6.16560        4.20010
C          9.79780        7.19800        1.78450
Cl        11.10350        7.97760        2.58370
C          9.63330        7.39240        0.41650
C          8.57830        6.76260       -0.22140
C          8.14950        6.75970       -1.62080
C          8.80090        7.39060       -2.65020
C          9.96220        8.17410       -2.48320
N         10.90320        8.82820       -2.41540
C          8.44110        7.33900       -4.01380
N          8.23910        7.33940       -5.14500
H         -6.17780       -4.33710        1.16570
H         -1.86170       -4.12920        5.72780
H         -6.19690       -6.71610        6.14510
H         -4.06540       -7.54160        8.69470
H         -5.93420       -5.89570        9.63980
H         -4.39170       -6.63440       11.63430
H         -2.10490       -5.29440       11.45180
H         -2.23960       -3.73030        9.34520
H         -4.77470       -3.55820       10.08580
H         -4.72600       -3.87970        8.33740
H         -1.82320       -6.22820        8.51520
H         -7.29300       -1.85250        0.49380
H         -9.63890       -2.37580       -0.05460
H        -10.14130       -4.01080       -1.84050
H         -8.30490       -5.10630       -3.05000
H         -4.81110       -4.18860       -2.88660
H         -6.02670       -5.22580       -3.63750
H         -4.45280       -6.61900       -2.36380
H         -4.73730       -5.67320       -0.90020
H         -6.03230       -6.66230       -1.56860
H          5.95880        3.51880       -7.71150
H          5.01880        3.16730       -6.25910
H          7.42190        2.47980       -6.03120
H          6.97920        3.69920       -4.83370
H          7.90850        4.16520       -6.25620
H          6.31250        5.71940       -8.46580
H          5.87590        8.13090       -8.29860
H          4.77720        9.04810       -6.28200
H          4.12240        7.52940       -4.45410
H         -0.36920       -1.18090        0.43320
H          0.97300       -0.56200       -0.55480
H          1.09780       -3.00360       -0.42980
H          0.74960       -2.50640       -2.09130
H         -0.53710       -3.15800       -1.06940
H          0.75070        1.42770       -0.31030
H          1.76960        2.84110       -0.58490
H          2.92320        0.02550       -0.85500
H          2.94440        0.95030        0.65420
H          3.78140        1.55830       -0.76950
H          6.51340        6.29320       -3.72350
H          7.18290        5.12010        2.42500
H         10.32720        8.02690       -0.10970
