122

C          5.16030        4.29890        1.45520
C          4.70880        5.16070        2.41080
C          3.48970        5.00800        3.24270
O          2.54550        4.26060        3.08460
C          3.67460        5.91850        4.38940
C          2.82220        6.05740        5.48330
C          3.25180        6.97170        6.41430
C          4.44710        7.68990        6.27450
C          5.29780        7.56130        5.20290
C          4.87380        6.64110        4.23860
C          5.49920        6.23670        2.98470
C          6.59190        6.82840        2.40680
C          7.11380        6.49430        1.13900
N          7.58430        6.30270        0.10880
C          7.31980        7.89040        2.98120
N          7.95760        8.75150        3.39420
C          4.25330        8.42170        7.57930
C          3.76820        9.88360        7.48360
C          3.21760       10.17250        8.86130
C          2.08470        9.49460        8.99330
C          1.85050        8.73610        7.70680
C          2.45690        9.72510        6.70310
C          2.91940        7.62310        7.73390
C          4.45360        3.23420        0.81200
C          5.19350        2.09830        0.40460
C          4.59140        1.00160       -0.15150
C          3.20630        1.01480       -0.35630
C          2.23830        0.11910       -0.85320
C          0.99340        0.75890       -0.78570
N          1.13110        2.02150       -0.29810
C          2.46320        2.19200       -0.00090
C          3.07900        3.28680        0.56750
C          0.05550        2.92010        0.03640
C         -0.26350        2.88410        1.52980
C          0.03310       -0.13960       -1.27330
C         -1.34280       -0.01410       -1.55000
C         -2.04530       -1.10010       -2.13550
N         -3.30300       -0.70320       -2.34600
N         -3.32850        0.53270       -1.90460
C         -4.50870        1.34170       -1.99340
C         -4.53230        2.12430       -3.30350
N         -2.20100        1.00170       -1.42360
C         -1.39050       -2.33360       -2.32540
C         -0.01100       -2.48610       -1.98820
C          0.73020       -1.34670       -1.58130
N          2.08670       -1.15690       -1.34340
C          3.21150       -1.83400       -1.95240
C          3.02450       -2.01940       -3.45610
N          0.34580       -3.81820       -2.14700
C          1.43600       -4.54390       -1.53370
C          1.52890       -4.27990       -0.03270
C         -0.76890       -4.49090       -2.58970
C         -1.84390       -3.59910       -2.72050
N         -2.95380       -4.24970       -3.16310
C         -4.26470       -3.67430       -3.32010
C         -5.14110       -3.93500       -2.09640
C         -2.61160       -5.57710       -3.29990
C         -1.22670       -5.76950       -2.95680
C         -0.68290       -7.05580       -3.06020
C         -1.47270       -8.10070       -3.45940
C         -2.83850       -7.92300       -3.78400
C         -3.39510       -6.63050       -3.70500
C         -3.73290       -8.95230       -4.19200
C         -3.64670      -10.30570       -4.38640
C         -2.49430      -11.23440       -4.23940
O         -1.34930      -11.00860       -3.90750
C         -3.04090      -12.54540       -4.59290
S         -2.41970      -14.13520       -4.68900
C         -3.99180      -14.69440       -5.18280
Br        -4.25970      -16.51340       -5.54320
C         -4.93970      -13.71300       -5.26880
C         -4.38260      -12.46720       -4.92550
C         -4.80680      -11.08370       -4.80900
C         -6.08890      -10.66680       -5.06350
C         -6.60170       -9.35760       -4.97010
N         -7.11790       -8.33120       -4.92240
C         -7.09100      -11.57430       -5.46850
N         -7.92580      -12.28870       -5.79990
H          6.20960        4.36860        1.18980
H          1.91550        5.47710        5.55570
H          6.22030        8.11060        5.11460
H          5.03450        8.28030        8.32380
H          4.50310       10.58200        7.09290
H          3.72070       10.77560        9.59420
H          1.45240        9.41820        9.85850
H          0.83710        8.39030        7.52040
H          1.89430       10.65580        6.65100
H          2.58320        9.31950        5.70110
H          2.81080        6.94920        8.58190
H          6.25970        2.09210        0.57690
H          5.18310        0.13770       -0.41640
H          2.52060        4.17690        0.79830
H         -0.81850        2.60550       -0.54010
H          0.33810        3.93380       -0.26330
H         -0.55450        1.87820        1.82320
H          0.60080        3.18400        2.11700
H         -1.08630        3.56030        1.74550
H         -5.36900        0.67230       -1.93280
H         -4.50570        2.02540       -1.14180
H         -4.51940        1.44100       -4.14920
H         -5.43200        2.73050       -3.35620
H         -3.66460        2.77670       -3.36580
H          4.07900       -1.19470       -1.78200
H          3.41000       -2.78700       -1.45660
H          3.89960       -2.50570       -3.87940
H          2.14790       -2.62250       -3.67710
H          2.90000       -1.05080       -3.93540
H          2.38040       -4.32260       -2.03480
H          1.22550       -5.60210       -1.69390
H          2.34510       -4.85770        0.39340
H          0.60270       -4.57810        0.45340
H          1.69890       -3.22710        0.17590
H         -4.73090       -4.09400       -4.21610
H         -4.13520       -2.59730       -3.44910
H         -4.69930       -3.46980       -1.21860
H         -5.24130       -5.00230       -1.91350
H         -6.12960       -3.51330       -2.25380
H          0.35780       -7.23400       -2.83350
H         -1.04600       -9.08500       -3.53000
H         -4.43350       -6.47910       -3.96110
H         -4.72420       -8.55950       -4.38860
H         -5.95760      -13.89500       -5.55930
