
  xtb     02022213303D
 energy: -190.146416019343 gnorm: 0.000554005384 xtb: 6.4.1 (unknown)
107121  0     0  0            999 V2000
    3.2669   -2.8429   -4.7655 C   0  0  0  0  0  0  0  0  0  0  0  0
    3.6117   -1.6418   -5.3342 C   0  0  0  0  0  0  0  0  0  0  0  0
    3.3551   -0.3119   -4.7770 C   0  0  0  0  0  0  0  0  0  0  0  0
    2.7434   -0.0371   -3.7569 O   0  0  0  0  0  0  0  0  0  0  0  0
    3.9911    0.6517   -5.6905 C   0  0  0  0  0  0  0  0  0  0  0  0
    4.0443    2.0363   -5.5451 C   0  0  0  0  0  0  0  0  0  0  0  0
    4.7323    2.6771   -6.5473 C   0  0  0  0  0  0  0  0  0  0  0  0
    5.3258    1.9905   -7.6146 C   0  0  0  0  0  0  0  0  0  0  0  0
    5.2807    0.6251   -7.7693 C   0  0  0  0  0  0  0  0  0  0  0  0
    4.5821   -0.0472   -6.7620 C   0  0  0  0  0  0  0  0  0  0  0  0
    4.3362   -1.4774   -6.5783 C   0  0  0  0  0  0  0  0  0  0  0  0
    4.7199   -2.4631   -7.4529 C   0  0  0  0  0  0  0  0  0  0  0  0
    4.4810   -3.8441   -7.2979 C   0  0  0  0  0  0  0  0  0  0  0  0
    4.3286   -4.9826   -7.2540 N   0  0  0  0  0  0  0  0  0  0  0  0
    5.4076   -2.2354   -8.6631 C   0  0  0  0  0  0  0  0  0  0  0  0
    5.9633   -2.1341   -9.6630 N   0  0  0  0  0  0  0  0  0  0  0  0
    5.8541    3.2569   -8.2410 C   0  0  0  0  0  0  0  0  0  0  0  0
    5.0846    3.7963   -9.4652 C   0  0  0  0  0  0  0  0  0  0  0  0
    5.5169    5.2420   -9.5542 C   0  0  0  0  0  0  0  0  0  0  0  0
    4.9564    5.8938   -8.5435 C   0  0  0  0  0  0  0  0  0  0  0  0
    4.1351    4.8995   -7.7544 C   0  0  0  0  0  0  0  0  0  0  0  0
    3.6737    3.9777   -8.8905 C   0  0  0  0  0  0  0  0  0  0  0  0
    5.1926    4.0230   -7.0506 C   0  0  0  0  0  0  0  0  0  0  0  0
    2.6007   -3.1338   -3.5704 C   0  0  0  0  0  0  0  0  0  0  0  0
    2.3660   -4.4436   -3.1213 C   0  0  0  0  0  0  0  0  0  0  0  0
    2.7058   -5.6975   -3.8587 C   0  0  0  0  0  0  0  0  0  0  0  0
    1.6209   -6.0311   -4.8855 C   0  0  0  0  0  0  0  0  0  0  0  0
    1.7051   -4.4587   -1.9001 C   0  0  0  0  0  0  0  0  0  0  0  0
    1.1288   -5.8774   -0.7760 Se  0  0  0  0  0  2  0  0  0  0  0  0
    0.5253   -4.5114    0.3320 C   0  0  0  0  0  0  0  0  0  0  0  0
   -0.1439   -4.3682    1.5500 C   0  0  0  0  0  0  0  0  0  0  0  0
   -0.6544   -5.3643    2.4081 C   0  0  0  0  0  0  0  0  0  0  0  0
   -1.3720   -4.9587    3.5732 C   0  0  0  0  0  0  0  0  0  0  0  0
   -1.8256   -5.9832    4.2778 N   0  0  0  0  0  0  0  0  0  0  0  0
   -1.3790   -7.3505    3.5276 S   0  0  0  0  0  0  0  0  0  0  0  0
   -0.5919   -6.6799    2.2776 N   0  0  0  0  0  0  0  0  0  0  0  0
   -1.4864   -3.5804    3.8490 C   0  0  0  0  0  0  0  0  0  0  0  0
   -2.0779   -2.9466    4.9443 C   0  0  0  0  0  0  0  0  0  0  0  0
   -2.9979   -3.4093    6.4919 Se  0  0  0  0  0  2  0  0  0  0  0  0
   -3.0282   -1.5376    6.8108 C   0  0  0  0  0  0  0  0  0  0  0  0
   -3.5691   -0.7733    7.8366 C   0  0  0  0  0  0  0  0  0  0  0  0
   -4.2356   -1.3871    9.0242 C   0  0  0  0  0  0  0  0  0  0  0  0
   -3.2464   -1.5343   10.1828 C   0  0  0  0  0  0  0  0  0  0  0  0
   -3.3520    0.5984    7.6330 C   0  0  0  0  0  0  0  0  0  0  0  0
   -2.4590    0.9074    6.1458 S   0  0  0  0  0  0  0  0  0  0  0  0
   -2.3898   -0.7834    5.8108 C   0  0  0  0  0  0  0  0  0  0  0  0
   -1.8641   -1.5728    4.7793 C   0  0  0  0  0  0  0  0  0  0  0  0
   -1.1796   -1.3480    3.6136 N   0  0  0  0  0  0  0  0  0  0  0  0
   -0.9298   -2.5693    3.0112 C   0  0  0  0  0  0  0  0  0  0  0  0
   -0.2960   -2.9720    1.7999 C   0  0  0  0  0  0  0  0  0  0  0  0
    0.2698   -2.2959    0.7325 N   0  0  0  0  0  0  0  0  0  0  0  0
    0.7573   -3.2195   -0.1545 C   0  0  0  0  0  0  0  0  0  0  0  0
    1.4134   -3.1810   -1.3922 C   0  0  0  0  0  0  0  0  0  0  0  0
    1.9744   -1.9328   -2.4424 S   0  0  0  0  0  0  0  0  0  0  0  0
    0.1450   -0.9182    0.3142 C   0  0  0  0  0  0  0  0  0  0  0  0
   -1.2917   -0.5909   -0.0878 C   0  0  0  0  0  0  0  0  0  0  0  0
   -0.6078   -0.0429    3.3724 C   0  0  0  0  0  0  0  0  0  0  0  0
    0.8893   -0.0300    3.6748 C   0  0  0  0  0  0  0  0  0  0  0  0
   -3.8150    1.5867    8.5086 C   0  0  0  0  0  0  0  0  0  0  0  0
   -3.7127    2.9532    8.4606 C   0  0  0  0  0  0  0  0  0  0  0  0
   -3.0407    3.7569    7.4231 C   0  0  0  0  0  0  0  0  0  0  0  0
   -2.4490    3.3508    6.4386 O   0  0  0  0  0  0  0  0  0  0  0  0
   -3.2348    5.1569    7.8245 C   0  0  0  0  0  0  0  0  0  0  0  0
   -2.9032    6.4383    7.3546 C   0  0  0  0  0  0  0  0  0  0  0  0
   -3.3836    7.4028    8.1908 C   0  0  0  0  0  0  0  0  0  0  0  0
   -4.2415    6.7820    9.5552 S   0  0  0  0  0  0  0  0  0  0  0  0
   -3.9593    5.1837    9.0066 C   0  0  0  0  0  0  0  0  0  0  0  0
   -4.2818    3.8534    9.4505 C   0  0  0  0  0  0  0  0  0  0  0  0
   -4.9935    3.5645   10.5893 C   0  0  0  0  0  0  0  0  0  0  0  0
   -5.3264    2.2793   11.0537 C   0  0  0  0  0  0  0  0  0  0  0  0
   -5.6293    1.2576   11.4842 N   0  0  0  0  0  0  0  0  0  0  0  0
   -5.4663    4.6002   11.4215 C   0  0  0  0  0  0  0  0  0  0  0  0
   -5.8592    5.4374   12.1012 N   0  0  0  0  0  0  0  0  0  0  0  0
    3.5669   -3.7274   -5.3104 H   0  0  0  0  0  0  0  0  0  0  0  0
    3.5800    2.5230   -4.7017 H   0  0  0  0  0  0  0  0  0  0  0  0
    5.7513    0.1140   -8.5922 H   0  0  0  0  0  0  0  0  0  0  0  0
    6.9345    3.3116   -8.3599 H   0  0  0  0  0  0  0  0  0  0  0  0
    5.1861    3.1979  -10.3663 H   0  0  0  0  0  0  0  0  0  0  0  0
    6.2081    5.6175  -10.2858 H   0  0  0  0  0  0  0  0  0  0  0  0
    5.0858    6.9225   -8.2621 H   0  0  0  0  0  0  0  0  0  0  0  0
    3.3712    5.3078   -7.0981 H   0  0  0  0  0  0  0  0  0  0  0  0
    3.2105    3.0529   -8.5513 H   0  0  0  0  0  0  0  0  0  0  0  0
    3.0079    4.4844   -9.5871 H   0  0  0  0  0  0  0  0  0  0  0  0
    5.8328    4.5878   -6.3753 H   0  0  0  0  0  0  0  0  0  0  0  0
    2.7677   -6.5106   -3.1282 H   0  0  0  0  0  0  0  0  0  0  0  0
    3.6703   -5.6155   -4.3618 H   0  0  0  0  0  0  0  0  0  0  0  0
    0.6580   -6.1442   -4.3914 H   0  0  0  0  0  0  0  0  0  0  0  0
    1.5410   -5.2429   -5.6303 H   0  0  0  0  0  0  0  0  0  0  0  0
    1.8659   -6.9593   -5.3935 H   0  0  0  0  0  0  0  0  0  0  0  0
   -4.5941   -2.3796    8.7333 H   0  0  0  0  0  0  0  0  0  0  0  0
   -5.0927   -0.7956    9.3494 H   0  0  0  0  0  0  0  0  0  0  0  0
   -2.4046   -2.1544    9.8814 H   0  0  0  0  0  0  0  0  0  0  0  0
   -2.8697   -0.5625   10.4930 H   0  0  0  0  0  0  0  0  0  0  0  0
   -3.7383   -1.9997   11.0321 H   0  0  0  0  0  0  0  0  0  0  0  0
    0.7957   -0.7918   -0.5539 H   0  0  0  0  0  0  0  0  0  0  0  0
    0.5132   -0.2484    1.0891 H   0  0  0  0  0  0  0  0  0  0  0  0
   -1.3695    0.4559   -0.3681 H   0  0  0  0  0  0  0  0  0  0  0  0
   -1.5834   -1.1986   -0.9411 H   0  0  0  0  0  0  0  0  0  0  0  0
   -1.9859   -0.7935    0.7255 H   0  0  0  0  0  0  0  0  0  0  0  0
   -1.1132    0.6527    4.0459 H   0  0  0  0  0  0  0  0  0  0  0  0
   -0.8212    0.2853    2.3565 H   0  0  0  0  0  0  0  0  0  0  0  0
    1.0547   -0.2402    4.7288 H   0  0  0  0  0  0  0  0  0  0  0  0
    1.4173   -0.7828    3.0929 H   0  0  0  0  0  0  0  0  0  0  0  0
    1.3051    0.9482    3.4497 H   0  0  0  0  0  0  0  0  0  0  0  0
   -4.3504    1.1871    9.3598 H   0  0  0  0  0  0  0  0  0  0  0  0
   -2.3467    6.6348    6.4571 H   0  0  0  0  0  0  0  0  0  0  0  0
   -3.2854    8.4659    8.0882 H   0  0  0  0  0  0  0  0  0  0  0  0
  1  2  2  0  0  0  0
  2  3  1  0  0  0  0
  3  4  2  0  0  0  0
  3  5  1  0  0  0  0
  5  6  2  0  0  0  0
  6  7  1  0  0  0  0
  7  8  2  0  0  0  0
  8  9  1  0  0  0  0
  9 10  2  0  0  0  0
 10 11  1  0  0  0  0
 11 12  2  0  0  0  0
 12 13  1  0  0  0  0
 13 14  3  0  0  0  0
 12 15  1  0  0  0  0
 15 16  3  0  0  0  0
  8 17  1  0  0  0  0
 17 18  1  0  0  0  0
 18 19  1  0  0  0  0
 19 20  2  0  0  0  0
 20 21  1  0  0  0  0
 21 22  1  0  0  0  0
 21 23  1  0  0  0  0
  1 24  1  0  0  0  0
 24 25  2  0  0  0  0
 25 26  1  0  0  0  0
 26 27  1  0  0  0  0
 25 28  1  0  0  0  0
 28 29  1  0  0  0  0
 29 30  1  0  0  0  0
 30 31  1  0  0  0  0
 31 32  1  0  0  0  0
 32 33  1  0  0  0  0
 33 34  2  0  0  0  0
 34 35  1  0  0  0  0
 35 36  1  0  0  0  0
 33 37  1  0  0  0  0
 37 38  1  0  0  0  0
 38 39  1  0  0  0  0
 39 40  1  0  0  0  0
 40 41  1  0  0  0  0
 41 42  1  0  0  0  0
 42 43  1  0  0  0  0
 41 44  2  0  0  0  0
 44 45  1  0  0  0  0
 45 46  1  0  0  0  0
 46 47  1  0  0  0  0
 47 48  1  0  0  0  0
 48 49  1  0  0  0  0
 49 50  1  0  0  0  0
 50 51  1  0  0  0  0
 51 52  1  0  0  0  0
 52 53  1  0  0  0  0
 53 54  1  0  0  0  0
 51 55  1  0  0  0  0
 55 56  1  0  0  0  0
 48 57  1  0  0  0  0
 57 58  1  0  0  0  0
 44 59  1  0  0  0  0
 59 60  2  0  0  0  0
 60 61  1  0  0  0  0
 61 62  2  0  0  0  0
 61 63  1  0  0  0  0
 63 64  1  0  0  0  0
 64 65  2  0  0  0  0
 65 66  1  0  0  0  0
 66 67  1  0  0  0  0
 67 68  1  0  0  0  0
 68 69  2  0  0  0  0
 69 70  1  0  0  0  0
 70 71  3  0  0  0  0
 69 72  1  0  0  0  0
 72 73  3  0  0  0  0
 11  2  1  0  0  0  0
 23 17  1  0  0  0  0
 54 24  1  0  0  0  0
 68 60  1  0  0  0  0
 10  5  1  0  0  0  0
 22 18  1  0  0  0  0
 53 28  2  0  0  0  0
 67 63  2  0  0  0  0
 23  7  1  0  0  0  0
 52 30  2  0  0  0  0
 50 31  2  0  0  0  0
 36 32  2  0  0  0  0
 49 37  2  0  0  0  0
 47 38  2  0  0  0  0
 46 40  2  0  0  0  0
  1 74  1  0  0  0  0
  6 75  1  0  0  0  0
  9 76  1  0  0  0  0
 17 77  1  0  0  0  0
 18 78  1  0  0  0  0
 19 79  1  0  0  0  0
 20 80  1  0  0  0  0
 21 81  1  0  0  0  0
 22 82  1  0  0  0  0
 22 83  1  0  0  0  0
 23 84  1  0  0  0  0
 26 85  1  0  0  0  0
 26 86  1  0  0  0  0
 27 87  1  0  0  0  0
 27 88  1  0  0  0  0
 27 89  1  0  0  0  0
 42 90  1  0  0  0  0
 42 91  1  0  0  0  0
 43 92  1  0  0  0  0
 43 93  1  0  0  0  0
 43 94  1  0  0  0  0
 55 95  1  0  0  0  0
 55 96  1  0  0  0  0
 56 97  1  0  0  0  0
 56 98  1  0  0  0  0
 56 99  1  0  0  0  0
 57100  1  0  0  0  0
 57101  1  0  0  0  0
 58102  1  0  0  0  0
 58103  1  0  0  0  0
 58104  1  0  0  0  0
 59105  1  0  0  0  0
 64106  1  0  0  0  0
 65107  1  0  0  0  0
M  END
