110

C          4.99970        0.73750       -2.68550
C          6.19130        0.07170       -2.57580
C          6.58440       -0.78450       -1.43650
O          5.94330       -1.00080       -0.42760
C          7.98650       -1.17060       -1.68670
C          8.77410       -2.01800       -0.91070
C         10.04950       -2.19340       -1.39190
C         10.51220       -1.56550       -2.55590
C          9.74960       -0.71950       -3.32510
C          8.44680       -0.52930       -2.85410
C          7.35730        0.27100       -3.40810
C          7.41660        1.01580       -4.56020
C          6.32950        1.70130       -5.13960
N          5.49320        2.26560       -5.69010
C          8.57860        1.19620       -5.33700
N          9.48650        1.39840       -6.01090
C         11.88030       -2.19160       -2.44720
C         13.01510       -1.28730       -1.92230
C         14.07770       -2.26440       -1.47390
C         13.64020       -2.85820       -0.37080
C         12.27440       -2.29230       -0.05500
C         12.46150       -0.85520       -0.55830
C         11.36490       -2.89140       -1.14880
C          3.73170        0.44210       -2.13540
C          2.77270        1.44430       -1.88330
C          1.63020        0.78460       -1.47050
C          1.88060       -0.60260       -1.54830
N          3.16850       -0.80390       -1.91250
C          3.71370       -2.10200       -2.23780
C          3.88020       -2.97650       -1.00040
C          0.64710       -1.24900       -1.32770
C          0.23970       -2.59600       -1.46830
C         -1.14710       -2.93080       -1.30710
N         -1.39450       -4.21130       -1.52840
S         -0.00410       -4.94520       -1.91000
N          0.96610       -3.65120       -1.80870
C         -2.05310       -1.92460       -0.91200
C         -3.40880       -1.98510       -0.57550
S         -4.67690       -3.15690       -0.50530
C         -5.74160       -1.90950        0.11920
C         -7.07900       -1.92950        0.47260
C         -7.89620       -3.18120        0.43730
C         -7.97180       -3.82160        1.82620
C         -7.52270       -0.65930        0.90090
S         -6.22420        0.53290        0.86180
C         -5.12260       -0.65250        0.26420
C         -3.78600       -0.70640       -0.14170
N         -2.70930        0.14030       -0.21610
C         -1.63460       -0.57660       -0.70790
C         -0.30220       -0.21880       -1.03700
N          0.31940        1.01540       -1.13990
C         -0.24170        2.32380       -1.39000
C          0.19420        3.34540       -0.34180
C         -2.72430        1.39790        0.49870
C         -3.55680        2.47240       -0.19970
C         -8.84590       -0.42170        1.26940
C         -9.54330        0.70580        1.67980
C         -8.88470        1.99620        1.82650
O         -7.68400        2.16200        1.61590
N         -9.63970        3.07070        2.22100
C         -8.96680        4.35880        2.34930
C         -8.93750        5.09610        1.01680
C        -11.00940        3.04810        2.46670
O        -11.59970        4.06010        2.78050
C        -11.63640        1.73740        2.32470
C        -10.94680        0.61580        1.95270
C        -11.67520       -0.68850        1.82830
C        -13.02090        1.69760        2.59520
N        -14.14780        1.65430        2.80520
H          4.99650        1.64600       -3.27710
H          8.37730       -2.48560       -0.02310
H         10.12040       -0.24250       -4.21670
H         12.18490       -2.81230       -3.28770
H         13.32750       -0.50450       -2.60790
H         14.98350       -2.45720       -2.01820
H         14.10750       -3.64630        0.19010
H         11.91310       -2.42450        0.96130
H         11.53840       -0.28140       -0.61570
H         13.19580       -0.30590        0.02860
H         11.32840       -3.97910       -1.12310
H          2.95460        2.49670       -1.97380
H          3.02290       -2.59520       -2.92950
H          4.67300       -1.95770       -2.73780
H          2.91100       -3.16720       -0.55160
H          4.52370       -2.48790       -0.27520
H          4.32270       -3.92580       -1.28800
H         -8.90230       -2.98120        0.06420
H         -7.41580       -3.88060       -0.24970
H         -8.56420       -4.73200        1.78650
H         -6.97360       -4.07370        2.17550
H         -8.42370       -3.14100        2.54440
H          0.12090        2.65670       -2.37060
H         -1.32340        2.24770       -1.44700
H         -0.25390        4.30990       -0.56350
H          1.27500        3.45300       -0.35080
H         -0.10270        3.04700        0.66090
H         -1.69530        1.71840        0.64610
H         -3.16200        1.21360        1.48640
H         -4.61510        2.24270       -0.12140
H         -3.38110        3.43220        0.27770
H         -3.30840        2.55540       -1.25520
H         -9.44940       -1.31620        1.20040
H         -7.95190        4.16690        2.70220
H         -9.52240        4.93680        3.08980
H         -8.43450        6.05120        1.13820
H         -9.95140        5.27690        0.66770
H         -8.40200        4.50900        0.27400
H        -11.62720       -1.06010        0.80490
H        -12.72130       -0.56010        2.09400
H        -11.24340       -1.43770        2.49120
