
  xtb     02112200153D
 energy: -209.373770770050 gnorm: 0.000277415305 xtb: 6.4.1 (unknown)
131146  0     0  0            999 V2000
    4.8184    0.0694   -6.2495 C   0  0  0  0  0  0  0  0  0  0  0  0
    4.2925   -1.1388   -6.5998 C   0  0  0  0  0  0  0  0  0  0  0  0
    3.2397   -1.8578   -5.8405 C   0  0  0  0  0  0  0  0  0  0  0  0
    2.4244   -1.4175   -5.0561 O   0  0  0  0  0  0  0  0  0  0  0  0
    3.4216   -3.2834   -6.1738 C   0  0  0  0  0  0  0  0  0  0  0  0
    2.7655   -4.3600   -5.5825 C   0  0  0  0  0  0  0  0  0  0  0  0
    3.1581   -5.5851   -6.0638 C   0  0  0  0  0  0  0  0  0  0  0  0
    4.1282   -5.7308   -7.0645 C   0  0  0  0  0  0  0  0  0  0  0  0
    4.7835   -4.6761   -7.6557 C   0  0  0  0  0  0  0  0  0  0  0  0
    4.4028   -3.4199   -7.1750 C   0  0  0  0  0  0  0  0  0  0  0  0
    4.8958   -2.0894   -7.5158 C   0  0  0  0  0  0  0  0  0  0  0  0
    5.7283   -1.7737   -8.5569 C   0  0  0  0  0  0  0  0  0  0  0  0
    6.2710   -2.7155   -9.4535 C   0  0  0  0  0  0  0  0  0  0  0  0
    6.7428   -3.4383  -10.2111 N   0  0  0  0  0  0  0  0  0  0  0  0
    6.1036   -0.4552   -8.8901 C   0  0  0  0  0  0  0  0  0  0  0  0
    6.4294    0.5932   -9.2271 N   0  0  0  0  0  0  0  0  0  0  0  0
    4.0270   -7.2362   -7.0515 C   0  0  0  0  0  0  0  0  0  0  0  0
    3.2326   -7.9197   -8.1916 C   0  0  0  0  0  0  0  0  0  0  0  0
    2.2157   -6.9134   -8.6700 C   0  0  0  0  0  0  0  0  0  0  0  0
    1.3016   -6.7772   -7.7187 C   0  0  0  0  0  0  0  0  0  0  0  0
    1.6849   -7.6881   -6.5788 C   0  0  0  0  0  0  0  0  0  0  0  0
    2.3287   -8.8444   -7.3601 C   0  0  0  0  0  0  0  0  0  0  0  0
    2.9503   -7.0727   -5.9328 C   0  0  0  0  0  0  0  0  0  0  0  0
    4.2475    0.9602   -5.2820 C   0  0  0  0  0  0  0  0  0  0  0  0
    5.1041    1.5432   -4.3195 C   0  0  0  0  0  0  0  0  0  0  0  0
    4.6071    2.1817   -3.2141 C   0  0  0  0  0  0  0  0  0  0  0  0
    3.2205    2.3050   -3.0688 C   0  0  0  0  0  0  0  0  0  0  0  0
    2.3446    2.7499   -2.0611 C   0  0  0  0  0  0  0  0  0  0  0  0
    1.0367    2.5973   -2.5389 C   0  0  0  0  0  0  0  0  0  0  0  0
    1.0458    2.1122   -3.8103 N   0  0  0  0  0  0  0  0  0  0  0  0
    2.3604    1.8586   -4.1293 C   0  0  0  0  0  0  0  0  0  0  0  0
    2.8693    1.1775   -5.2139 C   0  0  0  0  0  0  0  0  0  0  0  0
   -0.1174    1.6683   -4.5347 C   0  0  0  0  0  0  0  0  0  0  0  0
   -0.4273    0.2001   -4.2500 C   0  0  0  0  0  0  0  0  0  0  0  0
    0.1576    2.9123   -1.4882 C   0  0  0  0  0  0  0  0  0  0  0  0
   -1.2443    2.9879   -1.3699 C   0  0  0  0  0  0  0  0  0  0  0  0
   -1.8349    3.2193   -0.0958 C   0  0  0  0  0  0  0  0  0  0  0  0
   -3.1593    3.2529   -0.2654 N   0  0  0  0  0  0  0  0  0  0  0  0
   -3.3253    3.0602   -1.5548 N   0  0  0  0  0  0  0  0  0  0  0  0
   -4.6225    3.0968   -2.1635 C   0  0  0  0  0  0  0  0  0  0  0  0
   -5.0258    4.5320   -2.4918 C   0  0  0  0  0  0  0  0  0  0  0  0
   -2.2324    2.8945   -2.2629 N   0  0  0  0  0  0  0  0  0  0  0  0
   -1.0223    3.2479    1.0569 C   0  0  0  0  0  0  0  0  0  0  0  0
    0.3969    3.1905    0.9322 C   0  0  0  0  0  0  0  0  0  0  0  0
    0.9816    3.1706   -0.3577 C   0  0  0  0  0  0  0  0  0  0  0  0
    2.3191    3.1343   -0.7351 N   0  0  0  0  0  0  0  0  0  0  0  0
    3.3664    3.9643   -0.1818 C   0  0  0  0  0  0  0  0  0  0  0  0
    3.6658    5.1619   -1.0840 C   0  0  0  0  0  0  0  0  0  0  0  0
    0.9533    2.9986    2.1837 N   0  0  0  0  0  0  0  0  0  0  0  0
    2.2802    2.5610    2.5429 C   0  0  0  0  0  0  0  0  0  0  0  0
    3.0192    3.6058    3.3792 C   0  0  0  0  0  0  0  0  0  0  0  0
   -0.0818    2.9091    3.0836 C   0  0  0  0  0  0  0  0  0  0  0  0
   -1.2997    3.0928    2.4246 C   0  0  0  0  0  0  0  0  0  0  0  0
   -2.3425    2.8775    3.2821 N   0  0  0  0  0  0  0  0  0  0  0  0
   -3.7368    3.0627    2.9769 C   0  0  0  0  0  0  0  0  0  0  0  0
   -4.2581    4.3901    3.5255 C   0  0  0  0  0  0  0  0  0  0  0  0
   -1.8005    2.5104    4.4886 C   0  0  0  0  0  0  0  0  0  0  0  0
   -0.3686    2.5200    4.4144 C   0  0  0  0  0  0  0  0  0  0  0  0
    0.3720    2.1310    5.5300 C   0  0  0  0  0  0  0  0  0  0  0  0
   -0.2891    1.6953    6.6553 C   0  0  0  0  0  0  0  0  0  0  0  0
   -1.6893    1.6212    6.7021 C   0  0  0  0  0  0  0  0  0  0  0  0
   -2.4502    2.0626    5.6269 C   0  0  0  0  0  0  0  0  0  0  0  0
   -2.3352    1.0228    7.8782 C   0  0  0  0  0  0  0  0  0  0  0  0
   -2.0659    1.5087    9.1422 C   0  0  0  0  0  0  0  0  0  0  0  0
   -2.6666    0.9627   10.2732 C   0  0  0  0  0  0  0  0  0  0  0  0
   -3.5466   -0.0953   10.1575 C   0  0  0  0  0  0  0  0  0  0  0  0
   -4.1705   -0.6592   11.3623 C   0  0  0  0  0  0  0  0  0  0  0  0
   -3.9672   -0.2195   12.4769 O   0  0  0  0  0  0  0  0  0  0  0  0
   -5.0100   -1.7465   11.1720 N   0  0  0  0  0  0  0  0  0  0  0  0
   -5.6357   -2.3210   12.3585 C   0  0  0  0  0  0  0  0  0  0  0  0
   -6.9917   -1.6818   12.6283 C   0  0  0  0  0  0  0  0  0  0  0  0
   -5.3360   -2.3185    9.9549 C   0  0  0  0  0  0  0  0  0  0  0  0
   -6.1056   -3.2573    9.8950 O   0  0  0  0  0  0  0  0  0  0  0  0
   -4.6964   -1.7387    8.7627 C   0  0  0  0  0  0  0  0  0  0  0  0
   -4.9461   -2.2928    7.5247 C   0  0  0  0  0  0  0  0  0  0  0  0
   -4.3153   -1.7820    6.3897 C   0  0  0  0  0  0  0  0  0  0  0  0
   -3.4646   -0.7106    6.4880 C   0  0  0  0  0  0  0  0  0  0  0  0
   -3.2135   -0.0888    7.7290 C   0  0  0  0  0  0  0  0  0  0  0  0
   -3.8240   -0.6375    8.8865 C   0  0  0  0  0  0  0  0  0  0  0  0
    5.8055    0.3242   -6.6190 H   0  0  0  0  0  0  0  0  0  0  0  0
    2.0268   -4.2033   -4.8119 H   0  0  0  0  0  0  0  0  0  0  0  0
    5.5396   -4.8015   -8.4132 H   0  0  0  0  0  0  0  0  0  0  0  0
    4.9411   -7.7727   -6.8046 H   0  0  0  0  0  0  0  0  0  0  0  0
    3.8499   -8.3797   -8.9584 H   0  0  0  0  0  0  0  0  0  0  0  0
    2.2951   -6.3776   -9.5976 H   0  0  0  0  0  0  0  0  0  0  0  0
    0.4642   -6.1047   -7.6921 H   0  0  0  0  0  0  0  0  0  0  0  0
    0.8943   -7.9375   -5.8756 H   0  0  0  0  0  0  0  0  0  0  0  0
    2.8816   -9.5390   -6.7291 H   0  0  0  0  0  0  0  0  0  0  0  0
    1.6114   -9.3921   -7.9695 H   0  0  0  0  0  0  0  0  0  0  0  0
    3.1653   -7.4977   -4.9539 H   0  0  0  0  0  0  0  0  0  0  0  0
    6.1699    1.4058   -4.4293 H   0  0  0  0  0  0  0  0  0  0  0  0
    5.2735    2.5590   -2.4522 H   0  0  0  0  0  0  0  0  0  0  0  0
    2.2285    0.8175   -6.0015 H   0  0  0  0  0  0  0  0  0  0  0  0
   -0.9575    2.2913   -4.2157 H   0  0  0  0  0  0  0  0  0  0  0  0
    0.0591    1.8197   -5.6031 H   0  0  0  0  0  0  0  0  0  0  0  0
    0.4293   -0.4238   -4.4918 H   0  0  0  0  0  0  0  0  0  0  0  0
   -0.6661    0.0714   -3.1970 H   0  0  0  0  0  0  0  0  0  0  0  0
   -1.2804   -0.1204   -4.8421 H   0  0  0  0  0  0  0  0  0  0  0  0
   -4.5724    2.4950   -3.0730 H   0  0  0  0  0  0  0  0  0  0  0  0
   -5.3329    2.6546   -1.4615 H   0  0  0  0  0  0  0  0  0  0  0  0
   -6.0119    4.5458   -2.9470 H   0  0  0  0  0  0  0  0  0  0  0  0
   -5.0485    5.1298   -1.5838 H   0  0  0  0  0  0  0  0  0  0  0  0
   -4.3128    4.9728   -3.1844 H   0  0  0  0  0  0  0  0  0  0  0  0
    3.0364    4.3356    0.7860 H   0  0  0  0  0  0  0  0  0  0  0  0
    4.2747    3.3649   -0.0520 H   0  0  0  0  0  0  0  0  0  0  0  0
    2.7675    5.7596   -1.2232 H   0  0  0  0  0  0  0  0  0  0  0  0
    4.0168    4.8339   -2.0586 H   0  0  0  0  0  0  0  0  0  0  0  0
    4.4319    5.7832   -0.6270 H   0  0  0  0  0  0  0  0  0  0  0  0
    2.1762    1.6455    3.1377 H   0  0  0  0  0  0  0  0  0  0  0  0
    2.8355    2.3073    1.6406 H   0  0  0  0  0  0  0  0  0  0  0  0
    2.4515    3.8314    4.2782 H   0  0  0  0  0  0  0  0  0  0  0  0
    3.1562    4.5353    2.8316 H   0  0  0  0  0  0  0  0  0  0  0  0
    3.9961    3.2261    3.6662 H   0  0  0  0  0  0  0  0  0  0  0  0
   -3.8365    3.0467    1.8885 H   0  0  0  0  0  0  0  0  0  0  0  0
   -4.3085    2.2307    3.4010 H   0  0  0  0  0  0  0  0  0  0  0  0
   -4.1343    4.4345    4.6053 H   0  0  0  0  0  0  0  0  0  0  0  0
   -3.7106    5.2171    3.0799 H   0  0  0  0  0  0  0  0  0  0  0  0
   -5.3124    4.5024    3.2884 H   0  0  0  0  0  0  0  0  0  0  0  0
    1.4513    2.1404    5.5103 H   0  0  0  0  0  0  0  0  0  0  0  0
    0.2752    1.3546    7.5106 H   0  0  0  0  0  0  0  0  0  0  0  0
   -3.5284    2.0428    5.6841 H   0  0  0  0  0  0  0  0  0  0  0  0
   -1.3905    2.3448    9.2504 H   0  0  0  0  0  0  0  0  0  0  0  0
   -2.4596    1.3591   11.2559 H   0  0  0  0  0  0  0  0  0  0  0  0
   -5.7513   -3.3918   12.1801 H   0  0  0  0  0  0  0  0  0  0  0  0
   -4.9596   -2.1486   13.1976 H   0  0  0  0  0  0  0  0  0  0  0  0
   -7.6571   -1.8470   11.7841 H   0  0  0  0  0  0  0  0  0  0  0  0
   -6.8765   -0.6124   12.7895 H   0  0  0  0  0  0  0  0  0  0  0  0
   -7.4354   -2.1244   13.5157 H   0  0  0  0  0  0  0  0  0  0  0  0
   -5.6182   -3.1350    7.4585 H   0  0  0  0  0  0  0  0  0  0  0  0
   -4.4931   -2.2435    5.4298 H   0  0  0  0  0  0  0  0  0  0  0  0
   -2.9611   -0.3417    5.6072 H   0  0  0  0  0  0  0  0  0  0  0  0
  1  2  2  0  0  0  0
  2  3  1  0  0  0  0
  3  4  2  0  0  0  0
  3  5  1  0  0  0  0
  5  6  2  0  0  0  0
  6  7  1  0  0  0  0
  7  8  2  0  0  0  0
  8  9  1  0  0  0  0
  9 10  2  0  0  0  0
 10 11  1  0  0  0  0
 11 12  2  0  0  0  0
 12 13  1  0  0  0  0
 13 14  3  0  0  0  0
 12 15  1  0  0  0  0
 15 16  3  0  0  0  0
  8 17  1  0  0  0  0
 17 18  1  0  0  0  0
 18 19  1  0  0  0  0
 19 20  2  0  0  0  0
 20 21  1  0  0  0  0
 21 22  1  0  0  0  0
 21 23  1  0  0  0  0
  1 24  1  0  0  0  0
 24 25  2  0  0  0  0
 25 26  1  0  0  0  0
 26 27  2  0  0  0  0
 27 28  1  0  0  0  0
 28 29  2  0  0  0  0
 29 30  1  0  0  0  0
 30 31  1  0  0  0  0
 31 32  2  0  0  0  0
 30 33  1  0  0  0  0
 33 34  1  0  0  0  0
 29 35  1  0  0  0  0
 35 36  1  0  0  0  0
 36 37  1  0  0  0  0
 37 38  2  0  0  0  0
 38 39  1  0  0  0  0
 39 40  1  0  0  0  0
 40 41  1  0  0  0  0
 39 42  1  0  0  0  0
 37 43  1  0  0  0  0
 43 44  2  0  0  0  0
 44 45  1  0  0  0  0
 45 46  1  0  0  0  0
 46 47  1  0  0  0  0
 47 48  1  0  0  0  0
 44 49  1  0  0  0  0
 49 50  1  0  0  0  0
 50 51  1  0  0  0  0
 49 52  1  0  0  0  0
 52 53  2  0  0  0  0
 53 54  1  0  0  0  0
 54 55  1  0  0  0  0
 55 56  1  0  0  0  0
 54 57  1  0  0  0  0
 57 58  2  0  0  0  0
 58 59  1  0  0  0  0
 59 60  2  0  0  0  0
 60 61  1  0  0  0  0
 61 62  2  0  0  0  0
 61 63  1  0  0  0  0
 63 64  2  0  0  0  0
 64 65  1  0  0  0  0
 65 66  2  0  0  0  0
 66 67  1  0  0  0  0
 67 68  2  0  0  0  0
 67 69  1  0  0  0  0
 69 70  1  0  0  0  0
 70 71  1  0  0  0  0
 69 72  1  0  0  0  0
 72 73  2  0  0  0  0
 72 74  1  0  0  0  0
 74 75  1  0  0  0  0
 75 76  2  0  0  0  0
 76 77  1  0  0  0  0
 77 78  2  0  0  0  0
 78 79  1  0  0  0  0
 11  2  1  0  0  0  0
 23 17  1  0  0  0  0
 32 24  1  0  0  0  0
 45 35  2  0  0  0  0
 58 52  1  0  0  0  0
 78 63  1  0  0  0  0
 10  5  1  0  0  0  0
 22 18  1  0  0  0  0
 31 27  1  0  0  0  0
 42 36  2  0  0  0  0
 53 43  1  0  0  0  0
 62 57  1  0  0  0  0
 79 66  1  0  0  0  0
 23  7  1  0  0  0  0
 46 28  1  0  0  0  0
 79 74  2  0  0  0  0
  1 80  1  0  0  0  0
  6 81  1  0  0  0  0
  9 82  1  0  0  0  0
 17 83  1  0  0  0  0
 18 84  1  0  0  0  0
 19 85  1  0  0  0  0
 20 86  1  0  0  0  0
 21 87  1  0  0  0  0
 22 88  1  0  0  0  0
 22 89  1  0  0  0  0
 23 90  1  0  0  0  0
 25 91  1  0  0  0  0
 26 92  1  0  0  0  0
 32 93  1  0  0  0  0
 33 94  1  0  0  0  0
 33 95  1  0  0  0  0
 34 96  1  0  0  0  0
 34 97  1  0  0  0  0
 34 98  1  0  0  0  0
 40 99  1  0  0  0  0
 40100  1  0  0  0  0
 41101  1  0  0  0  0
 41102  1  0  0  0  0
 41103  1  0  0  0  0
 47104  1  0  0  0  0
 47105  1  0  0  0  0
 48106  1  0  0  0  0
 48107  1  0  0  0  0
 48108  1  0  0  0  0
 50109  1  0  0  0  0
 50110  1  0  0  0  0
 51111  1  0  0  0  0
 51112  1  0  0  0  0
 51113  1  0  0  0  0
 55114  1  0  0  0  0
 55115  1  0  0  0  0
 56116  1  0  0  0  0
 56117  1  0  0  0  0
 56118  1  0  0  0  0
 59119  1  0  0  0  0
 60120  1  0  0  0  0
 62121  1  0  0  0  0
 64122  1  0  0  0  0
 65123  1  0  0  0  0
 70124  1  0  0  0  0
 70125  1  0  0  0  0
 71126  1  0  0  0  0
 71127  1  0  0  0  0
 71128  1  0  0  0  0
 75129  1  0  0  0  0
 76130  1  0  0  0  0
 77131  1  0  0  0  0
M  END
