93

C         -3.38660       -0.61660       -0.37350
C         -4.36740        0.33940       -0.43680
C         -4.24620        1.75290       -0.05810
O         -3.27780        2.31440        0.42020
C         -5.54430        2.37660       -0.37160
C         -5.89350        3.71380       -0.19760
C         -7.17880        4.01000       -0.58340
C         -8.05420        3.04530       -1.09940
C         -7.72300        1.72240       -1.27250
C         -6.41690        1.39950       -0.89060
C         -5.71390        0.11800       -0.92710
C         -6.26240       -1.07130       -1.33960
C         -5.61090       -2.32120       -1.36220
N         -5.16400       -3.38020       -1.40540
C         -7.58590       -1.22550       -1.80220
N         -8.64440       -1.43540       -2.19540
C         -9.17270        4.04090       -1.28150
C         -9.42440        4.53910       -2.72030
C        -10.20970        5.81650       -2.52840
C         -9.38050        6.73070       -2.04130
C         -8.02040        6.08670       -1.89580
C         -8.05540        5.12440       -3.09020
C         -8.19610        5.11720       -0.70760
C         -2.05940       -0.56110        0.07480
S         -1.29540        0.87700        0.75900
C          0.14980       -0.00900        0.96360
C          1.46450        0.20060        1.41590
C          2.09700        1.30060        2.03750
C          3.47340        1.18000        2.43520
N          3.91860        2.26390        3.05080
S          2.71440        3.34420        3.12210
N          1.58040        2.47270        2.36920
C          4.19300        0.01880        2.07140
C          5.56070       -0.28490        2.10770
S          7.03400        0.42950        2.66070
C          7.91600       -0.89130        1.92730
C          9.28080       -1.17040        1.83940
C         10.33090       -0.27140        2.40560
C         10.79830        0.74100        1.35630
C          9.51090       -2.33900        1.11520
S          8.01220       -3.09060        0.56870
C          7.08720       -1.83380        1.29940
C          5.73630       -1.49250        1.41640
N          4.52210       -1.96610        0.99260
C          3.55890       -1.05950        1.39310
C          2.15950       -1.01470        1.19710
N          1.28340       -1.97050        0.70390
C          0.05690       -1.34520        0.53120
C         -1.19580       -1.67460        0.01660
C         -1.55700       -2.97340       -0.63730
C         -1.35360       -2.88220       -2.15280
C          1.38010       -3.36980        1.07030
C          0.48180       -3.70360        2.26170
C          4.43670       -2.99240       -0.02650
C          4.75920       -4.38610        0.50860
C         10.76990       -2.89410        0.81620
C         11.03150       -4.02550        0.09490
C         12.36570       -4.43360       -0.11650
N         13.45410       -4.75400       -0.28440
C         10.06050       -4.86320       -0.48700
N          9.30170       -5.57610       -0.97190
H         -3.67540       -1.59220       -0.73760
H         -5.18780        4.42130        0.20880
H         -8.41100        0.99440       -1.66810
H        -10.09100        3.82780       -0.73790
H         -9.85100        3.79780       -3.39050
H        -11.26510        5.90450       -2.70830
H         -9.60490        7.73490       -1.73280
H         -7.16810        6.75620       -1.81600
H         -8.07700        5.65140       -4.04260
H         -7.24760        4.39490       -3.09610
H         -8.46380        5.62300        0.21820
H         11.18200       -0.85270        2.76370
H          9.90170        0.26570        3.25370
H         11.22910        0.23380        0.49560
H          9.96000        1.34500        1.01750
H         11.54940        1.40000        1.78350
H         -2.59420       -3.24180       -0.43090
H         -0.93160       -3.77470       -0.24760
H         -1.61700       -3.82740       -2.61980
H         -1.98070       -2.10200       -2.57690
H         -0.31590       -2.65180       -2.38530
H          1.12750       -3.99540        0.20890
H          2.40760       -3.56900        1.36110
H         -0.56410       -3.51280        2.03780
H          0.76390       -3.09820        3.12080
H          0.59680       -4.75260        2.52190
H          3.44290       -2.95730       -0.47340
H          5.16470       -2.74730       -0.80850
H          5.79070       -4.43550        0.84470
H          4.11910       -4.66120        1.34340
H          4.62800       -5.11510       -0.28550
H         11.62770       -2.35530        1.19940
