86

C         -2.29190        3.38100        2.75650
C         -3.51790        2.79640        2.63810
C         -3.72510        1.36040        2.32180
O         -2.98340        0.42480        2.52970
C         -5.01420        1.31090        1.60630
C         -5.54110        0.21500        0.92650
C         -6.73220        0.47280        0.29240
C         -7.36310        1.72370        0.33960
C         -6.85640        2.81210        1.01020
C         -5.63620        2.57500        1.65070
C         -4.76520        3.49030        2.37920
C         -5.06930        4.75780        2.79660
C         -6.30650        5.39260        2.56670
N         -7.29480        5.95350        2.40360
C         -4.18530        5.55590        3.55380
N         -3.50830        6.23770        4.18180
C         -8.50470        1.26820       -0.53580
C         -9.83810        0.94370        0.17010
C        -10.57960        0.09330       -0.83640
C         -9.97950       -1.08900       -0.88640
C         -8.82210       -1.05800        0.08540
C         -9.40790       -0.14080        1.16630
C         -7.79770       -0.12430       -0.59180
C         -1.07720        2.66490        2.88940
C         -0.81270        1.50780        3.58460
C          0.42720        0.93330        3.29880
S          1.12290       -0.57770        3.83320
C          2.39500       -0.37320        2.68250
C          3.47890       -1.09370        2.15560
C          4.06290       -2.31840        2.54610
C          5.16130       -2.83800        1.78320
N          5.63010       -3.97210        2.27900
S          4.76370       -4.35420        3.59220
N          3.75400       -3.08970        3.57640
C          5.54300       -2.16830        0.59970
C          6.37430       -2.57380       -0.45600
C          6.23670       -1.62520       -1.47250
N          5.40020       -0.62190       -1.06370
C          4.88740        0.32150       -2.02770
C          3.44350        0.00890       -2.41140
C          4.94180       -0.94020        0.20460
C          3.98490       -0.33650        1.06120
N          3.28030        0.85660        0.99190
C          2.30820        0.81980        1.95810
C          1.20070        1.59010        2.32720
Se         0.39810        3.18830        1.79630
C          3.66280        2.12620        0.41400
C          5.08570        2.51670        0.80180
C          6.91930       -1.99170       -2.64130
C          7.58070       -3.21570       -2.48120
S          7.37670       -3.91320       -0.89110
C          8.24460       -3.71100       -3.61050
C          8.13800       -2.91300       -4.72440
Se         7.13180       -1.34440       -4.38180
C          8.65320       -3.17290       -6.02650
C          9.37390       -4.26460       -6.46450
C          9.69220       -4.20680       -7.82270
C          9.21950       -3.07100       -8.43870
C          9.35620       -2.71130       -9.77810
N          9.46850       -2.42060      -10.88370
S          8.36610       -2.05020       -7.31930
H         -2.20780        4.45120        2.59300
H         -5.02030       -0.72960        0.91010
H         -7.33810        3.77610        1.02320
H         -8.63850        1.82240       -1.46290
H        -10.36570        1.80730        0.56520
H        -11.40210        0.44670       -1.43010
H        -10.20010       -1.92040       -1.53000
H         -8.42330       -2.01770        0.40290
H         -8.68100        0.19670        1.90290
H        -10.25780       -0.59360        1.67400
H         -7.45540       -0.49520       -1.55640
H         -1.49920        1.09240        4.29900
H          5.52230        0.23560       -2.91790
H          4.99540        1.34120       -1.65810
H          3.08300        0.73980       -3.13000
H          3.38720       -0.97840       -2.86410
H          2.79410        0.02040       -1.53930
H          3.52800        2.12040       -0.66920
H          2.96540        2.87080        0.81580
H          5.16560        2.60510        1.88280
H          5.34090        3.47430        0.35620
H          5.80440        1.77110        0.46980
H          8.77620       -4.64570       -3.60640
H          9.65730       -5.07850       -5.82290
H         10.24590       -4.96440       -8.34840
