133

C         -4.42680       -0.59120       -4.78530
C         -5.49060        0.07920       -4.23310
C         -5.44700        0.93970       -3.04950
O         -4.48040        1.19310       -2.34770
C         -6.81260        1.45120       -2.85450
C         -7.24890        2.30980       -1.84810
C         -8.58760        2.61190       -1.91420
C         -9.42850        2.10130       -2.91160
C         -9.00890        1.25580       -3.91160
C         -7.65000        0.93010       -3.86110
C         -6.85020        0.06890       -4.73360
C         -7.33090       -0.61620       -5.82100
C         -6.59100       -1.45830       -6.67730
N         -6.08700       -2.16180       -7.43410
C         -8.67230       -0.57950       -6.25680
N         -9.74240       -0.60280       -6.67300
C        -10.64150        2.81290       -2.36470
C        -11.64270        1.95380       -1.56390
C        -12.43290        2.96680       -0.76710
C        -11.63590        3.44700        0.17880
C        -10.29320        2.76700        0.03690
C        -10.74740        1.38650       -0.45470
C         -9.70360        3.38020       -1.25120
C         -3.09250       -0.67550       -4.37170
C         -2.12670       -1.42260       -5.07530
C         -2.35420       -2.03840       -6.37800
C         -1.98120       -3.36340       -6.59680
C         -2.23450       -3.96540       -7.81190
C         -2.84910       -3.26460       -8.84320
C         -3.20930       -3.95030      -10.12630
C         -4.58520       -4.60650       -9.98450
C         -3.18030       -1.93120       -8.63580
C         -2.93710       -1.32180       -7.42230
C         -0.92790       -1.50290       -4.36940
S          0.60380       -2.28760       -4.70810
C          1.21220       -1.67750       -3.20710
C          2.36800       -1.75240       -2.41850
C          3.55640       -2.49680       -2.58860
C          4.52490       -2.50600       -1.53190
N          5.55890       -3.28800       -1.79890
S          5.33440       -3.95280       -3.25820
N          3.90860       -3.26940       -3.60390
C          4.30760       -1.68920       -0.40030
C          5.10340       -1.45430        0.72960
S          6.57970       -2.01120        1.43490
C          6.33240       -0.90960        2.77050
C          7.03760       -0.67800        3.96110
C          8.23440       -1.39510        4.37170
C          9.21960       -1.71880        3.43850
C         10.35410       -2.39810        3.83070
C         10.53720       -2.78190        5.15510
C         11.74700       -3.56770        5.56560
C         11.47370       -5.06780        5.43270
C          9.54470       -2.47480        6.07850
C          8.40750       -1.79140        5.69850
C          6.40110        0.27880        4.75440
S          4.93040        0.89110        4.00060
C          5.16210       -0.15030        2.64520
C          4.45690       -0.46720        1.48280
N          3.28510       -0.10370        0.87660
C          3.15530       -0.85880       -0.27770
C          2.12420       -0.97440       -1.24720
N          0.83890       -0.46820       -1.32390
C          0.28770       -0.90150       -2.49870
C         -0.94300       -0.79960       -3.15510
S         -2.45530       -0.02110       -2.86550
C         -0.02510        0.05940       -0.29060
C         -0.20940       -0.94070        0.84770
C          2.63600        1.13000        1.26250
C          2.76070        2.19200        0.17310
C          6.90140        0.84240        5.94370
C          6.22920        1.55650        6.89530
C          6.96060        2.48560        7.78810
O          8.15840        2.55250        7.95210
C          5.91570        3.34520        8.38860
C          6.07430        4.43750        9.20540
C          4.92200        5.11000        9.62810
C          4.82220        6.25790       10.46200
C          3.53680        6.63730       10.65220
Br         2.94690        8.09580       11.67400
S          2.36930        5.63110        9.83650
C          3.65410        4.64550        9.20570
C          3.49100        3.53310        8.38880
C          4.63880        2.88230        7.98180
C          4.81830        1.68160        7.17360
C          3.86670        0.71490        6.95820
C          2.50360        0.86600        7.27010
N          1.37720        0.95520        7.47580
C          4.19020       -0.57040        6.47850
N          4.44270       -1.64180        6.15100
H         -4.63170       -1.16990       -5.67780
H         -6.56400        2.68290       -1.10270
H         -9.67080        0.87690       -4.67180
H        -11.12710        3.51200       -3.04280
H        -12.21320        1.24620       -2.15930
H        -13.43950        3.26050       -1.00050
H        -11.84340        4.22170        0.89340
H         -9.63430        2.79980        0.90050
H        -11.31840        0.84850        0.30020
H         -9.93790        0.75550       -0.81690
H         -9.56570        4.45780       -1.18490
H         -1.52170       -3.92580       -5.79760
H         -1.95870       -4.99940       -7.96120
H         -2.46490       -4.71180      -10.36850
H         -3.23790       -3.22470      -10.94120
H         -4.88700       -5.06590      -10.92290
H         -4.55960       -5.37280       -9.21330
H         -5.32620       -3.86410       -9.69920
H         -3.64190       -1.36620       -9.43180
H         -3.17860       -0.27730       -7.28480
H          9.10170       -1.41410        2.40940
H         11.11350       -2.63280        3.09900
H         12.00340       -3.33920        6.60180
H         12.59630       -3.29930        4.93430
H         11.22800       -5.31800        4.40310
H         10.63630       -5.35710        6.06350
H         12.34830       -5.64080        5.73100
H          9.66300       -2.77940        7.10820
H          7.62540       -1.59910        6.41780
H          0.34700        1.01810        0.06970
H         -0.99210        0.24900       -0.76240
H          0.74210       -1.20640        1.30250
H         -0.85800       -0.51770        1.60980
H         -0.66960       -1.85050        0.46940
H          1.59570        0.95060        1.53510
H          3.14520        1.47880        2.16440
H          2.24750        3.09910        0.48030
H          3.80850        2.42810        0.00190
H          2.33430        1.84710       -0.76580
H          7.97790        0.78380        6.07690
H          7.05570        4.76440        9.51120
H          5.66730        6.76540       10.89020
H          2.50680        3.21320        8.08820
