130

C          0.47530       -5.50820       -3.35180
C          1.50940       -5.29310       -4.22480
C          2.45290       -4.17140       -4.18690
O          2.40150       -3.18170       -3.47490
C          3.50110       -4.48000       -5.17320
C          4.64100       -3.72920       -5.45010
C          5.45490       -4.28170       -6.40950
C          5.15450       -5.49040       -7.05130
C          4.02970       -6.23740       -6.79250
C          3.18970       -5.69570       -5.81620
C          1.92250       -6.19280       -5.28330
C          1.22790       -7.27450       -5.75990
C         -0.05030       -7.68590       -5.32720
N         -1.09890       -8.07490       -5.06420
C          1.67560       -8.11250       -6.80270
N          1.97500       -8.83940       -7.63960
C          6.41080       -5.45280       -7.88460
C          7.58410       -6.37130       -7.46260
C          7.43910       -6.59650       -5.97800
C          7.72360       -5.45490       -5.36590
C          8.06710       -4.43710       -6.42550
C          8.73100       -5.34800       -7.47050
C          6.74740       -4.10770       -7.16690
C         -0.01260       -4.70980       -2.30810
C         -1.06420       -5.13710       -1.48090
C         -1.73890       -6.43880       -1.60010
C         -1.49010       -7.39640       -0.62170
C         -2.09010       -8.63870       -0.68800
C         -2.95020       -8.92850       -1.73340
C         -3.21530       -7.97110       -2.69440
C         -2.62040       -6.71750       -2.64720
C         -3.00360       -5.67200       -3.65530
C         -4.16270       -4.82830       -3.12030
C         -1.36600       -4.19350       -0.50670
S         -2.54190       -4.16460        0.79310
C         -1.98230       -2.58200        1.21540
C         -2.23060       -1.58720        2.17230
C         -3.06080       -1.57190        3.31560
C         -3.03460       -0.42510        4.17760
N         -3.81110       -0.57170        5.23900
S         -4.52060       -2.02480        5.15870
N         -3.86230       -2.52330        3.76710
C         -2.28810        0.70810        3.78280
C         -2.24750        2.01050        4.29690
S         -2.91930        2.91220        5.60800
C         -2.20540        4.36330        4.94130
C         -2.26460        5.70750        5.31680
C         -3.03320        6.26420        6.43450
C         -2.74930        5.95380        7.76780
C         -1.56520        5.10970        8.14520
C         -0.26540        5.90430        8.00080
C         -3.53810        6.52400        8.75770
C         -4.58390        7.37480        8.44730
C         -4.85280        7.68440        7.12520
C         -4.07560        7.13540        6.12410
C         -1.60400        6.52730        4.39960
S         -0.85630        5.59770        3.10250
C         -1.48190        4.13090        3.75960
C         -1.49710        2.78360        3.39860
N         -1.05180        1.99740        2.36790
C         -1.51010        0.71300        2.58920
C         -1.37100       -0.49380        1.85910
N         -0.58270       -0.84540        0.77740
C         -0.95630       -2.10620        0.38940
C         -0.58700       -3.02720       -0.59490
S          0.57520       -3.10960       -1.86690
C          0.74690       -0.39100        0.42950
C          1.81120       -1.20110        1.16890
C         -0.56360        2.60960        1.15100
C          0.87420        3.10800        1.29410
C         -1.42650        7.91460        4.53230
C         -1.01380        8.81850        3.59140
C         -0.39110       10.09580        4.00450
O         -0.36660       10.57850        5.11350
C          0.24960       10.62250        2.77340
C          1.05110       11.73410        2.62140
C          1.56600       12.01280        1.35930
Cl         2.57080       13.38940        1.13500
C          1.26670       11.17400        0.28340
Br         1.98780       11.54210       -1.42590
C          0.44720       10.06130        0.43170
C         -0.06450        9.78560        1.68690
C         -0.97270        8.73990        2.15180
C         -1.83790        8.02810        1.35860
C         -1.78580        8.01100       -0.04750
N         -1.75900        7.93730       -1.19300
C         -2.93090        7.31200        1.88780
N         -3.86110        6.77500        2.29400
H         -0.05930       -6.44690       -3.44660
H          4.83310       -2.80170       -4.93360
H          3.81550       -7.16650       -7.29330
H          6.26590       -5.43290       -8.96280
H          7.70240       -7.26180       -8.07400
H          7.09960       -7.51800       -5.54250
H          7.66880       -5.23200       -4.31630
H          8.62670       -3.56720       -6.09170
H          9.67350       -5.76920       -7.12390
H          8.87620       -4.86640       -8.43640
H          6.82790       -3.21010       -7.77700
H         -0.81210       -7.16000        0.18600
H         -1.88440       -9.37710        0.07240
H         -3.41760       -9.89970       -1.79670
H         -3.89010       -8.19720       -3.50580
H         -2.15940       -5.01810       -3.87930
H         -3.30460       -6.16190       -4.58210
H         -5.02260       -5.45880       -2.90660
H         -3.87360       -4.32390       -2.20050
H         -4.45430       -4.07730       -3.85080
H         -1.51400        4.21820        7.51960
H         -1.67220        4.78500        9.18150
H         -0.10780        6.20140        6.96620
H         -0.30080        6.80310        8.61230
H          0.58230        5.30200        8.31890
H         -3.32360        6.29740        9.79220
H         -5.18410        7.80040        9.23740
H         -5.66270        8.35170        6.87320
H         -4.28210        7.35550        5.08660
H          0.87000       -0.52010       -0.64970
H          0.86370        0.65600        0.68000
H          1.68240       -1.10340        2.24530
H          2.79870       -0.83830        0.89810
H          1.74730       -2.25290        0.90370
H         -0.67060        1.89990        0.33010
H         -1.20890        3.46730        0.92840
H          1.23910        3.45400        0.33110
H          0.91540        3.93830        1.99390
H          1.53650        2.32790        1.66340
H         -1.55240        8.30840        5.53670
H          1.27230       12.37250        3.46190
H          0.23680        9.43590       -0.42150
