
  xtb     02022208083D
 energy: -187.646599665079 gnorm: 0.000349794009 xtb: 6.4.1 (unknown)
 98112  0     0  0            999 V2000
   -6.5545    2.0862    1.7649 C   0  0  0  0  0  0  0  0  0  0  0  0
   -6.8150    1.1897    2.7721 C   0  0  0  0  0  0  0  0  0  0  0  0
   -5.9061    0.1456    3.2280 C   0  0  0  0  0  0  0  0  0  0  0  0
   -4.7610   -0.0598    2.8378 O   0  0  0  0  0  0  0  0  0  0  0  0
   -6.6214   -0.6279    4.2497 C   0  0  0  0  0  0  0  0  0  0  0  0
   -6.1576   -1.7463    4.9399 C   0  0  0  0  0  0  0  0  0  0  0  0
   -7.0653   -2.2685    5.8297 C   0  0  0  0  0  0  0  0  0  0  0  0
   -8.3409   -1.7201    6.0177 C   0  0  0  0  0  0  0  0  0  0  0  0
   -8.8108   -0.6178    5.3424 C   0  0  0  0  0  0  0  0  0  0  0  0
   -7.9030   -0.0674    4.4335 C   0  0  0  0  0  0  0  0  0  0  0  0
   -8.0408    1.0849    3.5417 C   0  0  0  0  0  0  0  0  0  0  0  0
   -9.1302    1.9141    3.4823 C   0  0  0  0  0  0  0  0  0  0  0  0
   -9.2636    3.0402    2.6425 C   0  0  0  0  0  0  0  0  0  0  0  0
   -9.4551    3.9726    1.9993 N   0  0  0  0  0  0  0  0  0  0  0  0
  -10.2879    1.7716    4.2766 C   0  0  0  0  0  0  0  0  0  0  0  0
  -11.2583    1.7224    4.8881 N   0  0  0  0  0  0  0  0  0  0  0  0
   -8.7165   -2.7459    7.0575 C   0  0  0  0  0  0  0  0  0  0  0  0
   -8.6760   -2.2830    8.5294 C   0  0  0  0  0  0  0  0  0  0  0  0
   -8.6129   -3.5749    9.3120 C   0  0  0  0  0  0  0  0  0  0  0  0
   -7.4057   -4.0959    9.1341 C   0  0  0  0  0  0  0  0  0  0  0  0
   -6.6321   -3.1648    8.2283 C   0  0  0  0  0  0  0  0  0  0  0  0
   -7.2206   -1.8185    8.6696 C   0  0  0  0  0  0  0  0  0  0  0  0
   -7.2943   -3.3580    6.8475 C   0  0  0  0  0  0  0  0  0  0  0  0
   -5.4123    2.2562    0.9696 C   0  0  0  0  0  0  0  0  0  0  0  0
   -5.3734    3.2296   -0.0314 C   0  0  0  0  0  0  0  0  0  0  0  0
   -4.1879    3.3003   -0.7390 C   0  0  0  0  0  0  0  0  0  0  0  0
   -3.7084    4.3574   -2.0555 S   0  0  0  0  0  0  0  0  0  0  0  0
   -2.1655    3.5790   -2.0749 C   0  0  0  0  0  0  0  0  0  0  0  0
   -0.9387    3.6688   -2.7423 C   0  0  0  0  0  0  0  0  0  0  0  0
   -0.4971    4.5815   -3.7257 C   0  0  0  0  0  0  0  0  0  0  0  0
    0.8634    4.5166   -4.1652 C   0  0  0  0  0  0  0  0  0  0  0  0
    1.1552    5.4547   -5.0521 N   0  0  0  0  0  0  0  0  0  0  0  0
   -0.1734    6.3418   -5.3144 S   0  0  0  0  0  0  0  0  0  0  0  0
   -1.1702    5.5633   -4.3045 N   0  0  0  0  0  0  0  0  0  0  0  0
    1.6930    3.4902   -3.6617 C   0  0  0  0  0  0  0  0  0  0  0  0
    3.0154    3.1590   -3.9739 C   0  0  0  0  0  0  0  0  0  0  0  0
    3.3265    1.9967   -3.2568 C   0  0  0  0  0  0  0  0  0  0  0  0
    2.2510    1.6165   -2.4975 N   0  0  0  0  0  0  0  0  0  0  0  0
    2.2372    0.2910   -1.9229 C   0  0  0  0  0  0  0  0  0  0  0  0
    1.3253   -0.6486   -2.7077 C   0  0  0  0  0  0  0  0  0  0  0  0
    1.2270    2.5217   -2.7194 C   0  0  0  0  0  0  0  0  0  0  0  0
   -0.0845    2.6645   -2.1914 C   0  0  0  0  0  0  0  0  0  0  0  0
   -0.7911    2.0016   -1.2015 N   0  0  0  0  0  0  0  0  0  0  0  0
   -2.0389    2.5598   -1.1241 C   0  0  0  0  0  0  0  0  0  0  0  0
   -3.1874    2.3879   -0.3451 C   0  0  0  0  0  0  0  0  0  0  0  0
   -3.7746    1.2987    1.0547 Se  0  0  0  0  0  2  0  0  0  0  0  0
   -0.3437    1.1449   -0.1282 C   0  0  0  0  0  0  0  0  0  0  0  0
    0.6134    1.8777    0.8086 C   0  0  0  0  0  0  0  0  0  0  0  0
    4.6239    1.5365   -3.4909 C   0  0  0  0  0  0  0  0  0  0  0  0
    5.2905    2.3899   -4.3997 C   0  0  0  0  0  0  0  0  0  0  0  0
    4.3120    3.7349   -4.9598 S   0  0  0  0  0  0  0  0  0  0  0  0
    6.5915    2.0438   -4.6996 C   0  0  0  0  0  0  0  0  0  0  0  0
    7.0683    0.8954   -4.0556 C   0  0  0  0  0  0  0  0  0  0  0  0
    5.7291    0.1363   -2.9386 Se  0  0  0  0  0  2  0  0  0  0  0  0
    8.3765    0.4501   -4.2604 C   0  0  0  0  0  0  0  0  0  0  0  0
    9.0539   -0.6245   -3.7247 C   0  0  0  0  0  0  0  0  0  0  0  0
    8.4983   -1.5780   -2.7778 C   0  0  0  0  0  0  0  0  0  0  0  0
    7.3595   -1.6017   -2.3250 O   0  0  0  0  0  0  0  0  0  0  0  0
    9.5773   -2.5285   -2.4590 C   0  0  0  0  0  0  0  0  0  0  0  0
    9.5562   -3.6109   -1.6041 C   0  0  0  0  0  0  0  0  0  0  0  0
   10.7172   -4.3622   -1.4665 C   0  0  0  0  0  0  0  0  0  0  0  0
   10.7347   -5.7163   -0.4106 Cl  0  0  0  0  0  0  0  0  0  0  0  0
   11.8679   -4.0184   -2.1832 C   0  0  0  0  0  0  0  0  0  0  0  0
   13.2961   -4.9545   -2.0040 Cl  0  0  0  0  0  0  0  0  0  0  0  0
   11.8828   -2.9254   -3.0451 C   0  0  0  0  0  0  0  0  0  0  0  0
   10.7291   -2.1736   -3.1843 C   0  0  0  0  0  0  0  0  0  0  0  0
   10.4310   -0.9885   -3.9911 C   0  0  0  0  0  0  0  0  0  0  0  0
   11.3160   -0.3664   -4.8329 C   0  0  0  0  0  0  0  0  0  0  0  0
   11.0443    0.7724   -5.6203 C   0  0  0  0  0  0  0  0  0  0  0  0
   10.9080    1.6942   -6.2921 N   0  0  0  0  0  0  0  0  0  0  0  0
   12.6473   -0.7898   -5.0336 C   0  0  0  0  0  0  0  0  0  0  0  0
   13.7384   -1.0772   -5.2439 N   0  0  0  0  0  0  0  0  0  0  0  0
   -7.3487    2.7811    1.5163 H   0  0  0  0  0  0  0  0  0  0  0  0
   -5.1694   -2.1391    4.7587 H   0  0  0  0  0  0  0  0  0  0  0  0
   -9.7982   -0.2159    5.4951 H   0  0  0  0  0  0  0  0  0  0  0  0
   -9.5869   -3.3574    6.8277 H   0  0  0  0  0  0  0  0  0  0  0  0
   -9.4562   -1.5796    8.8066 H   0  0  0  0  0  0  0  0  0  0  0  0
   -9.4436   -3.9906    9.8513 H   0  0  0  0  0  0  0  0  0  0  0  0
   -7.0263   -5.0338    9.4951 H   0  0  0  0  0  0  0  0  0  0  0  0
   -5.5501   -3.2650    8.2328 H   0  0  0  0  0  0  0  0  0  0  0  0
   -6.9642   -1.5752    9.6993 H   0  0  0  0  0  0  0  0  0  0  0  0
   -6.9562   -0.9845    8.0220 H   0  0  0  0  0  0  0  0  0  0  0  0
   -7.2158   -4.3782    6.4764 H   0  0  0  0  0  0  0  0  0  0  0  0
   -6.2140    3.8742   -0.2265 H   0  0  0  0  0  0  0  0  0  0  0  0
    1.9707    0.3303   -0.8676 H   0  0  0  0  0  0  0  0  0  0  0  0
    3.2667   -0.0833   -1.9766 H   0  0  0  0  0  0  0  0  0  0  0  0
    1.6895   -0.7510   -3.7274 H   0  0  0  0  0  0  0  0  0  0  0  0
    1.3180   -1.6313   -2.2444 H   0  0  0  0  0  0  0  0  0  0  0  0
    0.3070   -0.2680   -2.7483 H   0  0  0  0  0  0  0  0  0  0  0  0
   -1.2394    0.8539    0.4335 H   0  0  0  0  0  0  0  0  0  0  0  0
    0.0926    0.2282   -0.5227 H   0  0  0  0  0  0  0  0  0  0  0  0
    0.9502    1.2074    1.5944 H   0  0  0  0  0  0  0  0  0  0  0  0
    1.4794    2.2576    0.2705 H   0  0  0  0  0  0  0  0  0  0  0  0
    0.1045    2.7211    1.2696 H   0  0  0  0  0  0  0  0  0  0  0  0
    7.2106    2.6093   -5.3756 H   0  0  0  0  0  0  0  0  0  0  0  0
    8.9330    1.0734   -4.9512 H   0  0  0  0  0  0  0  0  0  0  0  0
    8.6619   -3.8648   -1.0574 H   0  0  0  0  0  0  0  0  0  0  0  0
   12.7894   -2.6930   -3.5790 H   0  0  0  0  0  0  0  0  0  0  0  0
  1  2  2  0  0  0  0
  2  3  1  0  0  0  0
  3  4  2  0  0  0  0
  3  5  1  0  0  0  0
  5  6  2  0  0  0  0
  6  7  1  0  0  0  0
  7  8  2  0  0  0  0
  8  9  1  0  0  0  0
  9 10  2  0  0  0  0
 10 11  1  0  0  0  0
 11 12  2  0  0  0  0
 12 13  1  0  0  0  0
 13 14  3  0  0  0  0
 12 15  1  0  0  0  0
 15 16  3  0  0  0  0
  8 17  1  0  0  0  0
 17 18  1  0  0  0  0
 18 19  1  0  0  0  0
 19 20  2  0  0  0  0
 20 21  1  0  0  0  0
 21 22  1  0  0  0  0
 21 23  1  0  0  0  0
  1 24  1  0  0  0  0
 24 25  2  0  0  0  0
 25 26  1  0  0  0  0
 26 27  1  0  0  0  0
 27 28  1  0  0  0  0
 28 29  1  0  0  0  0
 29 30  1  0  0  0  0
 30 31  1  0  0  0  0
 31 32  2  0  0  0  0
 32 33  1  0  0  0  0
 33 34  1  0  0  0  0
 31 35  1  0  0  0  0
 35 36  1  0  0  0  0
 36 37  2  0  0  0  0
 37 38  1  0  0  0  0
 38 39  1  0  0  0  0
 39 40  1  0  0  0  0
 38 41  1  0  0  0  0
 41 42  1  0  0  0  0
 42 43  1  0  0  0  0
 43 44  1  0  0  0  0
 44 45  1  0  0  0  0
 45 46  1  0  0  0  0
 43 47  1  0  0  0  0
 47 48  1  0  0  0  0
 37 49  1  0  0  0  0
 49 50  2  0  0  0  0
 50 51  1  0  0  0  0
 50 52  1  0  0  0  0
 52 53  2  0  0  0  0
 53 54  1  0  0  0  0
 53 55  1  0  0  0  0
 55 56  2  0  0  0  0
 56 57  1  0  0  0  0
 57 58  2  0  0  0  0
 57 59  1  0  0  0  0
 59 60  2  0  0  0  0
 60 61  1  0  0  0  0
 61 62  1  0  0  0  0
 61 63  2  0  0  0  0
 63 64  1  0  0  0  0
 63 65  1  0  0  0  0
 65 66  2  0  0  0  0
 66 67  1  0  0  0  0
 67 68  2  0  0  0  0
 68 69  1  0  0  0  0
 69 70  3  0  0  0  0
 68 71  1  0  0  0  0
 71 72  3  0  0  0  0
 11  2  1  0  0  0  0
 23 17  1  0  0  0  0
 46 24  1  0  0  0  0
 54 49  1  0  0  0  0
 67 56  1  0  0  0  0
 10  5  1  0  0  0  0
 22 18  1  0  0  0  0
 45 26  2  0  0  0  0
 66 59  1  0  0  0  0
 23  7  1  0  0  0  0
 44 28  2  0  0  0  0
 42 29  2  0  0  0  0
 34 30  2  0  0  0  0
 41 35  2  0  0  0  0
 51 36  1  0  0  0  0
  1 73  1  0  0  0  0
  6 74  1  0  0  0  0
  9 75  1  0  0  0  0
 17 76  1  0  0  0  0
 18 77  1  0  0  0  0
 19 78  1  0  0  0  0
 20 79  1  0  0  0  0
 21 80  1  0  0  0  0
 22 81  1  0  0  0  0
 22 82  1  0  0  0  0
 23 83  1  0  0  0  0
 25 84  1  0  0  0  0
 39 85  1  0  0  0  0
 39 86  1  0  0  0  0
 40 87  1  0  0  0  0
 40 88  1  0  0  0  0
 40 89  1  0  0  0  0
 47 90  1  0  0  0  0
 47 91  1  0  0  0  0
 48 92  1  0  0  0  0
 48 93  1  0  0  0  0
 48 94  1  0  0  0  0
 52 95  1  0  0  0  0
 55 96  1  0  0  0  0
 60 97  1  0  0  0  0
 65 98  1  0  0  0  0
M  END
