
  xtb     02022220363D
 energy: -261.098160261262 gnorm: 0.000347355411 xtb: 6.4.1 (unknown)
164184  0     0  0            999 V2000
   -1.9116    6.9090    4.1775 C   0  0  0  0  0  0  0  0  0  0  0  0
   -3.2649    7.1078    4.0938 C   0  0  0  0  0  0  0  0  0  0  0  0
   -4.1268    6.7466    2.9609 C   0  0  0  0  0  0  0  0  0  0  0  0
   -3.7863    6.4151    1.8384 O   0  0  0  0  0  0  0  0  0  0  0  0
   -5.5126    6.8518    3.4472 C   0  0  0  0  0  0  0  0  0  0  0  0
   -6.6726    6.5185    2.7509 C   0  0  0  0  0  0  0  0  0  0  0  0
   -7.8245    6.6592    3.4860 C   0  0  0  0  0  0  0  0  0  0  0  0
   -7.8247    7.1050    4.8143 C   0  0  0  0  0  0  0  0  0  0  0  0
   -6.6897    7.4598    5.5048 C   0  0  0  0  0  0  0  0  0  0  0  0
   -5.5046    7.3205    4.7760 C   0  0  0  0  0  0  0  0  0  0  0  0
   -4.1190    7.5674    5.1729 C   0  0  0  0  0  0  0  0  0  0  0  0
   -3.7229    8.1608    6.3434 C   0  0  0  0  0  0  0  0  0  0  0  0
   -4.6054    8.6059    7.3497 C   0  0  0  0  0  0  0  0  0  0  0  0
   -5.2622    8.9906    8.2094 N   0  0  0  0  0  0  0  0  0  0  0  0
   -2.3898    8.4477    6.7046 C   0  0  0  0  0  0  0  0  0  0  0  0
   -1.3364    8.7223    7.0720 N   0  0  0  0  0  0  0  0  0  0  0  0
   -9.3213    6.9669    4.9441 C   0  0  0  0  0  0  0  0  0  0  0  0
   -9.8321    5.7284    5.7113 C   0  0  0  0  0  0  0  0  0  0  0  0
  -11.2733    5.6013    5.2729 C   0  0  0  0  0  0  0  0  0  0  0  0
  -11.2766    5.1873    4.0122 C   0  0  0  0  0  0  0  0  0  0  0  0
   -9.8377    5.0271    3.5778 C   0  0  0  0  0  0  0  0  0  0  0  0
   -9.2096    4.5812    4.9045 C   0  0  0  0  0  0  0  0  0  0  0  0
   -9.3217    6.4771    3.4604 C   0  0  0  0  0  0  0  0  0  0  0  0
   -1.0273    6.3221    3.2580 C   0  0  0  0  0  0  0  0  0  0  0  0
    0.2693    5.9459    3.6165 C   0  0  0  0  0  0  0  0  0  0  0  0
    0.9098    5.2361    2.6183 C   0  0  0  0  0  0  0  0  0  0  0  0
    2.5279    4.2691    2.5180 Se  0  0  0  0  0  2  0  0  0  0  0  0
    1.9021    3.7048    0.8449 C   0  0  0  0  0  0  0  0  0  0  0  0
    2.2675    2.6894   -0.0958 C   0  0  0  0  0  0  0  0  0  0  0  0
    3.3215    1.7790   -0.0817 C   0  0  0  0  0  0  0  0  0  0  0  0
    3.3068    0.7840   -1.0309 C   0  0  0  0  0  0  0  0  0  0  0  0
    4.2517   -0.3952   -1.1775 C   0  0  0  0  0  0  0  0  0  0  0  0
    4.3930   -1.0913    0.1609 C   0  0  0  0  0  0  0  0  0  0  0  0
    5.3695   -0.6779    1.0586 C   0  0  0  0  0  0  0  0  0  0  0  0
    5.4836   -1.2798    2.2968 C   0  0  0  0  0  0  0  0  0  0  0  0
    4.6282   -2.3074    2.6726 C   0  0  0  0  0  0  0  0  0  0  0  0
    4.7326   -2.9339    4.0331 C   0  0  0  0  0  0  0  0  0  0  0  0
    3.8758   -2.1660    5.0417 C   0  0  0  0  0  0  0  0  0  0  0  0
    3.6437   -2.7052    1.7786 C   0  0  0  0  0  0  0  0  0  0  0  0
    3.5220   -2.1027    0.5400 C   0  0  0  0  0  0  0  0  0  0  0  0
    5.6026   -0.0196   -1.7651 C   0  0  0  0  0  0  0  0  0  0  0  0
    6.6205   -0.9659   -1.7757 C   0  0  0  0  0  0  0  0  0  0  0  0
    7.8429   -0.6738   -2.3476 C   0  0  0  0  0  0  0  0  0  0  0  0
    8.0802    0.5664   -2.9276 C   0  0  0  0  0  0  0  0  0  0  0  0
    9.4265    0.8986   -3.5028 C   0  0  0  0  0  0  0  0  0  0  0  0
   10.3386    1.4814   -2.4212 C   0  0  0  0  0  0  0  0  0  0  0  0
    7.0575    1.5046   -2.9194 C   0  0  0  0  0  0  0  0  0  0  0  0
    5.8290    1.2166   -2.3517 C   0  0  0  0  0  0  0  0  0  0  0  0
    3.5314   -1.2087   -2.2223 C   0  0  0  0  0  0  0  0  0  0  0  0
    2.4313   -0.5160   -2.7025 C   0  0  0  0  0  0  0  0  0  0  0  0
    2.2616    0.7059   -1.9793 C   0  0  0  0  0  0  0  0  0  0  0  0
    1.2404    1.6507   -2.0325 C   0  0  0  0  0  0  0  0  0  0  0  0
    1.2455    2.6352   -1.0743 C   0  0  0  0  0  0  0  0  0  0  0  0
    0.2341    3.7437   -0.8505 C   0  0  0  0  0  0  0  0  0  0  0  0
   -1.2060    3.3083   -0.6827 C   0  0  0  0  0  0  0  0  0  0  0  0
   -1.5251    2.0515   -0.1897 C   0  0  0  0  0  0  0  0  0  0  0  0
   -2.8386    1.7308    0.1049 C   0  0  0  0  0  0  0  0  0  0  0  0
   -3.8570    2.6560   -0.0770 C   0  0  0  0  0  0  0  0  0  0  0  0
   -5.2677    2.3601    0.3432 C   0  0  0  0  0  0  0  0  0  0  0  0
   -5.5174    2.9335    1.7403 C   0  0  0  0  0  0  0  0  0  0  0  0
   -3.5330    3.9063   -0.5873 C   0  0  0  0  0  0  0  0  0  0  0  0
   -2.2249    4.2322   -0.8829 C   0  0  0  0  0  0  0  0  0  0  0  0
    0.4119    4.7375   -1.9878 C   0  0  0  0  0  0  0  0  0  0  0  0
   -0.1732    4.4778   -3.2212 C   0  0  0  0  0  0  0  0  0  0  0  0
    0.0120    5.3431   -4.2816 C   0  0  0  0  0  0  0  0  0  0  0  0
    0.7889    6.4867   -4.1429 C   0  0  0  0  0  0  0  0  0  0  0  0
    0.9498    7.4496   -5.2836 C   0  0  0  0  0  0  0  0  0  0  0  0
   -0.1923    8.4678   -5.2882 C   0  0  0  0  0  0  0  0  0  0  0  0
    1.3718    6.7403   -2.9096 C   0  0  0  0  0  0  0  0  0  0  0  0
    1.1918    5.8755   -1.8451 C   0  0  0  0  0  0  0  0  0  0  0  0
    0.6990    4.2827    0.4761 C   0  0  0  0  0  0  0  0  0  0  0  0
    0.1303    5.1029    1.4493 C   0  0  0  0  0  0  0  0  0  0  0  0
   -1.4132    5.8415    1.6112 S   0  0  0  0  0  0  0  0  0  0  0  0
    1.4454   -1.4407   -3.9924 Se  0  0  0  0  0  2  0  0  0  0  0  0
    2.6812   -2.8282   -3.7100 C   0  0  0  0  0  0  0  0  0  0  0  0
    2.7582   -4.1394   -4.1602 C   0  0  0  0  0  0  0  0  0  0  0  0
    3.8118   -4.8298   -3.5867 C   0  0  0  0  0  0  0  0  0  0  0  0
    4.7577   -3.7907   -2.5124 S   0  0  0  0  0  0  0  0  0  0  0  0
    3.6819   -2.4773   -2.7804 C   0  0  0  0  0  0  0  0  0  0  0  0
    4.2255   -6.1739   -3.6783 C   0  0  0  0  0  0  0  0  0  0  0  0
    3.5427   -7.2784   -4.1062 C   0  0  0  0  0  0  0  0  0  0  0  0
    2.1053   -7.3912   -4.4474 C   0  0  0  0  0  0  0  0  0  0  0  0
    1.3178   -6.5135   -4.7356 O   0  0  0  0  0  0  0  0  0  0  0  0
    1.7869   -8.8285   -4.3497 C   0  0  0  0  0  0  0  0  0  0  0  0
    0.5233   -9.4071   -4.4505 C   0  0  0  0  0  0  0  0  0  0  0  0
    0.5180  -10.7694   -4.2735 C   0  0  0  0  0  0  0  0  0  0  0  0
    1.6839  -11.5056   -4.0215 C   0  0  0  0  0  0  0  0  0  0  0  0
    2.9380  -10.9494   -3.9352 C   0  0  0  0  0  0  0  0  0  0  0  0
    2.9645   -9.5616   -4.1064 C   0  0  0  0  0  0  0  0  0  0  0  0
    4.0841   -8.6268   -4.0580 C   0  0  0  0  0  0  0  0  0  0  0  0
    5.4107   -8.9680   -4.0472 C   0  0  0  0  0  0  0  0  0  0  0  0
    6.4812   -8.0506   -4.1145 C   0  0  0  0  0  0  0  0  0  0  0  0
    7.4037   -7.3705   -4.1890 N   0  0  0  0  0  0  0  0  0  0  0  0
    5.8886  -10.2947   -4.0270 C   0  0  0  0  0  0  0  0  0  0  0  0
    6.3420  -11.3493   -4.0043 N   0  0  0  0  0  0  0  0  0  0  0  0
    0.9328  -12.8101   -3.9185 C   0  0  0  0  0  0  0  0  0  0  0  0
    0.6904  -13.3526   -2.4939 C   0  0  0  0  0  0  0  0  0  0  0  0
   -0.4456  -14.3347   -2.6684 C   0  0  0  0  0  0  0  0  0  0  0  0
   -1.5487  -13.6374   -2.9082 C   0  0  0  0  0  0  0  0  0  0  0  0
   -1.1768  -12.1723   -2.9002 C   0  0  0  0  0  0  0  0  0  0  0  0
   -0.0665  -12.1883   -1.8415 C   0  0  0  0  0  0  0  0  0  0  0  0
   -0.3661  -11.9892   -4.2012 C   0  0  0  0  0  0  0  0  0  0  0  0
   -1.4396    7.1568    5.1212 H   0  0  0  0  0  0  0  0  0  0  0  0
   -6.6297    6.1794    1.7278 H   0  0  0  0  0  0  0  0  0  0  0  0
   -6.7079    7.8053    6.5247 H   0  0  0  0  0  0  0  0  0  0  0  0
   -9.8642    7.8760    5.1947 H   0  0  0  0  0  0  0  0  0  0  0  0
   -9.6459    5.7473    6.7815 H   0  0  0  0  0  0  0  0  0  0  0  0
  -12.1129    5.8701    5.8866 H   0  0  0  0  0  0  0  0  0  0  0  0
  -12.1195    5.0413    3.3625 H   0  0  0  0  0  0  0  0  0  0  0  0
   -9.6567    4.4070    2.7037 H   0  0  0  0  0  0  0  0  0  0  0  0
   -9.5753    3.6073    5.2261 H   0  0  0  0  0  0  0  0  0  0  0  0
   -8.1211    4.5783    4.9018 H   0  0  0  0  0  0  0  0  0  0  0  0
   -9.8611    7.0633    2.7190 H   0  0  0  0  0  0  0  0  0  0  0  0
    0.6850    6.1551    4.5868 H   0  0  0  0  0  0  0  0  0  0  0  0
    4.0885    1.8372    0.6769 H   0  0  0  0  0  0  0  0  0  0  0  0
    6.0531    0.1115    0.7806 H   0  0  0  0  0  0  0  0  0  0  0  0
    6.2529   -0.9497    2.9804 H   0  0  0  0  0  0  0  0  0  0  0  0
    4.3955   -3.9715    3.9902 H   0  0  0  0  0  0  0  0  0  0  0  0
    5.7727   -2.9258    4.3651 H   0  0  0  0  0  0  0  0  0  0  0  0
    3.9520   -2.6179    6.0279 H   0  0  0  0  0  0  0  0  0  0  0  0
    4.2045   -1.1312    5.1069 H   0  0  0  0  0  0  0  0  0  0  0  0
    2.8322   -2.1738    4.7349 H   0  0  0  0  0  0  0  0  0  0  0  0
    2.9633   -3.4989    2.0527 H   0  0  0  0  0  0  0  0  0  0  0  0
    2.7422   -2.4261   -0.1346 H   0  0  0  0  0  0  0  0  0  0  0  0
    6.4550   -1.9345   -1.3265 H   0  0  0  0  0  0  0  0  0  0  0  0
    8.6223   -1.4220   -2.3478 H   0  0  0  0  0  0  0  0  0  0  0  0
    9.3160    1.6251   -4.3103 H   0  0  0  0  0  0  0  0  0  0  0  0
    9.8859   -0.0027   -3.9130 H   0  0  0  0  0  0  0  0  0  0  0  0
   10.4706    0.7660   -1.6125 H   0  0  0  0  0  0  0  0  0  0  0  0
   11.3149    1.7218   -2.8353 H   0  0  0  0  0  0  0  0  0  0  0  0
    9.9033    2.3886   -2.0077 H   0  0  0  0  0  0  0  0  0  0  0  0
    7.2193    2.4745   -3.3678 H   0  0  0  0  0  0  0  0  0  0  0  0
    5.0464    1.9614   -2.3658 H   0  0  0  0  0  0  0  0  0  0  0  0
    0.4547    1.5649   -2.7686 H   0  0  0  0  0  0  0  0  0  0  0  0
   -0.7430    1.3246   -0.0208 H   0  0  0  0  0  0  0  0  0  0  0  0
   -3.0705    0.7505    0.4970 H   0  0  0  0  0  0  0  0  0  0  0  0
   -5.4438    1.2827    0.3527 H   0  0  0  0  0  0  0  0  0  0  0  0
   -5.9661    2.8156   -0.3623 H   0  0  0  0  0  0  0  0  0  0  0  0
   -4.8848    2.4344    2.4713 H   0  0  0  0  0  0  0  0  0  0  0  0
   -6.5570    2.8017    2.0330 H   0  0  0  0  0  0  0  0  0  0  0  0
   -5.2776    3.9941    1.7560 H   0  0  0  0  0  0  0  0  0  0  0  0
   -4.3077    4.6437   -0.7329 H   0  0  0  0  0  0  0  0  0  0  0  0
   -1.9917    5.2164   -1.2607 H   0  0  0  0  0  0  0  0  0  0  0  0
   -0.7901    3.6001   -3.3466 H   0  0  0  0  0  0  0  0  0  0  0  0
   -0.4518    5.1263   -5.2334 H   0  0  0  0  0  0  0  0  0  0  0  0
    1.9014    7.9770   -5.1914 H   0  0  0  0  0  0  0  0  0  0  0  0
    0.9506    6.9056   -6.2304 H   0  0  0  0  0  0  0  0  0  0  0  0
   -0.0741    9.1688   -6.1112 H   0  0  0  0  0  0  0  0  0  0  0  0
   -0.2045    9.0262   -4.3548 H   0  0  0  0  0  0  0  0  0  0  0  0
   -1.1494    7.9625   -5.3963 H   0  0  0  0  0  0  0  0  0  0  0  0
    1.9784    7.6250   -2.7776 H   0  0  0  0  0  0  0  0  0  0  0  0
    1.6618    6.0962   -0.8978 H   0  0  0  0  0  0  0  0  0  0  0  0
    2.0732   -4.5881   -4.8556 H   0  0  0  0  0  0  0  0  0  0  0  0
    5.2105   -6.3488   -3.2593 H   0  0  0  0  0  0  0  0  0  0  0  0
   -0.3487   -8.8025   -4.6451 H   0  0  0  0  0  0  0  0  0  0  0  0
    3.8261  -11.5270   -3.7394 H   0  0  0  0  0  0  0  0  0  0  0  0
    1.2249  -13.5844   -4.6251 H   0  0  0  0  0  0  0  0  0  0  0  0
    1.5801  -13.7182   -1.9886 H   0  0  0  0  0  0  0  0  0  0  0  0
   -0.3235  -15.4018   -2.6549 H   0  0  0  0  0  0  0  0  0  0  0  0
   -2.5321  -14.0054   -3.1351 H   0  0  0  0  0  0  0  0  0  0  0  0
   -1.9880  -11.4619   -2.7648 H   0  0  0  0  0  0  0  0  0  0  0  0
   -0.4442  -12.4456   -0.8532 H   0  0  0  0  0  0  0  0  0  0  0  0
    0.5050  -11.2638   -1.7831 H   0  0  0  0  0  0  0  0  0  0  0  0
   -0.9414  -12.2157   -5.0969 H   0  0  0  0  0  0  0  0  0  0  0  0
  1  2  2  0  0  0  0
  2  3  1  0  0  0  0
  3  4  2  0  0  0  0
  3  5  1  0  0  0  0
  5  6  2  0  0  0  0
  6  7  1  0  0  0  0
  7  8  2  0  0  0  0
  8  9  1  0  0  0  0
  9 10  2  0  0  0  0
 10 11  1  0  0  0  0
 11 12  2  0  0  0  0
 12 13  1  0  0  0  0
 13 14  3  0  0  0  0
 12 15  1  0  0  0  0
 15 16  3  0  0  0  0
  8 17  1  0  0  0  0
 17 18  1  0  0  0  0
 18 19  1  0  0  0  0
 19 20  2  0  0  0  0
 20 21  1  0  0  0  0
 21 22  1  0  0  0  0
 21 23  1  0  0  0  0
  1 24  1  0  0  0  0
 24 25  2  0  0  0  0
 25 26  1  0  0  0  0
 26 27  1  0  0  0  0
 27 28  1  0  0  0  0
 28 29  1  0  0  0  0
 29 30  2  0  0  0  0
 30 31  1  0  0  0  0
 31 32  1  0  0  0  0
 32 33  1  0  0  0  0
 33 34  2  0  0  0  0
 34 35  1  0  0  0  0
 35 36  2  0  0  0  0
 36 37  1  0  0  0  0
 37 38  1  0  0  0  0
 36 39  1  0  0  0  0
 39 40  2  0  0  0  0
 32 41  1  0  0  0  0
 41 42  2  0  0  0  0
 42 43  1  0  0  0  0
 43 44  2  0  0  0  0
 44 45  1  0  0  0  0
 45 46  1  0  0  0  0
 44 47  1  0  0  0  0
 47 48  2  0  0  0  0
 32 49  1  0  0  0  0
 49 50  2  0  0  0  0
 50 51  1  0  0  0  0
 51 52  1  0  0  0  0
 52 53  2  0  0  0  0
 53 54  1  0  0  0  0
 54 55  1  0  0  0  0
 55 56  2  0  0  0  0
 56 57  1  0  0  0  0
 57 58  2  0  0  0  0
 58 59  1  0  0  0  0
 59 60  1  0  0  0  0
 58 61  1  0  0  0  0
 61 62  2  0  0  0  0
 54 63  1  0  0  0  0
 63 64  2  0  0  0  0
 64 65  1  0  0  0  0
 65 66  2  0  0  0  0
 66 67  1  0  0  0  0
 67 68  1  0  0  0  0
 66 69  1  0  0  0  0
 69 70  2  0  0  0  0
 54 71  1  0  0  0  0
 71 72  1  0  0  0  0
 72 73  1  0  0  0  0
 50 74  1  0  0  0  0
 74 75  1  0  0  0  0
 75 76  1  0  0  0  0
 76 77  2  0  0  0  0
 77 78  1  0  0  0  0
 78 79  1  0  0  0  0
 77 80  1  0  0  0  0
 80 81  2  0  0  0  0
 81 82  1  0  0  0  0
 82 83  2  0  0  0  0
 82 84  1  0  0  0  0
 84 85  2  0  0  0  0
 85 86  1  0  0  0  0
 86 87  2  0  0  0  0
 87 88  1  0  0  0  0
 88 89  2  0  0  0  0
 89 90  1  0  0  0  0
 90 91  2  0  0  0  0
 91 92  1  0  0  0  0
 92 93  3  0  0  0  0
 91 94  1  0  0  0  0
 94 95  3  0  0  0  0
 87 96  1  0  0  0  0
 96 97  1  0  0  0  0
 97 98  1  0  0  0  0
 98 99  2  0  0  0  0
 99100  1  0  0  0  0
100101  1  0  0  0  0
100102  1  0  0  0  0
 11  2  1  0  0  0  0
 23 17  1  0  0  0  0
 73 24  1  0  0  0  0
 79 75  2  0  0  0  0
 90 81  1  0  0  0  0
102 96  1  0  0  0  0
 10  5  1  0  0  0  0
 22 18  1  0  0  0  0
 72 26  2  0  0  0  0
 89 84  1  0  0  0  0
101 97  1  0  0  0  0
 23  7  1  0  0  0  0
 71 28  2  0  0  0  0
102 86  1  0  0  0  0
 53 29  1  0  0  0  0
 62 55  1  0  0  0  0
 70 63  1  0  0  0  0
 51 31  2  0  0  0  0
 40 33  1  0  0  0  0
 48 41  1  0  0  0  0
 79 49  1  0  0  0  0
  1103  1  0  0  0  0
  6104  1  0  0  0  0
  9105  1  0  0  0  0
 17106  1  0  0  0  0
 18107  1  0  0  0  0
 19108  1  0  0  0  0
 20109  1  0  0  0  0
 21110  1  0  0  0  0
 22111  1  0  0  0  0
 22112  1  0  0  0  0
 23113  1  0  0  0  0
 25114  1  0  0  0  0
 30115  1  0  0  0  0
 34116  1  0  0  0  0
 35117  1  0  0  0  0
 37118  1  0  0  0  0
 37119  1  0  0  0  0
 38120  1  0  0  0  0
 38121  1  0  0  0  0
 38122  1  0  0  0  0
 39123  1  0  0  0  0
 40124  1  0  0  0  0
 42125  1  0  0  0  0
 43126  1  0  0  0  0
 45127  1  0  0  0  0
 45128  1  0  0  0  0
 46129  1  0  0  0  0
 46130  1  0  0  0  0
 46131  1  0  0  0  0
 47132  1  0  0  0  0
 48133  1  0  0  0  0
 52134  1  0  0  0  0
 56135  1  0  0  0  0
 57136  1  0  0  0  0
 59137  1  0  0  0  0
 59138  1  0  0  0  0
 60139  1  0  0  0  0
 60140  1  0  0  0  0
 60141  1  0  0  0  0
 61142  1  0  0  0  0
 62143  1  0  0  0  0
 64144  1  0  0  0  0
 65145  1  0  0  0  0
 67146  1  0  0  0  0
 67147  1  0  0  0  0
 68148  1  0  0  0  0
 68149  1  0  0  0  0
 68150  1  0  0  0  0
 69151  1  0  0  0  0
 70152  1  0  0  0  0
 76153  1  0  0  0  0
 80154  1  0  0  0  0
 85155  1  0  0  0  0
 88156  1  0  0  0  0
 96157  1  0  0  0  0
 97158  1  0  0  0  0
 98159  1  0  0  0  0
 99160  1  0  0  0  0
100161  1  0  0  0  0
101162  1  0  0  0  0
101163  1  0  0  0  0
102164  1  0  0  0  0
M  END
