117

C          4.86820       -3.05030       -2.46490
C          5.93300       -2.82130       -3.28820
C          6.68740       -1.54590       -3.34570
O          6.61850       -0.60590       -2.58140
C          7.45520       -1.59980       -4.60450
C          8.26950       -0.59710       -5.12540
C          8.84700       -0.91480       -6.33110
C          8.62240       -2.13610       -6.98100
C          7.81670       -3.13160       -6.48200
C          7.22740       -2.83200       -5.25040
C          6.32230       -3.62670       -4.42760
C          5.97070       -4.93470       -4.63730
C          5.17380       -5.69170       -3.75260
N          4.55250       -6.36990       -3.06500
C          6.39140       -5.70840       -5.73790
N          6.69450       -6.38930       -6.61140
C          9.51240       -1.77230       -8.14290
C         10.92550       -2.40380       -8.19410
C         11.30940       -2.71090       -6.76780
C         11.52510       -1.55760       -6.14940
C         11.29100       -0.44960       -7.14650
C         11.76630       -1.13980       -8.43490
C          9.76620       -0.41380       -7.41640
C          4.55810       -2.32980       -1.28810
C          5.37900       -1.82100       -0.29170
C          6.84730       -2.06450       -0.19470
C          7.24650       -2.65880        1.15510
C          4.62590       -1.14870        0.68420
C          3.24420       -1.14870        0.45180
S          2.84750       -2.04380       -0.96560
C          2.55080       -0.41050        1.41700
C          3.41040        0.14140        2.37060
S          5.07450       -0.24370        2.11350
C          2.61690        0.89350        3.24710
C          2.98550        1.72090        4.32960
N          4.19200        1.94520        4.82690
S          4.05800        3.02420        6.02560
N          2.45640        3.24720        5.95590
C          1.96950        2.48090        4.99230
C          0.62610        2.31480        4.59150
C         -0.54890        2.87740        5.10670
S         -1.03850        3.99100        6.33580
C         -2.70570        3.69990        5.89800
C         -3.91680        4.19600        6.36900
C         -5.00810        3.65310        5.71470
S         -4.50720        2.54240        4.44350
C         -2.84890        2.78230        4.84440
C         -1.61310        2.31250        4.39560
N         -1.14030        1.43940        3.45260
C         -2.06050        0.48910        2.86660
C         -1.90000       -0.89770        3.48430
C          0.24360        1.42250        3.54570
C          1.26500        0.75960        2.81110
N          1.25840       -0.05150        1.68710
C          0.24220       -0.27180        0.68430
C         -0.11660        1.02340       -0.04070
C         -6.35870        4.00900        5.92430
C         -7.49240        3.41230        5.46620
C         -8.74910        4.20180        5.35730
O         -8.98870        5.26170        5.88960
C         -9.59600        3.44760        4.41160
C        -10.81750        3.84520        3.87090
C        -11.35940        2.94230        2.98780
C        -10.73670        1.72970        2.66110
C         -9.53870        1.31760        3.19440
C         -8.97110        2.22260        4.09490
C         -7.74290        2.11560        4.87710
C         -7.11270        0.94660        5.21730
C         -7.42180       -0.31130        4.66590
N         -7.60680       -1.35570        4.22560
C         -6.13510        0.87050        6.23150
N         -5.37470        0.76180        7.08490
C        -11.83100        1.33340        1.70180
C        -11.52630        1.50370        0.19830
C        -12.89230        1.50570       -0.44930
C        -13.48480        2.65130       -0.13770
C        -12.52910        3.44320        0.72530
C        -11.19330        2.99910        0.11520
C        -12.52750        2.68300        2.06860
H          4.13790       -3.79580       -2.75910
H          8.40970        0.33270       -4.59670
H          7.64200       -4.06180       -6.99680
H          9.03350       -1.74640       -9.11970
H         11.03000       -3.21860       -8.90530
H         11.32800       -3.70180       -6.35320
H         11.75990       -1.39190       -5.11430
H         11.72910        0.51510       -6.90410
H         11.49200       -0.60230       -9.34170
H         12.83670       -1.33970       -8.43530
H          9.45570        0.49980       -7.91990
H          7.36640       -1.11510       -0.35070
H          7.15180       -2.74410       -0.99220
H          8.30980       -2.88470        1.15310
H          6.69860       -3.58030        1.34050
H          7.04600       -1.96490        1.96630
H         -4.01350        4.90310        7.17220
H         -3.06590        0.86010        3.08040
H         -1.95500        0.46690        1.78280
H         -0.88440       -1.26830        3.36360
H         -2.58970       -1.59450        3.01610
H         -2.12240       -0.85670        4.54810
H          0.66310       -0.97940       -0.03430
H         -0.63270       -0.74840        1.12490
H         -0.90540        0.83850       -0.76480
H         -0.44940        1.78730        0.65860
H          0.75430        1.40460       -0.56860
H         -6.51030        4.94860        6.44720
H        -11.26770        4.78500        4.14950
H         -9.06450        0.38410        2.93830
H        -12.34570        0.40190        1.92870
H        -10.79670        0.80420       -0.20060
H        -13.29530        0.67740       -1.00190
H        -14.48160        2.97130       -0.37830
H        -12.71280        4.51120        0.80590
H        -10.32070        3.29280        0.69590
H        -11.07760        3.33830       -0.91290
H        -13.50710        2.65130        2.54170
