
  xtb     02102220033D
 energy: -204.478625241595 gnorm: 0.000201424628 xtb: 6.4.1 (unknown)
125139  0     0  0            999 V2000
   -6.4480   -2.0274    0.1765 C   0  0  0  0  0  0  0  0  0  0  0  0
   -7.5750   -1.2592    0.2389 C   0  0  0  0  0  0  0  0  0  0  0  0
   -7.6741    0.2212    0.2073 C   0  0  0  0  0  0  0  0  0  0  0  0
   -6.7828    1.0448    0.2193 O   0  0  0  0  0  0  0  0  0  0  0  0
   -9.1116    0.5260    0.0675 C   0  0  0  0  0  0  0  0  0  0  0  0
   -9.6822    1.7934   -0.0230 C   0  0  0  0  0  0  0  0  0  0  0  0
  -11.0505    1.7833   -0.1428 C   0  0  0  0  0  0  0  0  0  0  0  0
  -11.7962    0.5976   -0.1834 C   0  0  0  0  0  0  0  0  0  0  0  0
  -11.2444   -0.6584   -0.1047 C   0  0  0  0  0  0  0  0  0  0  0  0
   -9.8522   -0.6703    0.0294 C   0  0  0  0  0  0  0  0  0  0  0  0
   -8.9257   -1.7916    0.1533 C   0  0  0  0  0  0  0  0  0  0  0  0
   -9.2932   -3.1107    0.2401 C   0  0  0  0  0  0  0  0  0  0  0  0
  -10.6227   -3.5765    0.1708 C   0  0  0  0  0  0  0  0  0  0  0  0
  -11.6742   -4.0360    0.1199 N   0  0  0  0  0  0  0  0  0  0  0  0
   -8.4253   -4.2067    0.4289 C   0  0  0  0  0  0  0  0  0  0  0  0
   -7.8099   -5.1635    0.5938 N   0  0  0  0  0  0  0  0  0  0  0  0
  -13.1074    1.3331   -0.3066 C   0  0  0  0  0  0  0  0  0  0  0  0
  -13.9943    1.4392    0.9585 C   0  0  0  0  0  0  0  0  0  0  0  0
  -13.0638    1.3543    2.1429 C   0  0  0  0  0  0  0  0  0  0  0  0
  -12.3580    2.4764    2.1843 C   0  0  0  0  0  0  0  0  0  0  0  0
  -12.7982    3.3402    1.0283 C   0  0  0  0  0  0  0  0  0  0  0  0
  -14.2824    2.9490    0.9482 C   0  0  0  0  0  0  0  0  0  0  0  0
  -12.2765    2.6540   -0.2586 C   0  0  0  0  0  0  0  0  0  0  0  0
   -5.0702   -1.6922    0.3566 C   0  0  0  0  0  0  0  0  0  0  0  0
   -4.6281   -0.5766    1.1011 C   0  0  0  0  0  0  0  0  0  0  0  0
   -3.2960   -0.2965    1.2582 C   0  0  0  0  0  0  0  0  0  0  0  0
   -2.3411   -1.1258    0.6617 C   0  0  0  0  0  0  0  0  0  0  0  0
   -0.9355   -1.1616    0.5678 C   0  0  0  0  0  0  0  0  0  0  0  0
   -0.5841   -2.2875   -0.1836 C   0  0  0  0  0  0  0  0  0  0  0  0
   -1.6980   -2.9832   -0.5490 N   0  0  0  0  0  0  0  0  0  0  0  0
   -2.7823   -2.2856   -0.0644 C   0  0  0  0  0  0  0  0  0  0  0  0
   -4.1230   -2.5704   -0.1944 C   0  0  0  0  0  0  0  0  0  0  0  0
   -1.7298   -4.1386   -1.4072 C   0  0  0  0  0  0  0  0  0  0  0  0
   -1.9882   -3.7486   -2.8617 C   0  0  0  0  0  0  0  0  0  0  0  0
    0.8092   -2.2723   -0.3243 C   0  0  0  0  0  0  0  0  0  0  0  0
    1.6789   -3.1014   -1.0585 C   0  0  0  0  0  0  0  0  0  0  0  0
    3.0530   -2.7687   -1.1477 C   0  0  0  0  0  0  0  0  0  0  0  0
    3.6399   -3.6740   -1.9360 N   0  0  0  0  0  0  0  0  0  0  0  0
    2.6646   -4.4861   -2.2730 N   0  0  0  0  0  0  0  0  0  0  0  0
    2.8725   -5.5940   -3.1586 C   0  0  0  0  0  0  0  0  0  0  0  0
    2.3771   -5.2628   -4.5634 C   0  0  0  0  0  0  0  0  0  0  0  0
    1.4782   -4.2022   -1.7877 N   0  0  0  0  0  0  0  0  0  0  0  0
    3.5486   -1.6645   -0.4277 C   0  0  0  0  0  0  0  0  0  0  0  0
    2.6909   -0.8547    0.3862 C   0  0  0  0  0  0  0  0  0  0  0  0
    1.2887   -1.1171    0.3758 C   0  0  0  0  0  0  0  0  0  0  0  0
    0.1906   -0.4527    0.9008 N   0  0  0  0  0  0  0  0  0  0  0  0
    0.0252    0.8131    1.5702 C   0  0  0  0  0  0  0  0  0  0  0  0
   -0.2171    0.6295    3.0697 C   0  0  0  0  0  0  0  0  0  0  0  0
    3.4807    0.0824    1.0360 N   0  0  0  0  0  0  0  0  0  0  0  0
    3.2230    1.0261    2.0954 C   0  0  0  0  0  0  0  0  0  0  0  0
    3.2004    2.4658    1.5780 C   0  0  0  0  0  0  0  0  0  0  0  0
    4.7778   -0.0960    0.6248 C   0  0  0  0  0  0  0  0  0  0  0  0
    4.8473   -1.1626   -0.2778 C   0  0  0  0  0  0  0  0  0  0  0  0
    6.1303   -1.3493   -0.6972 N   0  0  0  0  0  0  0  0  0  0  0  0
    6.6019   -2.4187   -1.5380 C   0  0  0  0  0  0  0  0  0  0  0  0
    7.1892   -3.5621   -0.7123 C   0  0  0  0  0  0  0  0  0  0  0  0
    6.9030   -0.4108   -0.0507 C   0  0  0  0  0  0  0  0  0  0  0  0
    6.0824    0.4058    0.8024 C   0  0  0  0  0  0  0  0  0  0  0  0
    6.6880    1.4137    1.5605 C   0  0  0  0  0  0  0  0  0  0  0  0
    8.0326    1.6426    1.4298 C   0  0  0  0  0  0  0  0  0  0  0  0
    8.8343    0.8759    0.5562 C   0  0  0  0  0  0  0  0  0  0  0  0
    8.2582   -0.1908   -0.1511 C   0  0  0  0  0  0  0  0  0  0  0  0
   10.2372    1.0889    0.3874 C   0  0  0  0  0  0  0  0  0  0  0  0
   10.9817    2.2256    0.5229 C   0  0  0  0  0  0  0  0  0  0  0  0
   10.4810    3.6286    0.5952 C   0  0  0  0  0  0  0  0  0  0  0  0
    9.3344    4.0210    0.6635 O   0  0  0  0  0  0  0  0  0  0  0  0
   11.6815    4.4643    0.4817 C   0  0  0  0  0  0  0  0  0  0  0  0
   12.8430    3.6357    0.3672 C   0  0  0  0  0  0  0  0  0  0  0  0
   13.9920    4.3535    0.2534 C   0  0  0  0  0  0  0  0  0  0  0  0
   13.6637    6.0492    0.2838 S   0  0  0  0  0  0  0  0  0  0  0  0
   11.9416    5.7984    0.4517 C   0  0  0  0  0  0  0  0  0  0  0  0
   10.9887    6.9273    0.5459 C   0  0  0  0  0  0  0  0  0  0  0  0
   12.4329    2.2485    0.4068 C   0  0  0  0  0  0  0  0  0  0  0  0
   13.3023    1.1867    0.3884 C   0  0  0  0  0  0  0  0  0  0  0  0
   14.6933    1.3881    0.2840 C   0  0  0  0  0  0  0  0  0  0  0  0
   15.8286    1.5345    0.1947 N   0  0  0  0  0  0  0  0  0  0  0  0
   12.9605   -0.1753    0.4804 C   0  0  0  0  0  0  0  0  0  0  0  0
   12.7644   -1.3052    0.5596 N   0  0  0  0  0  0  0  0  0  0  0  0
   -6.6041   -3.0703   -0.0762 H   0  0  0  0  0  0  0  0  0  0  0  0
   -9.0676    2.6796    0.0071 H   0  0  0  0  0  0  0  0  0  0  0  0
  -11.8331   -1.5593   -0.1462 H   0  0  0  0  0  0  0  0  0  0  0  0
  -13.6877    1.1280   -1.2041 H   0  0  0  0  0  0  0  0  0  0  0  0
  -14.8473    0.7660    0.9694 H   0  0  0  0  0  0  0  0  0  0  0  0
  -12.9763    0.4898    2.7745 H   0  0  0  0  0  0  0  0  0  0  0  0
  -11.5624    2.7368    2.8577 H   0  0  0  0  0  0  0  0  0  0  0  0
  -12.5627    4.3987    1.1029 H   0  0  0  0  0  0  0  0  0  0  0  0
  -14.8515    3.2753    1.8175 H   0  0  0  0  0  0  0  0  0  0  0  0
  -14.7728    3.2911    0.0378 H   0  0  0  0  0  0  0  0  0  0  0  0
  -12.3153    3.3125   -1.1244 H   0  0  0  0  0  0  0  0  0  0  0  0
   -5.3562    0.0600    1.5710 H   0  0  0  0  0  0  0  0  0  0  0  0
   -2.9965    0.5628    1.8386 H   0  0  0  0  0  0  0  0  0  0  0  0
   -4.4568   -3.4421   -0.7376 H   0  0  0  0  0  0  0  0  0  0  0  0
   -0.7567   -4.6292   -1.3335 H   0  0  0  0  0  0  0  0  0  0  0  0
   -2.5078   -4.8206   -1.0525 H   0  0  0  0  0  0  0  0  0  0  0  0
   -2.9272   -3.2077   -2.9552 H   0  0  0  0  0  0  0  0  0  0  0  0
   -2.0330   -4.6393   -3.4820 H   0  0  0  0  0  0  0  0  0  0  0  0
   -1.1830   -3.1125   -3.2211 H   0  0  0  0  0  0  0  0  0  0  0  0
    2.3270   -6.4534   -2.7609 H   0  0  0  0  0  0  0  0  0  0  0  0
    3.9436   -5.8035   -3.1632 H   0  0  0  0  0  0  0  0  0  0  0  0
    2.5252   -6.1157   -5.2194 H   0  0  0  0  0  0  0  0  0  0  0  0
    2.9221   -4.4121   -4.9656 H   0  0  0  0  0  0  0  0  0  0  0  0
    1.3178   -5.0195   -4.5347 H   0  0  0  0  0  0  0  0  0  0  0  0
    0.8769    1.4563    1.3740 H   0  0  0  0  0  0  0  0  0  0  0  0
   -0.8542    1.2941    1.1282 H   0  0  0  0  0  0  0  0  0  0  0  0
   -0.3179    1.5982    3.5523 H   0  0  0  0  0  0  0  0  0  0  0  0
   -1.1296    0.0612    3.2309 H   0  0  0  0  0  0  0  0  0  0  0  0
    0.5971    0.0839    3.5425 H   0  0  0  0  0  0  0  0  0  0  0  0
    2.3041    0.7663    2.6124 H   0  0  0  0  0  0  0  0  0  0  0  0
    4.0407    0.9261    2.8181 H   0  0  0  0  0  0  0  0  0  0  0  0
    4.1684    2.7252    1.1574 H   0  0  0  0  0  0  0  0  0  0  0  0
    2.9779    3.1501    2.3926 H   0  0  0  0  0  0  0  0  0  0  0  0
    2.4573    2.5985    0.7943 H   0  0  0  0  0  0  0  0  0  0  0  0
    7.3550   -2.0220   -2.2257 H   0  0  0  0  0  0  0  0  0  0  0  0
    5.7470   -2.7862   -2.1101 H   0  0  0  0  0  0  0  0  0  0  0  0
    8.0106   -3.2094   -0.0929 H   0  0  0  0  0  0  0  0  0  0  0  0
    6.4223   -3.9836   -0.0672 H   0  0  0  0  0  0  0  0  0  0  0  0
    7.5578   -4.3434   -1.3708 H   0  0  0  0  0  0  0  0  0  0  0  0
    6.1092    2.0117    2.2477 H   0  0  0  0  0  0  0  0  0  0  0  0
    8.4963    2.4089    2.0259 H   0  0  0  0  0  0  0  0  0  0  0  0
    8.8762   -0.7999   -0.7939 H   0  0  0  0  0  0  0  0  0  0  0  0
   10.7772    0.2065    0.0613 H   0  0  0  0  0  0  0  0  0  0  0  0
   15.0044    4.0189    0.1486 H   0  0  0  0  0  0  0  0  0  0  0  0
   11.0680    7.5723   -0.3286 H   0  0  0  0  0  0  0  0  0  0  0  0
   11.1962    7.5338    1.4273 H   0  0  0  0  0  0  0  0  0  0  0  0
    9.9773    6.5325    0.6118 H   0  0  0  0  0  0  0  0  0  0  0  0
  1  2  2  0  0  0  0
  2  3  1  0  0  0  0
  3  4  2  0  0  0  0
  3  5  1  0  0  0  0
  5  6  2  0  0  0  0
  6  7  1  0  0  0  0
  7  8  2  0  0  0  0
  8  9  1  0  0  0  0
  9 10  2  0  0  0  0
 10 11  1  0  0  0  0
 11 12  2  0  0  0  0
 12 13  1  0  0  0  0
 13 14  3  0  0  0  0
 12 15  1  0  0  0  0
 15 16  3  0  0  0  0
  8 17  1  0  0  0  0
 17 18  1  0  0  0  0
 18 19  1  0  0  0  0
 19 20  2  0  0  0  0
 20 21  1  0  0  0  0
 21 22  1  0  0  0  0
 21 23  1  0  0  0  0
  1 24  1  0  0  0  0
 24 25  2  0  0  0  0
 25 26  1  0  0  0  0
 26 27  2  0  0  0  0
 27 28  1  0  0  0  0
 28 29  2  0  0  0  0
 29 30  1  0  0  0  0
 30 31  1  0  0  0  0
 31 32  2  0  0  0  0
 30 33  1  0  0  0  0
 33 34  1  0  0  0  0
 29 35  1  0  0  0  0
 35 36  1  0  0  0  0
 36 37  1  0  0  0  0
 37 38  2  0  0  0  0
 38 39  1  0  0  0  0
 39 40  1  0  0  0  0
 40 41  1  0  0  0  0
 39 42  1  0  0  0  0
 37 43  1  0  0  0  0
 43 44  2  0  0  0  0
 44 45  1  0  0  0  0
 45 46  1  0  0  0  0
 46 47  1  0  0  0  0
 47 48  1  0  0  0  0
 44 49  1  0  0  0  0
 49 50  1  0  0  0  0
 50 51  1  0  0  0  0
 49 52  1  0  0  0  0
 52 53  2  0  0  0  0
 53 54  1  0  0  0  0
 54 55  1  0  0  0  0
 55 56  1  0  0  0  0
 54 57  1  0  0  0  0
 57 58  2  0  0  0  0
 58 59  1  0  0  0  0
 59 60  2  0  0  0  0
 60 61  1  0  0  0  0
 61 62  2  0  0  0  0
 61 63  1  0  0  0  0
 63 64  2  0  0  0  0
 64 65  1  0  0  0  0
 65 66  2  0  0  0  0
 65 67  1  0  0  0  0
 67 68  1  0  0  0  0
 68 69  2  0  0  0  0
 69 70  1  0  0  0  0
 70 71  1  0  0  0  0
 71 72  1  0  0  0  0
 68 73  1  0  0  0  0
 73 74  2  0  0  0  0
 74 75  1  0  0  0  0
 75 76  3  0  0  0  0
 74 77  1  0  0  0  0
 77 78  3  0  0  0  0
 11  2  1  0  0  0  0
 23 17  1  0  0  0  0
 32 24  1  0  0  0  0
 45 35  2  0  0  0  0
 58 52  1  0  0  0  0
 73 64  1  0  0  0  0
 10  5  1  0  0  0  0
 22 18  1  0  0  0  0
 31 27  1  0  0  0  0
 42 36  2  0  0  0  0
 53 43  1  0  0  0  0
 62 57  1  0  0  0  0
 71 67  2  0  0  0  0
 23  7  1  0  0  0  0
 46 28  1  0  0  0  0
  1 79  1  0  0  0  0
  6 80  1  0  0  0  0
  9 81  1  0  0  0  0
 17 82  1  0  0  0  0
 18 83  1  0  0  0  0
 19 84  1  0  0  0  0
 20 85  1  0  0  0  0
 21 86  1  0  0  0  0
 22 87  1  0  0  0  0
 22 88  1  0  0  0  0
 23 89  1  0  0  0  0
 25 90  1  0  0  0  0
 26 91  1  0  0  0  0
 32 92  1  0  0  0  0
 33 93  1  0  0  0  0
 33 94  1  0  0  0  0
 34 95  1  0  0  0  0
 34 96  1  0  0  0  0
 34 97  1  0  0  0  0
 40 98  1  0  0  0  0
 40 99  1  0  0  0  0
 41100  1  0  0  0  0
 41101  1  0  0  0  0
 41102  1  0  0  0  0
 47103  1  0  0  0  0
 47104  1  0  0  0  0
 48105  1  0  0  0  0
 48106  1  0  0  0  0
 48107  1  0  0  0  0
 50108  1  0  0  0  0
 50109  1  0  0  0  0
 51110  1  0  0  0  0
 51111  1  0  0  0  0
 51112  1  0  0  0  0
 55113  1  0  0  0  0
 55114  1  0  0  0  0
 56115  1  0  0  0  0
 56116  1  0  0  0  0
 56117  1  0  0  0  0
 59118  1  0  0  0  0
 60119  1  0  0  0  0
 62120  1  0  0  0  0
 63121  1  0  0  0  0
 69122  1  0  0  0  0
 72123  1  0  0  0  0
 72124  1  0  0  0  0
 72125  1  0  0  0  0
M  END
