145

C         -4.04440       -0.64920        5.73380
C         -3.25790       -1.25550        6.67950
C         -1.93640       -1.84420        6.45380
O         -1.26380       -1.79200        5.43680
C         -1.57520       -2.53490        7.70490
C         -0.42660       -3.28370        7.95080
C         -0.37670       -3.83370        9.20940
C         -1.39570       -3.65510       10.15370
C         -2.53210       -2.91560        9.92550
C         -2.60150       -2.34310        8.65230
C         -3.63930       -1.50480        8.05270
C         -4.74390       -1.01440        8.70320
C         -5.70410       -0.13970        8.15190
N         -6.51800        0.59030        7.79750
C         -5.06260       -1.28960       10.04870
N         -5.38640       -1.47140       11.13560
C         -0.68710       -4.48480       11.19530
C          0.02220       -3.71060       12.32620
C          1.00130       -4.71350       12.89220
C          1.96820       -4.88150       11.99920
C          1.65890       -3.99490       10.81450
C          0.98650       -2.81840       11.53390
C          0.45110       -4.68230       10.14310
C         -3.79650       -0.36880        4.38650
C         -4.77770        0.21630        3.56740
C         -6.14870        0.47960        4.02930
C         -6.97920       -0.60800        4.28430
C         -8.27360       -0.41610        4.72570
C         -8.74440        0.87000        4.92330
C         -7.91920        1.95120        4.67720
C         -6.61750        1.77970        4.22680
C         -5.71890        2.97040        4.05200
C         -4.83710        3.15890        5.28870
C         -4.30320        0.44500        2.28310
S         -5.06010        1.08440        0.83570
C         -3.57710        0.81170       -0.01400
C         -3.06340        0.92640       -1.31090
C         -3.69860        1.31480       -2.51000
C         -2.96540        1.23270       -3.73720
N         -3.69130        1.58410       -4.78710
S         -5.17280        1.98780       -4.27120
N         -4.94340        1.72760       -2.68900
C         -1.60980        0.84300       -3.69380
C         -0.65640        0.76740       -4.72130
S         -0.53250        1.01250       -6.43420
C          1.17750        0.66140       -6.33560
C          2.22150        0.64170       -7.29310
C          2.02970        0.90990       -8.73040
C          1.41200       -0.03220       -9.55580
C          0.96540       -1.36580       -9.02610
C          2.14130       -2.33970       -8.92530
C          1.26050        0.26580      -10.90330
C          1.69930        1.46800      -11.42780
C          2.30120        2.40120      -10.60210
C          2.46460        2.11920       -9.25900
C          3.42780        0.35300       -6.71830
S          3.30080        0.05300       -4.99640
C          1.60390        0.36910       -5.04410
C          0.55230        0.42460       -4.11860
N          0.38590        0.28110       -2.77150
C         -0.94730        0.50990       -2.47470
C         -1.70720        0.47700       -1.26980
N         -1.43940        0.06660        0.02110
C         -2.55860        0.27430        0.77990
C         -2.96510        0.05090        2.09880
S         -2.28030       -0.62770        3.53060
C         -0.29400       -0.56270        0.63680
C          0.55420        0.44360        1.41630
C          1.55470        0.04690       -1.95780
C          1.97390       -1.42360       -1.97840
C          4.76020        0.27670       -7.40500
C          5.58610       -0.85550       -6.87770
C          6.29650       -0.71690       -5.75380
C          6.22010        0.50300       -4.97830
C          6.24570        0.48040       -3.60500
C          5.94720        1.69340       -2.84250
O          6.10090        2.82540       -3.25420
N          5.37760        1.48790       -1.58820
C          4.91750        2.67490       -0.87520
C          5.96300        3.15980        0.11980
C          5.25710        0.26560       -0.99660
S          4.39140        0.07930        0.39860
N          5.88460       -0.79350       -1.58340
C          6.46670       -0.75610       -2.84780
O          7.09310       -1.71600       -3.24490
C          6.00570       -2.04720       -0.84650
C          7.18420       -2.00220        0.11660
C          5.95240        1.76660       -5.73570
C          5.60600        1.54630       -7.20580
H         -5.03580       -0.34420        6.04780
H          0.33140       -3.40130        7.19220
H         -3.30960       -2.79330       10.66070
H         -1.22510       -5.36130       11.55160
H         -0.64520       -3.22450       13.03250
H          0.86500       -5.22230       13.82850
H          2.80100       -5.55900       12.04050
H          2.48410       -3.76760       10.14480
H          0.49280       -2.11400       10.86700
H          1.67810       -2.28270       12.18200
H          0.67230       -5.69110        9.79890
H         -6.59890       -1.60790        4.12670
H         -8.90840       -1.26750        4.92030
H         -9.75180        1.02950        5.27700
H         -8.28650        2.95320        4.84470
H         -6.32920        3.86370        3.90850
H         -5.08710        2.84850        3.17100
H         -5.45290        3.22900        6.18240
H         -4.15970        2.31640        5.40970
H         -4.24540        4.06700        5.19750
H          0.21160       -1.78380       -9.69560
H          0.51200       -1.24780       -8.04100
H          1.79400       -3.31790       -8.60100
H          2.87460       -1.97980       -8.20730
H          2.62810       -2.44750       -9.89240
H          0.78760       -0.45910      -11.55050
H          1.56850        1.67760      -12.47890
H          2.64060        3.34520      -11.00110
H          2.92110        2.84700       -8.60360
H          0.28520       -1.08540       -0.11800
H         -0.67560       -1.31170        1.33780
H          0.73290        1.34500        0.83260
H          0.04410        0.73170        2.33130
H          1.51140        0.00180        1.67920
H          2.36720        0.64850       -2.38180
H          1.38470        0.40130       -0.94610
H          2.38230       -1.68750       -2.95080
H          2.73420       -1.59680       -1.22240
H          1.12700       -2.07780       -1.78160
H          4.56300        0.14400       -8.47450
H          5.57540       -1.79280       -7.41340
H          6.86320       -1.53940       -5.35100
H          4.73270        3.44240       -1.62840
H          3.98670        2.42570       -0.36290
H          5.60460        4.05840        0.61290
H          6.89270        3.38970       -0.39480
H          6.15150        2.40090        0.87570
H          6.15350       -2.83470       -1.58660
H          5.07510       -2.21980       -0.30390
H          8.10760       -1.82030       -0.42790
H          7.26530       -2.95270        0.63550
H          7.04390       -1.21510        0.85420
H          6.83890        2.40070       -5.65420
H          5.15540        2.32540       -5.23890
H          5.07530        2.41790       -7.58830
H          6.51990        1.42400       -7.79090
