98

C         -1.83890        1.79040        7.08540
C         -2.32830        0.55420        7.37460
C         -2.16610       -0.01450        8.73990
O         -1.85990        0.58820        9.74370
C         -2.39470       -1.46510        8.58460
C         -2.23220       -2.45390        9.55240
C         -2.50200       -3.72550        9.10590
C         -2.90350       -4.00090        7.79130
C         -3.07520       -3.03650        6.82710
C         -2.80800       -1.73680        7.26280
C         -2.92630       -0.47020        6.54640
C         -3.72190       -0.24950        5.44930
C         -4.05250        1.04380        4.99310
N         -4.37250        2.08280        4.62280
C         -4.36780       -1.26590        4.71940
N         -4.90250       -2.05150        4.07480
C         -2.98820       -5.48510        8.04270
C         -1.83830       -6.37600        7.51110
C         -0.61280       -5.49900        7.44320
C         -0.23230       -5.23780        8.68660
C         -1.19330       -5.93400        9.61810
C         -1.52500       -7.18090        8.78250
C         -2.54130       -5.17900        9.50690
C         -1.49220        2.34050        5.82890
C         -1.28790        3.68440        5.58060
C         -0.88910        3.98360        4.27950
S         -0.54910        5.51690        3.50850
C         -0.16020        4.67490        2.05170
C          0.29630        4.94330        0.75310
C          0.70620        6.15330        0.15040
C          1.25070        6.11750       -1.17490
N          1.64510        7.31010       -1.59210
S          1.35080        8.38660       -0.41980
N          0.71140        7.37220        0.66660
C          1.25130        4.89260       -1.87860
C          1.58430        4.59740       -3.20580
C          1.25310        3.25340       -3.42150
N          0.74640        2.70980       -2.27090
C          0.08360        1.42870       -2.33510
C          1.07510        0.26620       -2.28020
C          0.75530        3.68610       -1.29510
C          0.38680        3.69190        0.07520
N          0.02340        2.68940        0.96260
C         -0.29740        3.28640        2.15420
C         -0.70360        2.88120        3.42820
Se        -1.07980        1.28310        4.30430
C          0.37460        1.28800        0.99830
C          1.79470        1.09410        1.52680
C          1.47150        2.83370       -4.73460
C          1.99410        3.89440       -5.50820
S          2.20200        5.38980       -4.61210
C          2.25630        3.59590       -6.82950
C          1.96120        2.28250       -7.21390
Se         1.26540        1.28460       -5.75430
C          2.19500        1.84920       -8.52230
C          1.99150        0.62100       -9.11240
C          1.43340       -0.54600       -8.44430
O          1.07810       -0.62360       -7.27390
C          1.37830       -1.61850       -9.44920
C          0.92760       -2.92340       -9.33690
Cl         0.31010       -3.52000       -7.85150
C          0.98340       -3.74990      -10.45770
C          1.48090       -3.26470      -11.65330
C          1.93710       -1.95620      -11.77860
C          1.88520       -1.13030      -10.67010
C          2.28410        0.26820      -10.48480
C          2.84210        1.06200      -11.45330
C          3.24530        2.40390      -11.28740
N          3.60480        3.49390      -11.23880
C          3.10280        0.64140      -12.77480
N          3.34670        0.36920      -13.86310
H         -1.60360        2.40820        7.94770
H         -1.92490       -2.20300       10.55560
H         -3.37860       -3.25570        5.81630
H         -3.96660       -5.93660        7.89200
H         -2.07980       -6.93480        6.61090
H         -0.19530       -5.12310        6.52730
H          0.56670       -4.60020        9.01720
H         -0.84630       -6.09120       10.63590
H         -2.37760       -7.74280        9.16120
H         -0.67110       -7.84550        8.66050
H         -3.22680       -5.43370       10.31280
H         -1.46490        4.43700        6.32930
H         -0.67170        1.37590       -1.54930
H         -0.44410        1.38240       -3.29760
H          1.76810        0.36760       -1.44850
H          1.65720        0.23400       -3.20110
H          0.53890       -0.67400       -2.18680
H         -0.34050        0.79760        1.67190
H          0.28030        0.83330        0.02040
H          2.51080        1.60740        0.88790
H          2.03900        0.03580        1.55210
H          1.88330        1.49430        2.53470
H          2.65980        4.31050       -7.52710
H          2.60620        2.62550       -9.15780
H          0.63510       -4.76760      -10.38170
H          1.51700       -3.91710      -12.51230
H          2.31800       -1.61090      -12.72490
