134

C          5.80130       -3.26710        2.62490
C          5.90040       -2.83240        3.92430
C          4.86110       -2.13450        4.68240
O          3.73740       -1.83790        4.30680
C          5.43480       -1.84320        6.00610
C          4.81800       -1.16800        7.05700
C          5.61160       -1.02240        8.16920
C          6.92310       -1.51080        8.23020
C          7.54270       -2.17850        7.20010
C          6.75220       -2.34080        6.05840
C          7.06250       -2.97560        4.77650
C          8.25080       -3.58940        4.46920
C          8.58670       -4.20770        3.24690
N          8.96630       -4.73740        2.29970
C          9.34200       -3.70400        5.35600
N         10.27270       -3.84300        6.01450
C          7.13080       -1.00720        9.63700
C          7.05430       -2.05650       10.76590
C          6.81200       -1.23210       12.00970
C          5.56910       -0.77090       11.95240
C          4.95040       -1.27580       10.66880
C          5.64960       -2.63660       10.55610
C          5.66740       -0.46370        9.56940
C          4.76440       -3.12840        1.69640
C          4.86760       -3.60410        0.37280
C          5.93820       -4.47500       -0.09800
C          6.32200       -5.59390        0.64140
C          7.35870       -6.39380        0.20930
C          8.03860       -6.10540       -0.96780
C          9.23190       -6.91620       -1.37350
C         10.49620       -6.29390       -0.77510
C          7.62820       -5.01230       -1.72220
C          6.58780       -4.20920       -1.30180
C          3.81280       -3.15100       -0.41610
S          3.41900       -3.36120       -2.11180
C          1.99120       -2.41590       -1.86510
C          0.87930       -1.96350       -2.58840
C          0.47220       -2.21090       -3.91780
C         -0.79640       -1.70810       -4.35900
N         -1.07440       -2.05900       -5.60480
S          0.15660       -2.94190       -6.17530
N          1.09190       -2.91140       -4.85450
C         -1.54690       -0.88870       -3.48710
C         -2.73390       -0.16930       -3.69560
S         -3.91170        0.09170       -4.93560
C         -4.72060        1.24100       -3.89370
C         -5.87500        2.02220       -4.05520
C         -6.74590        1.96250       -5.22370
C         -8.13070        1.90670       -5.07980
C         -8.94670        1.90790       -6.19190
C         -8.40810        1.96300       -7.47330
C         -9.30100        1.94540       -8.67980
C         -9.56130        0.50630       -9.13050
C         -7.02650        1.98140       -7.61150
C         -6.20060        1.97680       -6.50490
C         -6.12810        2.78940       -2.91920
S         -4.96410        2.47540       -1.63210
C         -4.10050        1.38190       -2.64470
C         -2.96180        0.57880       -2.53680
N         -1.98230        0.33190       -1.60900
C         -1.09670       -0.57560       -2.17230
C          0.07290       -1.21310       -1.68140
N          0.66480       -1.25990       -0.43480
C          1.82990       -1.97120       -0.54750
C          2.86870       -2.38770        0.29010
S          3.28850       -2.20270        1.95350
C          0.11080       -1.00490        0.87630
C          0.74850        0.20830        1.55240
C         -1.74750        1.34150       -0.59820
C         -0.80470        2.42370       -1.12070
C         -7.15200        3.71750       -2.63580
C         -7.79310        4.53760       -3.52340
C         -7.27440        4.92240       -4.85320
O         -6.25050        4.55320       -5.39070
C         -8.19440        5.96940       -5.34350
C         -8.13050        6.65450       -6.53850
C         -9.09980        7.62760       -6.78900
O         -9.16830        8.37580       -7.91180
C         -8.18990        8.19240       -8.91020
C        -10.09210        7.87920       -5.83050
C        -10.14720        7.18830       -4.63700
C         -9.18690        6.21590       -4.38200
C         -8.97870        5.32430       -3.25090
C         -9.81440        5.18400       -2.17150
C         -9.65660        4.22370       -1.15190
N         -9.60670        3.45110       -0.30310
C        -10.97030        5.96280       -1.96310
N        -11.91710        6.57040       -1.73260
H          6.66950       -3.77250        2.21940
H          3.80760       -0.80170        6.96300
H          8.55510       -2.53990        7.26360
H          7.94460       -0.29700        9.77050
H          7.88630       -2.75460       10.79540
H          7.56260       -1.02960       12.75090
H          5.07420       -0.10620       12.63600
H          3.86530       -1.26320       10.61060
H          5.51190       -3.12820        9.59480
H          5.36080       -3.31520       11.35700
H          5.50580        0.60910        9.65910
H          5.78800       -5.84480        1.54700
H          7.65170       -7.25000        0.79850
H          9.31800       -6.94450       -2.46170
H          9.12700       -7.94000       -1.00930
H         10.65290       -5.29640       -1.17910
H         10.39670       -6.20960        0.30410
H         11.36690       -6.90390       -1.00410
H          8.13710       -4.78270       -2.64730
H          6.29290       -3.35150       -1.88780
H         -8.56490        1.85340       -4.09140
H        -10.01970        1.86970       -6.06610
H         -8.83090        2.49750       -9.49630
H        -10.25250        2.42650       -8.44360
H        -10.20740        0.49270      -10.00510
H         -8.62460        0.01390       -9.38130
H        -10.04140       -0.05790       -8.33430
H         -6.59080        2.01110       -8.59990
H         -5.13010        2.02570       -6.62790
H          0.31200       -1.88700        1.49420
H         -0.97250       -0.91170        0.78600
H          0.20570        0.44900        2.46230
H          1.77640       -0.01640        1.82240
H          0.75030        1.07630        0.89870
H         -2.72000        1.78160       -0.36290
H         -1.35030        0.90530        0.31140
H         -0.65340        3.18330       -0.35870
H          0.15850        1.99390       -1.38900
H         -1.22640        2.89790       -2.00390
H         -7.40860        3.80320       -1.58560
H         -7.34430        6.41720       -7.23710
H         -8.43620        8.90390       -9.69630
H         -8.21950        7.17700       -9.31670
H         -7.18620        8.40420       -8.53020
H        -10.82110        8.64180       -6.05480
H        -10.92210        7.41610       -3.92350
