
  xtb     02022206393D
 energy: -186.123971083057 gnorm: 0.000513922784 xtb: 6.4.1 (unknown)
108121  0     0  0            999 V2000
    5.2351    1.2065    0.8192 C   0  0  0  0  0  0  0  0  0  0  0  0
    5.8899    0.4376    1.7487 C   0  0  0  0  0  0  0  0  0  0  0  0
    5.4018   -0.7505    2.4799 C   0  0  0  0  0  0  0  0  0  0  0  0
    4.4383   -1.4554    2.2498 O   0  0  0  0  0  0  0  0  0  0  0  0
    6.3319   -0.9362    3.6109 C   0  0  0  0  0  0  0  0  0  0  0  0
    6.2030   -1.8597    4.6447 C   0  0  0  0  0  0  0  0  0  0  0  0
    7.2020   -1.7879    5.5850 C   0  0  0  0  0  0  0  0  0  0  0  0
    8.2552   -0.8677    5.5002 C   0  0  0  0  0  0  0  0  0  0  0  0
    8.3938    0.0476    4.4835 C   0  0  0  0  0  0  0  0  0  0  0  0
    7.3847   -0.0070    3.5177 C   0  0  0  0  0  0  0  0  0  0  0  0
    7.1686    0.8103    2.3261 C   0  0  0  0  0  0  0  0  0  0  0  0
    8.0583    1.7302    1.8283 C   0  0  0  0  0  0  0  0  0  0  0  0
    7.8835    2.4902    0.6537 C   0  0  0  0  0  0  0  0  0  0  0  0
    7.8217    3.1444   -0.2899 N   0  0  0  0  0  0  0  0  0  0  0  0
    9.3078    2.0251    2.4110 C   0  0  0  0  0  0  0  0  0  0  0  0
   10.3379    2.3177    2.8263 N   0  0  0  0  0  0  0  0  0  0  0  0
    8.8875   -1.3542    6.7804 C   0  0  0  0  0  0  0  0  0  0  0  0
   10.1298   -2.2724    6.6710 C   0  0  0  0  0  0  0  0  0  0  0  0
   10.0237   -2.9826    5.3443 C   0  0  0  0  0  0  0  0  0  0  0  0
    9.0250   -3.8514    5.4284 C   0  0  0  0  0  0  0  0  0  0  0  0
    8.4366   -3.7432    6.8135 C   0  0  0  0  0  0  0  0  0  0  0  0
    9.7006   -3.4037    7.6193 C   0  0  0  0  0  0  0  0  0  0  0  0
    7.7113   -2.3766    6.8765 C   0  0  0  0  0  0  0  0  0  0  0  0
    3.9968    1.0289    0.1813 C   0  0  0  0  0  0  0  0  0  0  0  0
    3.1676   -0.1077    0.1019 C   0  0  0  0  0  0  0  0  0  0  0  0
    2.0461    0.2911   -0.5990 C   0  0  0  0  0  0  0  0  0  0  0  0
    2.2039    1.6474   -0.9543 C   0  0  0  0  0  0  0  0  0  0  0  0
    3.3989    2.0833   -0.5103 N   0  0  0  0  0  0  0  0  0  0  0  0
    3.8706    3.4430   -0.6206 C   0  0  0  0  0  0  0  0  0  0  0  0
    3.6323    4.2303    0.6665 C   0  0  0  0  0  0  0  0  0  0  0  0
    1.0322    2.0318   -1.6322 C   0  0  0  0  0  0  0  0  0  0  0  0
    0.6579    3.2326   -2.2733 C   0  0  0  0  0  0  0  0  0  0  0  0
   -0.6338    3.3247   -2.8926 C   0  0  0  0  0  0  0  0  0  0  0  0
   -0.8326    4.4920   -3.4828 N   0  0  0  0  0  0  0  0  0  0  0  0
    0.4865    5.4054   -3.2825 S   0  0  0  0  0  0  0  0  0  0  0  0
    1.3674    4.3420   -2.4279 N   0  0  0  0  0  0  0  0  0  0  0  0
   -1.5334    2.2446   -2.7585 C   0  0  0  0  0  0  0  0  0  0  0  0
   -2.8910    2.1269   -3.0845 C   0  0  0  0  0  0  0  0  0  0  0  0
   -4.1556    3.0549   -3.8182 S   0  0  0  0  0  0  0  0  0  0  0  0
   -5.2867    1.7699   -3.4283 C   0  0  0  0  0  0  0  0  0  0  0  0
   -6.6580    1.6358   -3.6093 C   0  0  0  0  0  0  0  0  0  0  0  0
   -7.4898    2.6647   -4.3031 C   0  0  0  0  0  0  0  0  0  0  0  0
   -7.6889    2.3032   -5.7774 C   0  0  0  0  0  0  0  0  0  0  0  0
   -7.1248    0.4121   -3.1008 C   0  0  0  0  0  0  0  0  0  0  0  0
   -5.8279   -0.5558   -2.4004 S   0  0  0  0  0  0  0  0  0  0  0  0
   -4.6883    0.6784   -2.7780 C   0  0  0  0  0  0  0  0  0  0  0  0
   -3.3203    0.8896   -2.5891 C   0  0  0  0  0  0  0  0  0  0  0  0
   -2.2762    0.2289   -2.0040 N   0  0  0  0  0  0  0  0  0  0  0  0
   -1.1602    1.0398   -2.0896 C   0  0  0  0  0  0  0  0  0  0  0  0
    0.1697    0.8919   -1.6215 C   0  0  0  0  0  0  0  0  0  0  0  0
    0.8245   -0.1738   -1.0207 N   0  0  0  0  0  0  0  0  0  0  0  0
    0.6447   -1.5984   -1.2047 C   0  0  0  0  0  0  0  0  0  0  0  0
    0.5210   -1.9674   -2.6809 C   0  0  0  0  0  0  0  0  0  0  0  0
   -2.5396   -0.9204   -1.1676 C   0  0  0  0  0  0  0  0  0  0  0  0
   -2.3628   -0.5908    0.3120 C   0  0  0  0  0  0  0  0  0  0  0  0
   -8.4713    0.0292   -3.1308 C   0  0  0  0  0  0  0  0  0  0  0  0
   -9.0939   -1.1125   -2.6961 C   0  0  0  0  0  0  0  0  0  0  0  0
   -8.4470   -2.2902   -2.0842 C   0  0  0  0  0  0  0  0  0  0  0  0
   -7.2643   -2.4462   -1.8320 O   0  0  0  0  0  0  0  0  0  0  0  0
   -9.5368   -3.2234   -1.8462 C   0  0  0  0  0  0  0  0  0  0  0  0
   -9.6994   -4.7970   -1.1964 S   0  0  0  0  0  0  0  0  0  0  0  0
  -11.4208   -4.7453   -1.4691 C   0  0  0  0  0  0  0  0  0  0  0  0
  -12.2608   -5.9103   -1.0952 C   0  0  0  0  0  0  0  0  0  0  0  0
  -11.8299   -3.5677   -2.0311 C   0  0  0  0  0  0  0  0  0  0  0  0
  -10.7518   -2.6902   -2.2503 C   0  0  0  0  0  0  0  0  0  0  0  0
  -10.5227   -1.3599   -2.7830 C   0  0  0  0  0  0  0  0  0  0  0  0
  -11.5130   -0.5333   -3.2502 C   0  0  0  0  0  0  0  0  0  0  0  0
  -12.8654   -0.9334   -3.2546 C   0  0  0  0  0  0  0  0  0  0  0  0
  -13.9717   -1.2390   -3.2681 N   0  0  0  0  0  0  0  0  0  0  0  0
  -11.3375    0.7676   -3.7587 C   0  0  0  0  0  0  0  0  0  0  0  0
  -11.2677    1.8338   -4.1824 N   0  0  0  0  0  0  0  0  0  0  0  0
    5.7245    2.1391    0.5729 H   0  0  0  0  0  0  0  0  0  0  0  0
    5.3727   -2.5481    4.6720 H   0  0  0  0  0  0  0  0  0  0  0  0
    9.2034    0.7569    4.4399 H   0  0  0  0  0  0  0  0  0  0  0  0
    8.9871   -0.6155    7.5735 H   0  0  0  0  0  0  0  0  0  0  0  0
   11.0755   -1.7779    6.8762 H   0  0  0  0  0  0  0  0  0  0  0  0
   10.6293   -2.7462    4.4891 H   0  0  0  0  0  0  0  0  0  0  0  0
    8.6290   -4.4862    4.6574 H   0  0  0  0  0  0  0  0  0  0  0  0
    7.8399   -4.5874    7.1497 H   0  0  0  0  0  0  0  0  0  0  0  0
   10.4157   -4.2246    7.6471 H   0  0  0  0  0  0  0  0  0  0  0  0
    9.4905   -3.0640    8.6327 H   0  0  0  0  0  0  0  0  0  0  0  0
    7.0405   -2.3014    7.7306 H   0  0  0  0  0  0  0  0  0  0  0  0
    3.3945   -1.0603    0.5311 H   0  0  0  0  0  0  0  0  0  0  0  0
    4.9334    3.4445   -0.8786 H   0  0  0  0  0  0  0  0  0  0  0  0
    3.3094    3.9086   -1.4351 H   0  0  0  0  0  0  0  0  0  0  0  0
    4.0022    5.2443    0.5467 H   0  0  0  0  0  0  0  0  0  0  0  0
    2.5681    4.2716    0.8865 H   0  0  0  0  0  0  0  0  0  0  0  0
    4.1429    3.7696    1.5096 H   0  0  0  0  0  0  0  0  0  0  0  0
   -6.9707    3.6230   -4.2380 H   0  0  0  0  0  0  0  0  0  0  0  0
   -8.4633    2.7700   -3.8215 H   0  0  0  0  0  0  0  0  0  0  0  0
   -6.7284    2.2337   -6.2826 H   0  0  0  0  0  0  0  0  0  0  0  0
   -8.2021    1.3492   -5.8740 H   0  0  0  0  0  0  0  0  0  0  0  0
   -8.2870    3.0670   -6.2662 H   0  0  0  0  0  0  0  0  0  0  0  0
    1.5395   -2.0677   -0.7899 H   0  0  0  0  0  0  0  0  0  0  0  0
   -0.2052   -1.9667   -0.6281 H   0  0  0  0  0  0  0  0  0  0  0  0
   -0.3294   -1.4725   -3.1440 H   0  0  0  0  0  0  0  0  0  0  0  0
    1.4195   -1.6668   -3.2152 H   0  0  0  0  0  0  0  0  0  0  0  0
    0.3994   -3.0423   -2.7852 H   0  0  0  0  0  0  0  0  0  0  0  0
   -3.5780   -1.2066   -1.3499 H   0  0  0  0  0  0  0  0  0  0  0  0
   -1.9177   -1.7627   -1.4703 H   0  0  0  0  0  0  0  0  0  0  0  0
   -1.3532   -0.2478    0.5249 H   0  0  0  0  0  0  0  0  0  0  0  0
   -3.0578    0.1941    0.6013 H   0  0  0  0  0  0  0  0  0  0  0  0
   -2.5697   -1.4724    0.9124 H   0  0  0  0  0  0  0  0  0  0  0  0
   -9.1181    0.7736   -3.5762 H   0  0  0  0  0  0  0  0  0  0  0  0
  -12.1722   -6.1207   -0.0297 H   0  0  0  0  0  0  0  0  0  0  0  0
  -13.3030   -5.7094   -1.3293 H   0  0  0  0  0  0  0  0  0  0  0  0
  -11.9427   -6.8014   -1.6357 H   0  0  0  0  0  0  0  0  0  0  0  0
  -12.8555   -3.3558   -2.2705 H   0  0  0  0  0  0  0  0  0  0  0  0
  1  2  2  0  0  0  0
  2  3  1  0  0  0  0
  3  4  2  0  0  0  0
  3  5  1  0  0  0  0
  5  6  2  0  0  0  0
  6  7  1  0  0  0  0
  7  8  2  0  0  0  0
  8  9  1  0  0  0  0
  9 10  2  0  0  0  0
 10 11  1  0  0  0  0
 11 12  2  0  0  0  0
 12 13  1  0  0  0  0
 13 14  3  0  0  0  0
 12 15  1  0  0  0  0
 15 16  3  0  0  0  0
  8 17  1  0  0  0  0
 17 18  1  0  0  0  0
 18 19  1  0  0  0  0
 19 20  2  0  0  0  0
 20 21  1  0  0  0  0
 21 22  1  0  0  0  0
 21 23  1  0  0  0  0
  1 24  1  0  0  0  0
 24 25  2  0  0  0  0
 25 26  1  0  0  0  0
 26 27  2  0  0  0  0
 27 28  1  0  0  0  0
 28 29  1  0  0  0  0
 29 30  1  0  0  0  0
 27 31  1  0  0  0  0
 31 32  1  0  0  0  0
 32 33  1  0  0  0  0
 33 34  2  0  0  0  0
 34 35  1  0  0  0  0
 35 36  1  0  0  0  0
 33 37  1  0  0  0  0
 37 38  1  0  0  0  0
 38 39  1  0  0  0  0
 39 40  1  0  0  0  0
 40 41  1  0  0  0  0
 41 42  1  0  0  0  0
 42 43  1  0  0  0  0
 41 44  2  0  0  0  0
 44 45  1  0  0  0  0
 45 46  1  0  0  0  0
 46 47  1  0  0  0  0
 47 48  1  0  0  0  0
 48 49  1  0  0  0  0
 49 50  1  0  0  0  0
 50 51  1  0  0  0  0
 51 52  1  0  0  0  0
 52 53  1  0  0  0  0
 48 54  1  0  0  0  0
 54 55  1  0  0  0  0
 44 56  1  0  0  0  0
 56 57  2  0  0  0  0
 57 58  1  0  0  0  0
 58 59  2  0  0  0  0
 58 60  1  0  0  0  0
 60 61  1  0  0  0  0
 61 62  1  0  0  0  0
 62 63  1  0  0  0  0
 62 64  2  0  0  0  0
 64 65  1  0  0  0  0
 65 66  1  0  0  0  0
 66 67  2  0  0  0  0
 67 68  1  0  0  0  0
 68 69  3  0  0  0  0
 67 70  1  0  0  0  0
 70 71  3  0  0  0  0
 11  2  1  0  0  0  0
 23 17  1  0  0  0  0
 28 24  1  0  0  0  0
 50 31  2  0  0  0  0
 66 57  1  0  0  0  0
 10  5  1  0  0  0  0
 22 18  1  0  0  0  0
 51 26  1  0  0  0  0
 65 60  2  0  0  0  0
 23  7  1  0  0  0  0
 36 32  2  0  0  0  0
 49 37  2  0  0  0  0
 47 38  2  0  0  0  0
 46 40  2  0  0  0  0
  1 72  1  0  0  0  0
  6 73  1  0  0  0  0
  9 74  1  0  0  0  0
 17 75  1  0  0  0  0
 18 76  1  0  0  0  0
 19 77  1  0  0  0  0
 20 78  1  0  0  0  0
 21 79  1  0  0  0  0
 22 80  1  0  0  0  0
 22 81  1  0  0  0  0
 23 82  1  0  0  0  0
 25 83  1  0  0  0  0
 29 84  1  0  0  0  0
 29 85  1  0  0  0  0
 30 86  1  0  0  0  0
 30 87  1  0  0  0  0
 30 88  1  0  0  0  0
 42 89  1  0  0  0  0
 42 90  1  0  0  0  0
 43 91  1  0  0  0  0
 43 92  1  0  0  0  0
 43 93  1  0  0  0  0
 52 94  1  0  0  0  0
 52 95  1  0  0  0  0
 53 96  1  0  0  0  0
 53 97  1  0  0  0  0
 53 98  1  0  0  0  0
 54 99  1  0  0  0  0
 54100  1  0  0  0  0
 55101  1  0  0  0  0
 55102  1  0  0  0  0
 55103  1  0  0  0  0
 56104  1  0  0  0  0
 63105  1  0  0  0  0
 63106  1  0  0  0  0
 63107  1  0  0  0  0
 64108  1  0  0  0  0
M  END
