100

C         -4.65490        4.11500       -1.19800
C         -4.20730        4.77130       -2.31780
C         -2.90640        4.57860       -2.94620
O         -2.03510        3.78170       -2.61170
C         -2.82810        5.52580       -4.06480
C         -1.75640        5.71870       -4.93490
C         -1.97330        6.69240       -5.88000
C         -3.16630        7.42380       -5.95190
C         -4.23050        7.24400       -5.09940
C         -4.03450        6.25420       -4.13230
C         -4.92210        5.78840       -3.06630
C         -6.19950        6.23420       -2.84820
C         -7.06880        5.78220       -1.83270
N         -7.84060        5.47490       -1.03930
C         -6.84780        7.21690       -3.62650
N         -7.44230        8.00300       -4.21500
C         -2.69460        8.23080       -7.13530
C         -3.26150        7.82930       -8.51350
C         -2.28900        8.44100       -9.49600
C         -1.15910        7.74840       -9.42950
C         -1.34900        6.65660       -8.40100
C         -2.83950        6.35720       -8.60660
C         -1.36450        7.41450       -7.05630
C         -4.03900        3.13380       -0.40800
C         -4.68520        2.61230        0.71540
C         -3.97280        1.65340        1.41080
S         -4.39240        0.73390        2.84630
C         -2.86440       -0.06730        2.74170
C         -2.14170       -1.07510        3.39440
C         -2.50260       -1.92790        4.46050
C         -1.59420       -2.96350        4.85360
N         -2.08070       -3.72400        5.82190
S         -3.55470       -3.17910        6.20890
N         -3.62880       -1.95320        5.15580
C         -0.32080       -3.01910        4.24500
C          0.79180       -3.82060        4.53040
C          1.84470       -3.36070        3.73070
N          1.41480       -2.32300        2.94420
C          2.39170       -1.46390        2.31220
C          2.33760       -0.03580        2.84360
C          0.07520       -2.10240        3.22750
C         -0.89400       -1.20250        2.71250
N         -0.88770       -0.31180        1.65110
C         -2.08020        0.36520        1.66730
C         -2.70160        1.34240        0.88600
Se        -2.32900        2.34150       -0.64600
C         -0.15920       -0.33850        0.40310
C         -0.80570       -1.30390       -0.58750
C          3.03420       -4.05860        3.96430
C          2.85330       -5.05920        4.93940
S          1.22540       -5.12370        5.57670
C          3.96940       -5.83280        5.24290
C          5.10960       -5.50600        4.53130
Se         4.79790       -4.03430        3.35870
C          6.42180       -6.00510        4.63820
C          6.90620       -7.17200        5.17530
C          8.36510       -7.12370        5.46170
O          9.09020       -6.26000        5.00720
N          8.85250       -8.06700        6.33610
C         10.25480       -7.96220        6.72650
C         11.15060       -8.72900        5.76290
C          8.13300       -9.14280        6.84190
O          8.61530       -9.88800        7.66660
C          6.80300       -9.32150        6.25190
C          6.20930       -8.39060        5.44560
C          4.92270       -8.74080        4.76210
C          6.15500      -10.54280        6.52770
N          5.60290      -11.52630        6.73650
H         -5.64070        4.38710       -0.83820
H         -0.85250        5.13810       -4.83840
H         -5.13700        7.82150       -5.16630
H         -2.65480        9.30840       -6.98900
H         -4.31340        8.05980       -8.65720
H         -2.49740        9.31910      -10.07840
H         -0.23490        7.93250       -9.94510
H         -0.65850        5.81860       -8.44400
H         -3.04210        5.93280       -9.58850
H         -3.27490        5.72090       -7.83830
H         -0.43680        7.94790       -6.85750
H         -5.66860        2.94190        1.00580
H          2.29340       -1.49720        1.22290
H          3.37430       -1.89020        2.54590
H          2.51370       -0.03450        3.91660
H          3.10860        0.56150        2.36500
H          1.37280        0.42640        2.65550
H          0.87610       -0.61350        0.56540
H         -0.18540        0.67990       -0.00600
H         -0.24500       -1.30830       -1.51770
H         -0.82250       -2.31270       -0.18010
H         -1.82740       -0.99760       -0.80250
H          3.96280       -6.58340        6.01170
H          7.20310       -5.32130        4.31030
H         10.51550       -6.90220        6.72580
H         10.33910       -8.37200        7.73460
H         12.18680       -8.63670        6.07560
H         11.05080       -8.32650        4.75740
H         10.88010       -9.78250        5.75540
H          5.02370       -9.72370        4.30170
H          4.10400       -8.81650        5.47660
H          4.66400       -8.01760        3.99570
