
  xtb     02022204483D
 energy: -228.840821363826 gnorm: 0.000260055420 xtb: 6.4.1 (unknown)
133149  0     0  0            999 V2000
   -2.3395    0.5635    6.9245 C   0  0  0  0  0  0  0  0  0  0  0  0
   -2.8903    1.8031    6.8003 C   0  0  0  0  0  0  0  0  0  0  0  0
   -2.7139    2.8210    7.8668 C   0  0  0  0  0  0  0  0  0  0  0  0
   -2.3095    2.6310    8.9925 O   0  0  0  0  0  0  0  0  0  0  0  0
   -3.0845    4.1070    7.2408 C   0  0  0  0  0  0  0  0  0  0  0  0
   -2.9819    5.3789    7.7994 C   0  0  0  0  0  0  0  0  0  0  0  0
   -3.3906    6.3926    6.9660 C   0  0  0  0  0  0  0  0  0  0  0  0
   -3.8676    6.1638    5.6681 C   0  0  0  0  0  0  0  0  0  0  0  0
   -3.9828    4.9152    5.1056 C   0  0  0  0  0  0  0  0  0  0  0  0
   -3.5727    3.8714    5.9379 C   0  0  0  0  0  0  0  0  0  0  0  0
   -3.5971    2.4303    5.7068 C   0  0  0  0  0  0  0  0  0  0  0  0
   -4.3755    1.7818    4.7814 C   0  0  0  0  0  0  0  0  0  0  0  0
   -5.0885    2.4200    3.7495 C   0  0  0  0  0  0  0  0  0  0  0  0
   -5.6637    2.8791    2.8677 N   0  0  0  0  0  0  0  0  0  0  0  0
   -4.6132    0.3926    4.8245 C   0  0  0  0  0  0  0  0  0  0  0  0
   -4.8722   -0.7253    4.8693 N   0  0  0  0  0  0  0  0  0  0  0  0
   -4.0838    7.6321    5.4022 C   0  0  0  0  0  0  0  0  0  0  0  0
   -3.0445    8.3676    4.5205 C   0  0  0  0  0  0  0  0  0  0  0  0
   -1.7446    7.6177    4.6737 C   0  0  0  0  0  0  0  0  0  0  0  0
   -1.2942    7.8348    5.9022 C   0  0  0  0  0  0  0  0  0  0  0  0
   -2.2815    8.7357    6.6019 C   0  0  0  0  0  0  0  0  0  0  0  0
   -2.7616    9.5855    5.4144 C   0  0  0  0  0  0  0  0  0  0  0  0
   -3.5540    7.8877    6.8483 C   0  0  0  0  0  0  0  0  0  0  0  0
   -2.0283   -0.3588    5.9002 C   0  0  0  0  0  0  0  0  0  0  0  0
   -1.8217   -1.7278    6.0464 C   0  0  0  0  0  0  0  0  0  0  0  0
   -2.0657   -2.4516    7.2850 C   0  0  0  0  0  0  0  0  0  0  0  0
   -1.2242   -3.4975    7.6644 C   0  0  0  0  0  0  0  0  0  0  0  0
   -1.4444   -4.1758    8.8449 C   0  0  0  0  0  0  0  0  0  0  0  0
   -2.5112   -3.8437    9.6732 C   0  0  0  0  0  0  0  0  0  0  0  0
   -2.7169   -4.5563   10.9772 C   0  0  0  0  0  0  0  0  0  0  0  0
   -1.9316   -3.8607   12.0917 C   0  0  0  0  0  0  0  0  0  0  0  0
   -3.3570   -2.8118    9.2844 C   0  0  0  0  0  0  0  0  0  0  0  0
   -3.1434   -2.1231    8.1071 C   0  0  0  0  0  0  0  0  0  0  0  0
   -1.4071   -2.3158    4.8391 C   0  0  0  0  0  0  0  0  0  0  0  0
   -1.0683   -3.9666    4.3755 S   0  0  0  0  0  0  0  0  0  0  0  0
   -0.7484   -3.4258    2.7653 C   0  0  0  0  0  0  0  0  0  0  0  0
   -0.4006   -3.9550    1.5140 C   0  0  0  0  0  0  0  0  0  0  0  0
   -0.2607   -5.2925    1.0822 C   0  0  0  0  0  0  0  0  0  0  0  0
   -0.0215   -5.5495   -0.3078 C   0  0  0  0  0  0  0  0  0  0  0  0
    0.0295   -6.8433   -0.5819 N   0  0  0  0  0  0  0  0  0  0  0  0
   -0.1992   -7.6676    0.7929 S   0  0  0  0  0  0  0  0  0  0  0  0
   -0.3720   -6.4048    1.7908 N   0  0  0  0  0  0  0  0  0  0  0  0
    0.1902   -4.4556   -1.1760 C   0  0  0  0  0  0  0  0  0  0  0  0
    0.5900   -4.4139   -2.5183 C   0  0  0  0  0  0  0  0  0  0  0  0
    0.9209   -5.5024   -3.8223 S   0  0  0  0  0  0  0  0  0  0  0  0
    1.3878   -4.1307   -4.8077 C   0  0  0  0  0  0  0  0  0  0  0  0
    1.8966   -4.0278   -6.1033 C   0  0  0  0  0  0  0  0  0  0  0  0
    2.1283   -5.1782   -6.9725 C   0  0  0  0  0  0  0  0  0  0  0  0
    1.1478   -6.1612   -7.0958 C   0  0  0  0  0  0  0  0  0  0  0  0
    1.3562   -7.2583   -7.9064 C   0  0  0  0  0  0  0  0  0  0  0  0
    2.5479   -7.4159   -8.6048 C   0  0  0  0  0  0  0  0  0  0  0  0
    2.7497   -8.5856   -9.5222 C   0  0  0  0  0  0  0  0  0  0  0  0
    2.2380   -8.2537  -10.9259 C   0  0  0  0  0  0  0  0  0  0  0  0
    3.5312   -6.4440   -8.4652 C   0  0  0  0  0  0  0  0  0  0  0  0
    3.3300   -5.3398   -7.6604 C   0  0  0  0  0  0  0  0  0  0  0  0
    2.1758   -2.6928   -6.4395 C   0  0  0  0  0  0  0  0  0  0  0  0
    1.8344   -1.5860   -5.1146 S   0  0  0  0  0  0  0  0  0  0  0  0
    1.2841   -2.8999   -4.1420 C   0  0  0  0  0  0  0  0  0  0  0  0
    0.8130   -3.0697   -2.8356 C   0  0  0  0  0  0  0  0  0  0  0  0
    0.5260   -2.2796   -1.7556 N   0  0  0  0  0  0  0  0  0  0  0  0
    0.1317   -3.1060   -0.7186 C   0  0  0  0  0  0  0  0  0  0  0  0
   -0.2882   -2.8557    0.6149 C   0  0  0  0  0  0  0  0  0  0  0  0
   -0.6067   -1.6958    1.3034 N   0  0  0  0  0  0  0  0  0  0  0  0
   -0.8883   -2.0443    2.5967 C   0  0  0  0  0  0  0  0  0  0  0  0
   -1.2787   -1.4110    3.7800 C   0  0  0  0  0  0  0  0  0  0  0  0
   -1.6780    0.1958    4.2654 S   0  0  0  0  0  0  0  0  0  0  0  0
   -1.0333   -0.4060    0.8053 C   0  0  0  0  0  0  0  0  0  0  0  0
   -2.2149   -0.5351   -0.1516 C   0  0  0  0  0  0  0  0  0  0  0  0
    0.9764   -0.9059   -1.7347 C   0  0  0  0  0  0  0  0  0  0  0  0
    2.1355   -0.7113   -0.7609 C   0  0  0  0  0  0  0  0  0  0  0  0
    2.5943   -2.2887   -7.7154 C   0  0  0  0  0  0  0  0  0  0  0  0
    2.9760   -1.0584   -8.1683 C   0  0  0  0  0  0  0  0  0  0  0  0
    3.4699   -0.8392   -9.8463 S   0  0  0  0  0  0  0  0  0  0  0  0
    3.8294    0.8430   -9.5610 C   0  0  0  0  0  0  0  0  0  0  0  0
    4.2508    1.6822  -10.5614 C   0  0  0  0  0  0  0  0  0  0  0  0
    4.4607    1.1749  -11.8586 C   0  0  0  0  0  0  0  0  0  0  0  0
    4.6398    0.7606  -12.9134 N   0  0  0  0  0  0  0  0  0  0  0  0
    4.4690    3.0627  -10.4124 C   0  0  0  0  0  0  0  0  0  0  0  0
    4.6461    4.1967  -10.3686 N   0  0  0  0  0  0  0  0  0  0  0  0
    3.6007    1.1812   -8.2631 N   0  0  0  0  0  0  0  0  0  0  0  0
    3.9156    2.4639   -7.7236 C   0  0  0  0  0  0  0  0  0  0  0  0
    2.8914    3.3104   -7.3323 C   0  0  0  0  0  0  0  0  0  0  0  0
    3.2066    4.5438   -6.7914 C   0  0  0  0  0  0  0  0  0  0  0  0
    4.5300    4.9208   -6.6418 C   0  0  0  0  0  0  0  0  0  0  0  0
    5.5473    4.0614   -7.0211 C   0  0  0  0  0  0  0  0  0  0  0  0
    5.2450    2.8246   -7.5592 C   0  0  0  0  0  0  0  0  0  0  0  0
    3.0993    0.1827   -7.4381 C   0  0  0  0  0  0  0  0  0  0  0  0
    2.8312    0.3811   -6.2672 O   0  0  0  0  0  0  0  0  0  0  0  0
   -2.0199    0.2856    7.9248 H   0  0  0  0  0  0  0  0  0  0  0  0
   -2.6131    5.5151    8.8040 H   0  0  0  0  0  0  0  0  0  0  0  0
   -4.3478    4.7469    4.1054 H   0  0  0  0  0  0  0  0  0  0  0  0
   -5.1055    7.9286    5.1734 H   0  0  0  0  0  0  0  0  0  0  0  0
   -3.3716    8.5588    3.5019 H   0  0  0  0  0  0  0  0  0  0  0  0
   -1.3285    6.9792    3.9165 H   0  0  0  0  0  0  0  0  0  0  0  0
   -0.4268    7.4140    6.3762 H   0  0  0  0  0  0  0  0  0  0  0  0
   -1.9132    9.2628    7.4781 H   0  0  0  0  0  0  0  0  0  0  0  0
   -3.6489   10.1771    5.6348 H   0  0  0  0  0  0  0  0  0  0  0  0
   -1.9800   10.2295    5.0140 H   0  0  0  0  0  0  0  0  0  0  0  0
   -4.2300    8.3522    7.5635 H   0  0  0  0  0  0  0  0  0  0  0  0
   -0.3834   -3.7606    7.0402 H   0  0  0  0  0  0  0  0  0  0  0  0
   -0.7794   -4.9783    9.1297 H   0  0  0  0  0  0  0  0  0  0  0  0
   -2.3796   -5.5911   10.8913 H   0  0  0  0  0  0  0  0  0  0  0  0
   -3.7778   -4.5613   11.2339 H   0  0  0  0  0  0  0  0  0  0  0  0
   -2.0782   -4.3761   13.0379 H   0  0  0  0  0  0  0  0  0  0  0  0
   -2.2626   -2.8306   12.2016 H   0  0  0  0  0  0  0  0  0  0  0  0
   -0.8689   -3.8553   11.8597 H   0  0  0  0  0  0  0  0  0  0  0  0
   -4.1994   -2.5501    9.9081 H   0  0  0  0  0  0  0  0  0  0  0  0
   -3.8353   -1.3548    7.7956 H   0  0  0  0  0  0  0  0  0  0  0  0
    0.2140   -6.0499   -6.5656 H   0  0  0  0  0  0  0  0  0  0  0  0
    0.5833   -8.0076   -7.9971 H   0  0  0  0  0  0  0  0  0  0  0  0
    3.8107   -8.8364   -9.5761 H   0  0  0  0  0  0  0  0  0  0  0  0
    2.2108   -9.4541   -9.1388 H   0  0  0  0  0  0  0  0  0  0  0  0
    2.7689   -7.3944  -11.3295 H   0  0  0  0  0  0  0  0  0  0  0  0
    1.1768   -8.0170  -10.8962 H   0  0  0  0  0  0  0  0  0  0  0  0
    2.3869   -9.0988  -11.5936 H   0  0  0  0  0  0  0  0  0  0  0  0
    4.4703   -6.5574   -8.9875 H   0  0  0  0  0  0  0  0  0  0  0  0
    4.1211   -4.6147   -7.5342 H   0  0  0  0  0  0  0  0  0  0  0  0
   -1.3412    0.1757    1.6776 H   0  0  0  0  0  0  0  0  0  0  0  0
   -0.1991    0.1254    0.3460 H   0  0  0  0  0  0  0  0  0  0  0  0
   -2.5155    0.4488   -0.5014 H   0  0  0  0  0  0  0  0  0  0  0  0
   -1.9633   -1.1534   -1.0101 H   0  0  0  0  0  0  0  0  0  0  0  0
   -3.0590   -0.9910    0.3609 H   0  0  0  0  0  0  0  0  0  0  0  0
    0.1466   -0.2336   -1.5138 H   0  0  0  0  0  0  0  0  0  0  0  0
    1.3166   -0.6740   -2.7468 H   0  0  0  0  0  0  0  0  0  0  0  0
    2.4506    0.3285   -0.7657 H   0  0  0  0  0  0  0  0  0  0  0  0
    1.8548   -0.9911    0.2519 H   0  0  0  0  0  0  0  0  0  0  0  0
    2.9787   -1.3285   -1.0621 H   0  0  0  0  0  0  0  0  0  0  0  0
    2.6150   -3.0859   -8.4502 H   0  0  0  0  0  0  0  0  0  0  0  0
    1.8639    3.0033   -7.4543 H   0  0  0  0  0  0  0  0  0  0  0  0
    2.4143    5.2125   -6.4919 H   0  0  0  0  0  0  0  0  0  0  0  0
    4.7707    5.8877   -6.2272 H   0  0  0  0  0  0  0  0  0  0  0  0
    6.5791    4.3526   -6.9001 H   0  0  0  0  0  0  0  0  0  0  0  0
    6.0304    2.1453   -7.8573 H   0  0  0  0  0  0  0  0  0  0  0  0
  1  2  2  0  0  0  0
  2  3  1  0  0  0  0
  3  4  2  0  0  0  0
  3  5  1  0  0  0  0
  5  6  2  0  0  0  0
  6  7  1  0  0  0  0
  7  8  2  0  0  0  0
  8  9  1  0  0  0  0
  9 10  2  0  0  0  0
 10 11  1  0  0  0  0
 11 12  2  0  0  0  0
 12 13  1  0  0  0  0
 13 14  3  0  0  0  0
 12 15  1  0  0  0  0
 15 16  3  0  0  0  0
  8 17  1  0  0  0  0
 17 18  1  0  0  0  0
 18 19  1  0  0  0  0
 19 20  2  0  0  0  0
 20 21  1  0  0  0  0
 21 22  1  0  0  0  0
 21 23  1  0  0  0  0
  1 24  1  0  0  0  0
 24 25  2  0  0  0  0
 25 26  1  0  0  0  0
 26 27  2  0  0  0  0
 27 28  1  0  0  0  0
 28 29  2  0  0  0  0
 29 30  1  0  0  0  0
 30 31  1  0  0  0  0
 29 32  1  0  0  0  0
 32 33  2  0  0  0  0
 25 34  1  0  0  0  0
 34 35  1  0  0  0  0
 35 36  1  0  0  0  0
 36 37  1  0  0  0  0
 37 38  1  0  0  0  0
 38 39  1  0  0  0  0
 39 40  2  0  0  0  0
 40 41  1  0  0  0  0
 41 42  1  0  0  0  0
 39 43  1  0  0  0  0
 43 44  1  0  0  0  0
 44 45  1  0  0  0  0
 45 46  1  0  0  0  0
 46 47  1  0  0  0  0
 47 48  1  0  0  0  0
 48 49  2  0  0  0  0
 49 50  1  0  0  0  0
 50 51  2  0  0  0  0
 51 52  1  0  0  0  0
 52 53  1  0  0  0  0
 51 54  1  0  0  0  0
 54 55  2  0  0  0  0
 47 56  2  0  0  0  0
 56 57  1  0  0  0  0
 57 58  1  0  0  0  0
 58 59  1  0  0  0  0
 59 60  1  0  0  0  0
 60 61  1  0  0  0  0
 61 62  1  0  0  0  0
 62 63  1  0  0  0  0
 63 64  1  0  0  0  0
 64 65  1  0  0  0  0
 65 66  1  0  0  0  0
 63 67  1  0  0  0  0
 67 68  1  0  0  0  0
 60 69  1  0  0  0  0
 69 70  1  0  0  0  0
 56 71  1  0  0  0  0
 71 72  2  0  0  0  0
 72 73  1  0  0  0  0
 73 74  1  0  0  0  0
 74 75  2  0  0  0  0
 75 76  1  0  0  0  0
 76 77  3  0  0  0  0
 75 78  1  0  0  0  0
 78 79  3  0  0  0  0
 74 80  1  0  0  0  0
 80 81  1  0  0  0  0
 81 82  2  0  0  0  0
 82 83  1  0  0  0  0
 83 84  2  0  0  0  0
 84 85  1  0  0  0  0
 85 86  2  0  0  0  0
 80 87  1  0  0  0  0
 87 88  2  0  0  0  0
 11  2  1  0  0  0  0
 23 17  1  0  0  0  0
 66 24  1  0  0  0  0
 87 72  1  0  0  0  0
 10  5  1  0  0  0  0
 22 18  1  0  0  0  0
 33 26  1  0  0  0  0
 65 34  2  0  0  0  0
 86 81  1  0  0  0  0
 23  7  1  0  0  0  0
 64 36  2  0  0  0  0
 62 37  2  0  0  0  0
 42 38  2  0  0  0  0
 61 43  2  0  0  0  0
 59 44  2  0  0  0  0
 58 46  2  0  0  0  0
 55 48  1  0  0  0  0
  1 89  1  0  0  0  0
  6 90  1  0  0  0  0
  9 91  1  0  0  0  0
 17 92  1  0  0  0  0
 18 93  1  0  0  0  0
 19 94  1  0  0  0  0
 20 95  1  0  0  0  0
 21 96  1  0  0  0  0
 22 97  1  0  0  0  0
 22 98  1  0  0  0  0
 23 99  1  0  0  0  0
 27100  1  0  0  0  0
 28101  1  0  0  0  0
 30102  1  0  0  0  0
 30103  1  0  0  0  0
 31104  1  0  0  0  0
 31105  1  0  0  0  0
 31106  1  0  0  0  0
 32107  1  0  0  0  0
 33108  1  0  0  0  0
 49109  1  0  0  0  0
 50110  1  0  0  0  0
 52111  1  0  0  0  0
 52112  1  0  0  0  0
 53113  1  0  0  0  0
 53114  1  0  0  0  0
 53115  1  0  0  0  0
 54116  1  0  0  0  0
 55117  1  0  0  0  0
 67118  1  0  0  0  0
 67119  1  0  0  0  0
 68120  1  0  0  0  0
 68121  1  0  0  0  0
 68122  1  0  0  0  0
 69123  1  0  0  0  0
 69124  1  0  0  0  0
 70125  1  0  0  0  0
 70126  1  0  0  0  0
 70127  1  0  0  0  0
 71128  1  0  0  0  0
 82129  1  0  0  0  0
 83130  1  0  0  0  0
 84131  1  0  0  0  0
 85132  1  0  0  0  0
 86133  1  0  0  0  0
M  END
