113

C         -0.42530        2.21530       -7.06970
C         -1.35320        1.24520       -7.35650
C         -1.93770        0.29580       -6.40630
O         -1.68700        0.18420       -5.21680
C         -2.90170       -0.51520       -7.16740
C         -3.70590       -1.54090       -6.67740
C         -4.51250       -2.12070       -7.62690
C         -4.52160       -1.70620       -8.96500
C         -3.73410       -0.69370       -9.46040
C         -2.90110       -0.09360       -8.51240
C         -1.93540        0.99530       -8.65990
C         -1.64580        1.63950       -9.83680
C         -2.24400        1.34380      -11.07930
N         -2.68190        1.16680      -12.12610
C         -0.71240        2.68380       -9.99920
N          0.02720        3.53630      -10.21790
C         -5.56030       -2.72640       -9.35750
C         -5.07980       -3.98990      -10.11310
C         -3.64270       -4.21010       -9.71030
C         -3.63300       -4.60390       -8.44390
C         -5.06360       -4.65680       -7.96730
C         -5.76700       -5.07470       -9.26840
C         -5.54930       -3.18950       -7.86650
C          0.20250        2.55770       -5.86720
C          1.12310        3.61210       -5.75620
C          1.52720        4.54110       -6.85410
C          0.50950        5.67360       -7.00920
C          1.59670        3.74750       -4.45750
Se         2.83260        4.95270       -3.66510
C          2.48770        3.99870       -2.10600
C          2.90890        3.97760       -0.77330
C          3.90140        4.74740       -0.13080
C          4.23590        4.44010        1.22380
N          5.21230        5.19940        1.69460
S          5.67040        6.22090        0.52090
N          4.63750        5.72820       -0.62830
C          3.49620        3.44300        1.89340
C          3.57100        3.02020        3.22450
Se         4.59770        3.34700        4.73800
C          3.46460        2.07780        5.56670
C          3.42450        1.55210        6.86120
C          4.36500        1.98810        7.93600
C          3.81630        3.22280        8.65490
C          2.41480        0.60940        7.00660
S          1.48840        0.41500        5.51880
C          2.48200        1.56830        4.70720
C          2.54590        2.08380        3.40760
N          1.86690        1.90160        2.23170
C          2.43890        2.72010        1.27140
C          2.20350        2.92700       -0.11690
N          1.39060        2.31660       -1.05510
C          1.56570        2.95500       -2.25460
C          1.06810        2.80770       -3.55630
S         -0.04790        1.74090       -4.32590
C          0.72990        1.03090       -1.02060
C          1.73310       -0.10500       -0.83490
C          0.58110        1.24140        2.24260
C         -0.55850        2.24370        2.07390
C          2.04970       -0.05810        8.19450
C          1.24230       -1.14350        8.35910
C          0.58290       -1.38100        9.67170
O          0.85860       -0.85410       10.72650
C         -0.50340       -2.33710        9.38420
C         -1.50000       -2.81180       10.21510
C         -2.42770       -3.69880        9.69200
C         -2.37300       -4.10800        8.36090
C         -3.40760       -5.04100        7.81630
C         -1.36120       -3.63070        7.52910
C         -0.42610       -2.75020        8.04090
C          0.75330       -2.13830        7.43300
C          1.42690       -2.62350        6.34140
C          2.73210       -2.21030        6.00240
N          3.81440       -1.93410        5.73640
C          0.93470       -3.63780        5.49900
N          0.56360       -4.43730        4.76250
H         -0.11820        2.83640       -7.89980
H         -3.66930       -1.82480       -5.63730
H         -3.75720       -0.38770      -10.49270
H         -6.48960       -2.32980       -9.76160
H         -5.28300       -3.98170      -11.18050
H         -2.80410       -4.00800      -10.35050
H         -2.78430       -4.79650       -7.81400
H         -5.25260       -5.25700       -7.08100
H         -6.85060       -4.97220       -9.22840
H         -5.50430       -6.08340       -9.58380
H         -6.47210       -3.09610       -7.29700
H          1.63260        4.01320       -7.80300
H          2.49930        4.97010       -6.59030
H          0.42450        6.23230       -6.07930
H         -0.46980        5.27810       -7.26860
H          0.82710        6.35030       -7.79720
H          4.53340        1.18140        8.64910
H          5.32110        2.24240        7.46880
H          4.51400        3.54900        9.42130
H          2.86110        3.00160        9.12590
H          3.67320        4.03620        7.94580
H         -0.04330        1.01890       -0.25300
H          0.22670        0.90960       -1.98220
H          2.31370        0.02150        0.07640
H          2.42320       -0.12910       -1.67500
H          1.21090       -1.05670       -0.79110
H          0.48770        0.75210        3.21480
H          0.54520        0.45650        1.48780
H         -1.51270        1.72370        2.06830
H         -0.45650        2.80430        1.14730
H         -0.55510        2.95180        2.89970
H          2.37650        0.41100        9.11720
H         -1.54270       -2.49590       11.24610
H         -3.21270       -4.08420       10.32630
H         -4.28490       -4.47490        7.50090
H         -3.72500       -5.75420        8.57330
H         -3.02680       -5.58160        6.95360
H         -1.32450       -3.94510        6.49770
