101

C         -2.27670        6.46400       -0.88020
C         -3.61230        6.21780       -0.67280
C         -4.19540        4.91320       -0.39040
O         -3.60830        3.83620       -0.34700
C         -5.63020        5.12690       -0.16260
C         -6.58570        4.16920        0.16950
C         -7.85080        4.67800        0.34020
C         -8.14500        6.03890        0.18540
C         -7.21270        6.99320       -0.14920
C         -5.91780        6.49910       -0.32140
C         -4.67850        7.20070       -0.65870
C         -4.57420        8.54210       -0.92040
C         -5.65630        9.44770       -0.90270
N         -6.48280       10.24500       -0.90840
C         -3.38820        9.22790       -1.25750
N         -2.47490        9.86480       -1.54080
C         -9.60100        5.84540        0.52480
C        -10.06940        6.25880        1.94210
C         -8.86470        6.14590        2.84300
C         -8.58810        4.85710        2.98980
C         -9.60060        4.07510        2.19000
C        -10.82940        4.98530        2.34560
C         -9.27400        4.32840        0.69720
C         -1.17910        5.59360       -0.88670
C          0.11700        6.07960       -1.07700
C          1.11430        5.12460       -1.04080
S          2.85500        5.29090       -1.19040
C          3.00360        3.58400       -0.96660
C          4.00220        2.61210       -0.84570
C          5.40750        2.74980       -0.81980
C          6.20810        1.59160       -0.56550
N          7.50170        1.86850       -0.52200
S          7.69390        3.45470       -0.78290
N          6.13350        3.84760       -0.96010
C          5.56950        0.33830       -0.44020
C          6.11600       -0.94160       -0.30330
C          5.04950       -1.84710       -0.34380
N          3.86990       -1.16690       -0.48460
C          2.66170       -1.92720       -0.69400
C          2.10140       -2.48050        0.61620
C          4.15010        0.18590       -0.52910
C          3.34880        1.35540       -0.64840
N          1.98710        1.59180       -0.61200
C          1.77670        2.92990       -0.80810
C          0.68130        3.79720       -0.83670
Se        -1.17520        3.71060       -0.64470
C          0.85480        0.76230       -0.27740
C          0.04180        0.37990       -1.51410
C          5.45630       -3.18220       -0.28740
C          6.86270       -3.26070       -0.18620
S          7.66300       -1.69880       -0.16320
C          7.38770       -4.53640       -0.13690
C          6.44860       -5.57020       -0.20860
Se         4.68320       -4.88170       -0.34010
C          6.85560       -6.90870       -0.19230
C          6.12280       -8.06960       -0.28300
C          4.67550       -8.14020       -0.42350
O          3.88710       -7.19910       -0.44550
C          4.32960       -9.56230       -0.53540
C          3.08990      -10.13120       -0.70040
C          3.01950      -11.52490       -0.79030
C          1.87810      -12.35750       -0.96380
C          2.19430      -13.67010       -1.00940
S          3.88770      -13.98130       -0.84530
C          4.21170      -12.28230       -0.70760
C          5.46640      -11.70610       -0.53880
C          5.52050      -10.32910       -0.45220
C          6.65090       -9.42000       -0.28130
C          7.96020       -9.80440       -0.14010
C          8.39610      -11.14580       -0.14640
N          8.82020      -12.21290       -0.14480
C          9.05990       -8.93980        0.03760
N         10.00880       -8.30960        0.18910
H         -1.99610        7.49640       -1.05510
H         -6.31520        3.13050        0.27830
H         -7.45900        8.03540       -0.26370
H        -10.31330        6.13010       -0.24680
H        -10.61120        7.19990        1.98130
H         -8.32020        6.99030        3.22330
H         -7.76590        4.40960        3.51700
H         -9.71690        3.02750        2.45540
H        -11.64470        4.73360        1.66880
H        -11.19900        5.02210        3.36920
H         -9.77270        3.62140        0.03700
H          0.31070        7.12780       -1.23150
H          1.93330       -1.32070       -1.22450
H          2.92190       -2.77680       -1.34060
H          2.76910       -3.24430        1.01360
H          1.13110       -2.93550        0.43930
H          1.99780       -1.70160        1.36910
H          0.20800        1.35070        0.38830
H          1.18960       -0.11050        0.27580
H          0.67200       -0.04270       -2.29420
H         -0.72260       -0.34290       -1.24380
H         -0.45150        1.26130       -1.92260
H          8.44290       -4.73680       -0.05710
H          7.93030       -7.02200       -0.10560
H          2.20310       -9.51950       -0.75980
H          0.87680      -11.97570       -1.04910
H          1.53020      -14.50350       -1.13190
H          6.34340      -12.32880       -0.48300
