
  xtb     02102221213D
 energy: -203.655419580520 gnorm: 0.000326350558 xtb: 6.4.1 (unknown)
127141  0     0  0            999 V2000
    3.9313   -6.7897   -2.3850 C   0  0  0  0  0  0  0  0  0  0  0  0
    5.1740   -7.3491   -2.5228 C   0  0  0  0  0  0  0  0  0  0  0  0
    6.4868   -6.8103   -2.1041 C   0  0  0  0  0  0  0  0  0  0  0  0
    6.7291   -5.8754   -1.3659 O   0  0  0  0  0  0  0  0  0  0  0  0
    7.4984   -7.6440   -2.7806 C   0  0  0  0  0  0  0  0  0  0  0  0
    8.8786   -7.4580   -2.7560 C   0  0  0  0  0  0  0  0  0  0  0  0
    9.5793   -8.3715   -3.5054 C   0  0  0  0  0  0  0  0  0  0  0  0
    8.9532   -9.3985   -4.2247 C   0  0  0  0  0  0  0  0  0  0  0  0
    7.5937   -9.5994   -4.2484 C   0  0  0  0  0  0  0  0  0  0  0  0
    6.8620   -8.6782   -3.4932 C   0  0  0  0  0  0  0  0  0  0  0  0
    5.4218   -8.5643   -3.2812 C   0  0  0  0  0  0  0  0  0  0  0  0
    4.4917   -9.4923   -3.6738 C   0  0  0  0  0  0  0  0  0  0  0  0
    3.1111   -9.4549   -3.3840 C   0  0  0  0  0  0  0  0  0  0  0  0
    1.9828   -9.5216   -3.1768 N   0  0  0  0  0  0  0  0  0  0  0  0
    4.7934  -10.6667   -4.3947 C   0  0  0  0  0  0  0  0  0  0  0  0
    4.9585  -11.6374   -4.9858 N   0  0  0  0  0  0  0  0  0  0  0  0
   10.2589   -9.9233   -4.7668 C   0  0  0  0  0  0  0  0  0  0  0  0
   10.6185   -9.5815   -6.2341 C   0  0  0  0  0  0  0  0  0  0  0  0
    9.9098   -8.2905   -6.5607 C   0  0  0  0  0  0  0  0  0  0  0  0
   10.5028   -7.3193   -5.8793 C   0  0  0  0  0  0  0  0  0  0  0  0
   11.6234   -7.9363   -5.0794 C   0  0  0  0  0  0  0  0  0  0  0  0
   12.0511   -9.0608   -6.0359 C   0  0  0  0  0  0  0  0  0  0  0  0
   10.9567   -8.7801   -3.9645 C   0  0  0  0  0  0  0  0  0  0  0  0
    3.4994   -5.6273   -1.7229 C   0  0  0  0  0  0  0  0  0  0  0  0
    1.8131   -5.1691   -1.9956 S   0  0  0  0  0  0  0  0  0  0  0  0
    2.0113   -3.7975   -1.0005 C   0  0  0  0  0  0  0  0  0  0  0  0
    1.2136   -2.6889   -0.5863 C   0  0  0  0  0  0  0  0  0  0  0  0
    2.0281   -1.8788    0.2380 C   0  0  0  0  0  0  0  0  0  0  0  0
    3.4034   -2.4871    0.4010 C   0  0  0  0  0  0  0  0  0  0  0  0
    3.2977   -3.7033   -0.4707 C   0  0  0  0  0  0  0  0  0  0  0  0
    4.1348   -4.7298   -0.8699 C   0  0  0  0  0  0  0  0  0  0  0  0
    3.7223   -2.8410    1.8558 C   0  0  0  0  0  0  0  0  0  0  0  0
    1.5375   -0.7143    0.7803 C   0  0  0  0  0  0  0  0  0  0  0  0
    0.2286   -0.3494    0.4657 C   0  0  0  0  0  0  0  0  0  0  0  0
   -0.5730    0.7654    0.8811 C   0  0  0  0  0  0  0  0  0  0  0  0
   -1.8379    0.6302    0.3861 C   0  0  0  0  0  0  0  0  0  0  0  0
   -1.9655   -0.5601   -0.5207 C   0  0  0  0  0  0  0  0  0  0  0  0
   -3.0787   -1.5286   -0.0968 C   0  0  0  0  0  0  0  0  0  0  0  0
   -2.9902   -1.9017    1.3785 C   0  0  0  0  0  0  0  0  0  0  0  0
   -2.1909   -0.0127   -1.9510 C   0  0  0  0  0  0  0  0  0  0  0  0
   -2.2058   -1.0510   -3.0645 C   0  0  0  0  0  0  0  0  0  0  0  0
   -0.5858   -1.1684   -0.3609 C   0  0  0  0  0  0  0  0  0  0  0  0
   -0.1067   -2.3493   -0.8757 C   0  0  0  0  0  0  0  0  0  0  0  0
   -2.6745    1.6892    0.8597 C   0  0  0  0  0  0  0  0  0  0  0  0
   -1.8735    2.5065    1.6969 C   0  0  0  0  0  0  0  0  0  0  0  0
   -0.4383    2.0068    1.7171 C   0  0  0  0  0  0  0  0  0  0  0  0
    0.4114    3.0903    1.0105 C   0  0  0  0  0  0  0  0  0  0  0  0
    1.8529    2.7045    0.7096 C   0  0  0  0  0  0  0  0  0  0  0  0
    0.0626    1.7261    3.1402 C   0  0  0  0  0  0  0  0  0  0  0  0
   -0.7987    0.6985    3.8649 C   0  0  0  0  0  0  0  0  0  0  0  0
   -2.3981    3.6125    2.3186 C   0  0  0  0  0  0  0  0  0  0  0  0
   -3.7458    3.8937    2.0949 C   0  0  0  0  0  0  0  0  0  0  0  0
   -4.5735    4.9547    2.5662 C   0  0  0  0  0  0  0  0  0  0  0  0
   -5.8683    4.8343    2.0554 C   0  0  0  0  0  0  0  0  0  0  0  0
   -5.9594    3.6233    1.1752 C   0  0  0  0  0  0  0  0  0  0  0  0
   -4.5506    3.0794    1.2623 C   0  0  0  0  0  0  0  0  0  0  0  0
   -4.0223    1.9717    0.6422 C   0  0  0  0  0  0  0  0  0  0  0  0
   -6.3728    3.9729   -0.2562 C   0  0  0  0  0  0  0  0  0  0  0  0
   -6.7140    5.8512    2.4511 C   0  0  0  0  0  0  0  0  0  0  0  0
   -6.0800    6.7749    3.2817 C   0  0  0  0  0  0  0  0  0  0  0  0
   -4.3879    6.3284    3.5581 S   0  0  0  0  0  0  0  0  0  0  0  0
   -6.5048    7.9549    3.9070 C   0  0  0  0  0  0  0  0  0  0  0  0
   -7.7101    8.6161    3.9103 C   0  0  0  0  0  0  0  0  0  0  0  0
   -8.9726    8.2399    3.2421 C   0  0  0  0  0  0  0  0  0  0  0  0
   -9.2118    7.2820    2.5331 O   0  0  0  0  0  0  0  0  0  0  0  0
   -9.9480    9.2877    3.6061 C   0  0  0  0  0  0  0  0  0  0  0  0
  -11.2760    9.3837    3.2361 C   0  0  0  0  0  0  0  0  0  0  0  0
  -12.0152   10.4596    3.7005 C   0  0  0  0  0  0  0  0  0  0  0  0
  -11.3984   11.3960    4.5166 C   0  0  0  0  0  0  0  0  0  0  0  0
  -12.1282   12.4327    4.9612 F   0  0  0  0  0  0  0  0  0  0  0  0
  -10.0662   11.3203    4.8995 C   0  0  0  0  0  0  0  0  0  0  0  0
   -9.3325   10.2429    4.4303 C   0  0  0  0  0  0  0  0  0  0  0  0
   -7.9334    9.8591    4.6272 C   0  0  0  0  0  0  0  0  0  0  0  0
   -7.0272   10.5888    5.3536 C   0  0  0  0  0  0  0  0  0  0  0  0
   -7.3334   11.7975    6.0156 C   0  0  0  0  0  0  0  0  0  0  0  0
   -7.5035   12.7830    6.5793 N   0  0  0  0  0  0  0  0  0  0  0  0
   -5.6641   10.2867    5.5597 C   0  0  0  0  0  0  0  0  0  0  0  0
   -4.5473   10.1390    5.7871 N   0  0  0  0  0  0  0  0  0  0  0  0
    3.1278   -7.2973   -2.9068 H   0  0  0  0  0  0  0  0  0  0  0  0
    9.3186   -6.6522   -2.1894 H   0  0  0  0  0  0  0  0  0  0  0  0
    7.1284  -10.3924   -4.8093 H   0  0  0  0  0  0  0  0  0  0  0  0
   10.5043  -10.9515   -4.5086 H   0  0  0  0  0  0  0  0  0  0  0  0
   10.4747  -10.3986   -6.9359 H   0  0  0  0  0  0  0  0  0  0  0  0
    9.0408   -8.2268   -7.1893 H   0  0  0  0  0  0  0  0  0  0  0  0
   10.2280   -6.2821   -5.8247 H   0  0  0  0  0  0  0  0  0  0  0  0
   12.3954   -7.2554   -4.7302 H   0  0  0  0  0  0  0  0  0  0  0  0
   12.7183   -9.7898   -5.5780 H   0  0  0  0  0  0  0  0  0  0  0  0
   12.4938   -8.6846   -6.9570 H   0  0  0  0  0  0  0  0  0  0  0  0
   11.6583   -9.0618   -3.1816 H   0  0  0  0  0  0  0  0  0  0  0  0
    4.1728   -1.8039    0.0252 H   0  0  0  0  0  0  0  0  0  0  0  0
    5.1637   -4.8452   -0.5844 H   0  0  0  0  0  0  0  0  0  0  0  0
    4.6897   -3.3325    1.9160 H   0  0  0  0  0  0  0  0  0  0  0  0
    2.9639   -3.5129    2.2517 H   0  0  0  0  0  0  0  0  0  0  0  0
    3.7458   -1.9432    2.4681 H   0  0  0  0  0  0  0  0  0  0  0  0
    2.1460   -0.1051    1.4296 H   0  0  0  0  0  0  0  0  0  0  0  0
   -4.0469   -1.0655   -0.2963 H   0  0  0  0  0  0  0  0  0  0  0  0
   -3.0090   -2.4360   -0.6977 H   0  0  0  0  0  0  0  0  0  0  0  0
   -2.0252   -2.3527    1.6005 H   0  0  0  0  0  0  0  0  0  0  0  0
   -3.1126   -1.0227    2.0074 H   0  0  0  0  0  0  0  0  0  0  0  0
   -3.7694   -2.6168    1.6316 H   0  0  0  0  0  0  0  0  0  0  0  0
   -3.1412    0.5261   -1.9517 H   0  0  0  0  0  0  0  0  0  0  0  0
   -1.4013    0.7143   -2.1588 H   0  0  0  0  0  0  0  0  0  0  0  0
   -2.9703   -1.8045   -2.8955 H   0  0  0  0  0  0  0  0  0  0  0  0
   -1.2398   -1.5398   -3.1539 H   0  0  0  0  0  0  0  0  0  0  0  0
   -2.4220   -0.5585   -4.0103 H   0  0  0  0  0  0  0  0  0  0  0  0
   -0.7134   -3.0100   -1.4752 H   0  0  0  0  0  0  0  0  0  0  0  0
    0.4019    3.9834    1.6388 H   0  0  0  0  0  0  0  0  0  0  0  0
   -0.0863    3.3428    0.0704 H   0  0  0  0  0  0  0  0  0  0  0  0
    2.3985    2.4683    1.6194 H   0  0  0  0  0  0  0  0  0  0  0  0
    2.3548    3.5408    0.2274 H   0  0  0  0  0  0  0  0  0  0  0  0
    1.8943    1.8515    0.0378 H   0  0  0  0  0  0  0  0  0  0  0  0
    1.0884    1.3597    3.0942 H   0  0  0  0  0  0  0  0  0  0  0  0
    0.0647    2.6623    3.7021 H   0  0  0  0  0  0  0  0  0  0  0  0
   -1.8306    1.0375    3.9268 H   0  0  0  0  0  0  0  0  0  0  0  0
   -0.7806   -0.2546    3.3410 H   0  0  0  0  0  0  0  0  0  0  0  0
   -0.4271    0.5429    4.8749 H   0  0  0  0  0  0  0  0  0  0  0  0
   -1.8083    4.2509    2.9590 H   0  0  0  0  0  0  0  0  0  0  0  0
   -6.6740    2.9005    1.5843 H   0  0  0  0  0  0  0  0  0  0  0  0
   -4.6276    1.3421    0.0081 H   0  0  0  0  0  0  0  0  0  0  0  0
   -6.3942    3.0790   -0.8742 H   0  0  0  0  0  0  0  0  0  0  0  0
   -7.3612    4.4246   -0.2584 H   0  0  0  0  0  0  0  0  0  0  0  0
   -5.6657    4.6779   -0.6876 H   0  0  0  0  0  0  0  0  0  0  0  0
   -7.7457    5.9533    2.1704 H   0  0  0  0  0  0  0  0  0  0  0  0
   -5.7194    8.4214    4.4897 H   0  0  0  0  0  0  0  0  0  0  0  0
  -11.7157    8.6316    2.5998 H   0  0  0  0  0  0  0  0  0  0  0  0
  -13.0550   10.5846    3.4433 H   0  0  0  0  0  0  0  0  0  0  0  0
   -9.6557   12.0856    5.5364 H   0  0  0  0  0  0  0  0  0  0  0  0
  1  2  2  0  0  0  0
  2  3  1  0  0  0  0
  3  4  2  0  0  0  0
  3  5  1  0  0  0  0
  5  6  2  0  0  0  0
  6  7  1  0  0  0  0
  7  8  2  0  0  0  0
  8  9  1  0  0  0  0
  9 10  2  0  0  0  0
 10 11  1  0  0  0  0
 11 12  2  0  0  0  0
 12 13  1  0  0  0  0
 13 14  3  0  0  0  0
 12 15  1  0  0  0  0
 15 16  3  0  0  0  0
  8 17  1  0  0  0  0
 17 18  1  0  0  0  0
 18 19  1  0  0  0  0
 19 20  2  0  0  0  0
 20 21  1  0  0  0  0
 21 22  1  0  0  0  0
 21 23  1  0  0  0  0
  1 24  1  0  0  0  0
 24 25  1  0  0  0  0
 25 26  1  0  0  0  0
 26 27  1  0  0  0  0
 27 28  2  0  0  0  0
 28 29  1  0  0  0  0
 29 30  1  0  0  0  0
 30 31  1  0  0  0  0
 29 32  1  0  0  0  0
 28 33  1  0  0  0  0
 33 34  2  0  0  0  0
 34 35  1  0  0  0  0
 35 36  2  0  0  0  0
 36 37  1  0  0  0  0
 37 38  1  0  0  0  0
 38 39  1  0  0  0  0
 37 40  1  0  0  0  0
 40 41  1  0  0  0  0
 37 42  1  0  0  0  0
 42 43  2  0  0  0  0
 36 44  1  0  0  0  0
 44 45  2  0  0  0  0
 45 46  1  0  0  0  0
 46 47  1  0  0  0  0
 47 48  1  0  0  0  0
 46 49  1  0  0  0  0
 49 50  1  0  0  0  0
 45 51  1  0  0  0  0
 51 52  2  0  0  0  0
 52 53  1  0  0  0  0
 53 54  2  0  0  0  0
 54 55  1  0  0  0  0
 55 56  1  0  0  0  0
 56 57  2  0  0  0  0
 55 58  1  0  0  0  0
 54 59  1  0  0  0  0
 59 60  2  0  0  0  0
 60 61  1  0  0  0  0
 60 62  1  0  0  0  0
 62 63  2  0  0  0  0
 63 64  1  0  0  0  0
 64 65  2  0  0  0  0
 64 66  1  0  0  0  0
 66 67  2  0  0  0  0
 67 68  1  0  0  0  0
 68 69  2  0  0  0  0
 69 70  1  0  0  0  0
 69 71  1  0  0  0  0
 71 72  2  0  0  0  0
 72 73  1  0  0  0  0
 73 74  2  0  0  0  0
 74 75  1  0  0  0  0
 75 76  3  0  0  0  0
 74 77  1  0  0  0  0
 77 78  3  0  0  0  0
 11  2  1  0  0  0  0
 23 17  1  0  0  0  0
 31 24  2  0  0  0  0
 42 34  1  0  0  0  0
 57 44  1  0  0  0  0
 73 63  1  0  0  0  0
 10  5  1  0  0  0  0
 22 18  1  0  0  0  0
 30 26  2  0  0  0  0
 46 35  1  0  0  0  0
 56 52  1  0  0  0  0
 72 66  1  0  0  0  0
 23  7  1  0  0  0  0
 43 27  1  0  0  0  0
 61 53  1  0  0  0  0
  1 79  1  0  0  0  0
  6 80  1  0  0  0  0
  9 81  1  0  0  0  0
 17 82  1  0  0  0  0
 18 83  1  0  0  0  0
 19 84  1  0  0  0  0
 20 85  1  0  0  0  0
 21 86  1  0  0  0  0
 22 87  1  0  0  0  0
 22 88  1  0  0  0  0
 23 89  1  0  0  0  0
 29 90  1  0  0  0  0
 31 91  1  0  0  0  0
 32 92  1  0  0  0  0
 32 93  1  0  0  0  0
 32 94  1  0  0  0  0
 33 95  1  0  0  0  0
 38 96  1  0  0  0  0
 38 97  1  0  0  0  0
 39 98  1  0  0  0  0
 39 99  1  0  0  0  0
 39100  1  0  0  0  0
 40101  1  0  0  0  0
 40102  1  0  0  0  0
 41103  1  0  0  0  0
 41104  1  0  0  0  0
 41105  1  0  0  0  0
 43106  1  0  0  0  0
 47107  1  0  0  0  0
 47108  1  0  0  0  0
 48109  1  0  0  0  0
 48110  1  0  0  0  0
 48111  1  0  0  0  0
 49112  1  0  0  0  0
 49113  1  0  0  0  0
 50114  1  0  0  0  0
 50115  1  0  0  0  0
 50116  1  0  0  0  0
 51117  1  0  0  0  0
 55118  1  0  0  0  0
 57119  1  0  0  0  0
 58120  1  0  0  0  0
 58121  1  0  0  0  0
 58122  1  0  0  0  0
 59123  1  0  0  0  0
 62124  1  0  0  0  0
 67125  1  0  0  0  0
 68126  1  0  0  0  0
 71127  1  0  0  0  0
M  END
