140

C         -6.95330        7.37200        1.22510
C         -6.79320        8.36560        0.29140
C         -5.62310        8.55700       -0.57150
O         -4.55380        7.97340       -0.51970
C         -5.98920        9.60490       -1.53970
C         -5.21270       10.07590       -2.59570
C         -5.83140       11.03810       -3.35690
C         -7.12520       11.50110       -3.08440
C         -7.89730       11.05140       -2.03910
C         -7.28850       10.06790       -1.25330
C         -7.79320        9.34450       -0.08580
C         -8.99230        9.58600        0.53570
C         -9.92300       10.56240        0.12440
N        -10.73000       11.33220       -0.15020
C         -9.47390        8.92240        1.68300
N         -9.94140        8.43960        2.61530
C         -7.12120       12.44550       -4.26120
C         -7.91270       11.99630       -5.50770
C         -7.34560       12.84560       -6.62220
C         -6.11970       12.40770       -6.87960
C         -5.83770       11.25520       -5.94300
C         -7.24500       10.65400       -5.83380
C         -5.67770       11.92980       -4.56390
C         -6.09620        6.32980        1.60040
S         -4.45400        6.07120        1.02810
C         -4.37180        4.62230        1.92620
C         -3.43690        3.55370        2.06590
C         -4.04410        2.56170        2.87070
C         -5.40430        3.02210        3.35020
C         -5.54140        4.33550        2.63530
C         -6.50450        5.30530        2.46920
C         -5.46130        3.17550        4.87240
C         -3.41570        1.35900        3.09610
C         -2.17010        1.15830        2.50110
C         -1.29680        0.02380        2.47400
C         -0.17850        0.30260        1.74290
C         -0.22780        1.68680        1.16120
C          0.95410        2.56610        1.59310
C          1.10080        2.63350        3.10870
C         -0.40370        1.67250       -0.37630
C          0.71550        1.01740       -1.17310
C         -1.54670        2.17530        1.73580
C         -2.17180        3.37650        1.50940
C          0.69240       -0.83570        1.74010
C          0.03150       -1.87630        2.44500
C         -1.32060       -1.40310        2.94530
C         -2.48890       -2.09410        2.20100
C         -2.63460       -3.59300        2.42600
C         -1.45300       -1.53880        4.46870
C         -0.45090       -0.66630        5.21540
C          0.61800       -3.11110        2.59110
C          1.85580       -3.31260        1.98130
C          2.64820       -4.48940        1.82010
C          3.78990       -4.21280        1.06860
C          3.85130       -2.74890        0.75100
C          2.53220       -2.26740        1.31090
C          1.96750       -1.01890        1.20650
C          5.05150       -2.06210        1.40870
C          4.54270       -5.33420        0.77230
C          3.97840       -6.49870        1.28310
S          2.50600       -6.14810        2.19950
C          4.32250       -7.85620        1.16140
C          5.20460       -8.48580        0.32330
C          6.00020       -7.91290       -0.78480
O          6.27830       -6.75100       -1.00780
C          6.41510       -9.06040       -1.61430
C          7.07960       -9.00340       -2.83680
C          7.29510      -10.23170       -3.41290
C          6.88450      -11.43070       -2.81470
C          6.24350      -11.50140       -1.60060
C          6.01180      -10.26090       -0.99940
C          5.35050       -9.93050        0.25980
C          5.00030      -10.83190        1.23130
C          4.46360      -10.50510        2.49480
N          4.04740      -10.32630        3.55050
C          5.18300      -12.22620        1.12380
N          5.29670      -13.36870        1.10330
C          7.39130      -12.26850       -3.96190
C          6.34960      -12.81060       -4.97220
C          5.18390      -11.85350       -4.94420
C          5.57700      -10.71960       -5.50900
C          7.01620      -10.88960       -5.92870
C          7.01810      -12.38370       -6.28890
C          7.85300      -10.93310       -4.62580
H         -7.90940        7.33450        1.73380
H         -4.22000        9.69050       -2.76820
H         -8.89010       11.42040       -1.84410
H         -7.25980       13.49900       -4.02580
H         -8.99270       12.00310       -5.38800
H         -7.85620       13.68530       -7.05600
H         -5.40180       12.80840       -7.57110
H         -5.02720       10.58640       -6.22020
H         -7.59090       10.24150       -6.78020
H         -7.34820        9.90480       -5.05090
H         -4.85320       12.63960       -4.53020
H         -6.18390        2.32080        3.03350
H         -7.48260        5.30030        2.91740
H         -5.29890        2.21530        5.35560
H         -6.43170        3.56060        5.17480
H         -4.69160        3.86780        5.20620
H         -3.87900        0.58730        3.69240
H          1.87440        2.16780        1.16480
H          0.80450        3.57220        1.19600
H          1.29140        1.64450        3.51950
H          1.93060        3.28320        3.37720
H          0.19460        3.02690        3.56430
H         -1.34000        1.15360       -0.59840
H         -0.51590        2.70780       -0.70450
H          1.67060        1.50180       -0.98780
H          0.79790       -0.03880       -0.93220
H          0.49710        1.10630       -2.23530
H         -1.72920        4.15760        0.91030
H         -3.41190       -1.59730        2.50800
H         -2.35850       -1.91020        1.13120
H         -3.52770       -3.94560        1.91430
H         -1.78310       -4.13320        2.02280
H         -2.73720       -3.82860        3.48180
H         -2.46680       -1.25940        4.76260
H         -1.29520       -2.58130        4.74840
H          0.56630       -0.91820        4.92250
H         -0.62110        0.38620        5.00020
H         -0.54690       -0.81820        6.28800
H          0.15350       -3.91320        3.14310
H          3.89670       -2.58400       -0.33070
H          2.48840       -0.21370        0.71330
H          5.02320       -2.21120        2.48580
H          5.03480       -0.99450        1.20450
H          5.97760       -2.47970        1.02240
H          5.44830       -5.34220        0.19570
H          3.72060       -8.50510        1.78820
H          7.37410       -8.05740       -3.26370
H          5.93150      -12.43090       -1.15450
H          8.15230      -13.00630       -3.71570
H          6.10880      -13.86330       -4.85070
H          4.24030      -12.07230       -4.47960
H          5.02760       -9.80190       -5.61010
H          7.38300      -10.19330       -6.67840
H          6.40780      -12.60690       -7.16290
H          8.01700      -12.79670       -6.42240
H          8.91680      -10.79740       -4.81090
