
  xtb     02022218323D
 energy: -229.671610803308 gnorm: 0.000600313634 xtb: 6.4.1 (unknown)
133150  0     0  0            999 V2000
    1.0061   -3.1337   -7.0485 C   0  0  0  0  0  0  0  0  0  0  0  0
    1.2310   -2.1321   -7.9611 C   0  0  0  0  0  0  0  0  0  0  0  0
    0.8948   -0.7177   -7.7905 C   0  0  0  0  0  0  0  0  0  0  0  0
    0.3620   -0.1903   -6.8264 O   0  0  0  0  0  0  0  0  0  0  0  0
    1.3309   -0.0340   -9.0183 C   0  0  0  0  0  0  0  0  0  0  0  0
    1.2281    1.3253   -9.3020 C   0  0  0  0  0  0  0  0  0  0  0  0
    1.7451    1.6812  -10.5243 C   0  0  0  0  0  0  0  0  0  0  0  0
    2.3181    0.7510  -11.4010 C   0  0  0  0  0  0  0  0  0  0  0  0
    2.4191   -0.5943  -11.1350 C   0  0  0  0  0  0  0  0  0  0  0  0
    1.9034   -0.9781   -9.8943 C   0  0  0  0  0  0  0  0  0  0  0  0
    1.8460   -2.2967   -9.2618 C   0  0  0  0  0  0  0  0  0  0  0  0
    2.3048   -3.4615   -9.8242 C   0  0  0  0  0  0  0  0  0  0  0  0
    2.8932   -3.5516  -11.1033 C   0  0  0  0  0  0  0  0  0  0  0  0
    3.3801   -3.7111  -12.1313 N   0  0  0  0  0  0  0  0  0  0  0  0
    2.2705   -4.7462   -9.2434 C   0  0  0  0  0  0  0  0  0  0  0  0
    2.2943   -5.8333   -8.8702 N   0  0  0  0  0  0  0  0  0  0  0  0
    2.6508    1.8039  -12.4278 C   0  0  0  0  0  0  0  0  0  0  0  0
    4.1219    2.2803  -12.5171 C   0  0  0  0  0  0  0  0  0  0  0  0
    4.7272    2.0649  -11.1521 C   0  0  0  0  0  0  0  0  0  0  0  0
    4.1835    2.9468  -10.3241 C   0  0  0  0  0  0  0  0  0  0  0  0
    3.1999    3.7742  -11.1141 C   0  0  0  0  0  0  0  0  0  0  0  0
    3.9048    3.8015  -12.4797 C   0  0  0  0  0  0  0  0  0  0  0  0
    2.0107    2.8407  -11.4516 C   0  0  0  0  0  0  0  0  0  0  0  0
    0.4792   -3.0814   -5.7538 C   0  0  0  0  0  0  0  0  0  0  0  0
    0.3576   -4.2265   -4.9406 C   0  0  0  0  0  0  0  0  0  0  0  0
    0.5666   -5.5887   -5.4182 C   0  0  0  0  0  0  0  0  0  0  0  0
   -0.0253   -6.0291   -6.6017 C   0  0  0  0  0  0  0  0  0  0  0  0
    0.2140   -7.3045   -7.0686 C   0  0  0  0  0  0  0  0  0  0  0  0
    1.0448   -8.1741   -6.3726 C   0  0  0  0  0  0  0  0  0  0  0  0
    1.3869   -9.5175   -6.9419 C   0  0  0  0  0  0  0  0  0  0  0  0
    2.6521   -9.4009   -7.7961 C   0  0  0  0  0  0  0  0  0  0  0  0
    1.6016   -7.7452   -5.1733 C   0  0  0  0  0  0  0  0  0  0  0  0
    1.3625   -6.4736   -4.6937 C   0  0  0  0  0  0  0  0  0  0  0  0
    0.0143   -3.8910   -3.6329 C   0  0  0  0  0  0  0  0  0  0  0  0
   -0.2313   -4.8448   -2.1813 S   0  0  0  0  0  0  0  0  0  0  0  0
   -0.5842   -3.3858   -1.3194 C   0  0  0  0  0  0  0  0  0  0  0  0
   -0.8672   -2.9628   -0.0135 C   0  0  0  0  0  0  0  0  0  0  0  0
   -0.8873   -3.6732    1.2075 C   0  0  0  0  0  0  0  0  0  0  0  0
   -1.0312   -2.9414    2.4324 C   0  0  0  0  0  0  0  0  0  0  0  0
   -0.9632   -3.7217    3.4994 N   0  0  0  0  0  0  0  0  0  0  0  0
   -0.7439   -5.2478    3.0050 S   0  0  0  0  0  0  0  0  0  0  0  0
   -0.7233   -4.9708    1.4102 N   0  0  0  0  0  0  0  0  0  0  0  0
   -1.2663   -1.5498    2.3732 C   0  0  0  0  0  0  0  0  0  0  0  0
   -1.5246   -0.6146    3.3858 C   0  0  0  0  0  0  0  0  0  0  0  0
   -1.5850   -0.5322    5.1129 S   0  0  0  0  0  0  0  0  0  0  0  0
   -1.9875    1.1652    4.9928 C   0  0  0  0  0  0  0  0  0  0  0  0
   -2.2314    2.1522    5.9592 C   0  0  0  0  0  0  0  0  0  0  0  0
   -2.2430    1.9081    7.3987 C   0  0  0  0  0  0  0  0  0  0  0  0
   -3.2462    2.4369    8.2077 C   0  0  0  0  0  0  0  0  0  0  0  0
   -3.1670    2.3223    9.5804 C   0  0  0  0  0  0  0  0  0  0  0  0
   -2.0920    1.6763   10.1826 C   0  0  0  0  0  0  0  0  0  0  0  0
   -2.0057    1.5719   11.6774 C   0  0  0  0  0  0  0  0  0  0  0  0
   -2.7748    0.3471   12.1767 C   0  0  0  0  0  0  0  0  0  0  0  0
   -1.1287    1.0968    9.3686 C   0  0  0  0  0  0  0  0  0  0  0  0
   -1.1982    1.2064    7.9928 C   0  0  0  0  0  0  0  0  0  0  0  0
   -2.5050    3.3831    5.3675 C   0  0  0  0  0  0  0  0  0  0  0  0
   -2.5342    3.2815    3.6085 S   0  0  0  0  0  0  0  0  0  0  0  0
   -2.0933    1.6164    3.6706 C   0  0  0  0  0  0  0  0  0  0  0  0
   -1.8117    0.5997    2.7532 C   0  0  0  0  0  0  0  0  0  0  0  0
   -1.7146    0.4587    1.3953 N   0  0  0  0  0  0  0  0  0  0  0  0
   -1.3556   -0.8536    1.1334 C   0  0  0  0  0  0  0  0  0  0  0  0
   -1.0342   -1.5469   -0.0631 C   0  0  0  0  0  0  0  0  0  0  0  0
   -0.8216   -1.1299   -1.3642 N   0  0  0  0  0  0  0  0  0  0  0  0
   -0.5371   -2.2365   -2.1170 C   0  0  0  0  0  0  0  0  0  0  0  0
   -0.1837   -2.5146   -3.4407 C   0  0  0  0  0  0  0  0  0  0  0  0
    0.0693   -1.6052   -4.8850 S   0  0  0  0  0  0  0  0  0  0  0  0
   -0.5188    0.1840   -1.8867 C   0  0  0  0  0  0  0  0  0  0  0  0
    0.7018    0.7911   -1.2002 C   0  0  0  0  0  0  0  0  0  0  0  0
   -2.3182    1.4486    0.5298 C   0  0  0  0  0  0  0  0  0  0  0  0
   -3.5514    0.8968   -0.1803 C   0  0  0  0  0  0  0  0  0  0  0  0
   -2.7946    4.6448    5.9398 C   0  0  0  0  0  0  0  0  0  0  0  0
   -2.3502    5.1160    7.1397 C   0  0  0  0  0  0  0  0  0  0  0  0
   -1.2247    4.5526    7.9387 C   0  0  0  0  0  0  0  0  0  0  0  0
   -0.3699    3.7790    7.5621 O   0  0  0  0  0  0  0  0  0  0  0  0
   -1.2929    5.2476    9.2263 C   0  0  0  0  0  0  0  0  0  0  0  0
   -2.2471    6.2417    9.1548 C   0  0  0  0  0  0  0  0  0  0  0  0
   -2.4206    7.1374   10.6168 S   0  0  0  0  0  0  0  0  0  0  0  0
   -1.1855    6.1415   11.3675 C   0  0  0  0  0  0  0  0  0  0  0  0
   -0.7357    6.2438   12.6743 C   0  0  0  0  0  0  0  0  0  0  0  0
    0.2386    5.3637   13.1019 C   0  0  0  0  0  0  0  0  0  0  0  0
    0.7628    4.3939   12.2448 C   0  0  0  0  0  0  0  0  0  0  0  0
    0.3254    4.2872   10.9448 C   0  0  0  0  0  0  0  0  0  0  0  0
   -0.6591    5.1662   10.4892 C   0  0  0  0  0  0  0  0  0  0  0  0
   -2.8939    6.2519    7.8669 C   0  0  0  0  0  0  0  0  0  0  0  0
   -3.8618    7.1458    7.4840 C   0  0  0  0  0  0  0  0  0  0  0  0
   -4.2837    8.1790    8.3466 C   0  0  0  0  0  0  0  0  0  0  0  0
   -4.6421    9.0278    9.0308 N   0  0  0  0  0  0  0  0  0  0  0  0
   -4.5179    7.1565    6.2392 C   0  0  0  0  0  0  0  0  0  0  0  0
   -5.0915    7.2089    5.2453 N   0  0  0  0  0  0  0  0  0  0  0  0
    1.3035   -4.1320   -7.3457 H   0  0  0  0  0  0  0  0  0  0  0  0
    0.7793    2.0064   -8.5958 H   0  0  0  0  0  0  0  0  0  0  0  0
    2.8626   -1.2936  -11.8234 H   0  0  0  0  0  0  0  0  0  0  0  0
    2.1960    1.6770  -13.4082 H   0  0  0  0  0  0  0  0  0  0  0  0
    4.6774    1.8733  -13.3576 H   0  0  0  0  0  0  0  0  0  0  0  0
    5.4242    1.2800  -10.9234 H   0  0  0  0  0  0  0  0  0  0  0  0
    4.3354    3.0460   -9.2651 H   0  0  0  0  0  0  0  0  0  0  0  0
    2.9157    4.7286  -10.6783 H   0  0  0  0  0  0  0  0  0  0  0  0
    4.8394    4.3600  -12.4599 H   0  0  0  0  0  0  0  0  0  0  0  0
    3.2731    4.1696  -13.2869 H   0  0  0  0  0  0  0  0  0  0  0  0
    1.1357    3.3899  -11.7937 H   0  0  0  0  0  0  0  0  0  0  0  0
   -0.6905   -5.3714   -7.1433 H   0  0  0  0  0  0  0  0  0  0  0  0
   -0.2423   -7.6275   -7.9924 H   0  0  0  0  0  0  0  0  0  0  0  0
    0.5648   -9.8786   -7.5627 H   0  0  0  0  0  0  0  0  0  0  0  0
    1.5537  -10.2375   -6.1379 H   0  0  0  0  0  0  0  0  0  0  0  0
    2.8795  -10.3515   -8.2728 H   0  0  0  0  0  0  0  0  0  0  0  0
    2.5165   -8.6431   -8.5634 H   0  0  0  0  0  0  0  0  0  0  0  0
    3.4984   -9.1089   -7.1786 H   0  0  0  0  0  0  0  0  0  0  0  0
    2.2389   -8.4140   -4.6128 H   0  0  0  0  0  0  0  0  0  0  0  0
    1.8180   -6.1464   -3.7709 H   0  0  0  0  0  0  0  0  0  0  0  0
   -4.0868    2.9441    7.7550 H   0  0  0  0  0  0  0  0  0  0  0  0
   -3.9437    2.7516   10.1979 H   0  0  0  0  0  0  0  0  0  0  0  0
   -0.9604    1.4908   11.9816 H   0  0  0  0  0  0  0  0  0  0  0  0
   -2.4221    2.4726   12.1343 H   0  0  0  0  0  0  0  0  0  0  0  0
   -3.8225    0.4159   11.8933 H   0  0  0  0  0  0  0  0  0  0  0  0
   -2.3623   -0.5605   11.7420 H   0  0  0  0  0  0  0  0  0  0  0  0
   -2.7116    0.2745   13.2599 H   0  0  0  0  0  0  0  0  0  0  0  0
   -0.2989    0.5704    9.8180 H   0  0  0  0  0  0  0  0  0  0  0  0
   -0.4168    0.7911    7.3762 H   0  0  0  0  0  0  0  0  0  0  0  0
   -1.3891    0.8363   -1.8133 H   0  0  0  0  0  0  0  0  0  0  0  0
   -0.3051    0.0536   -2.9501 H   0  0  0  0  0  0  0  0  0  0  0  0
    1.5728    0.1628   -1.3713 H   0  0  0  0  0  0  0  0  0  0  0  0
    0.5520    0.8777   -0.1265 H   0  0  0  0  0  0  0  0  0  0  0  0
    0.9026    1.7775   -1.6090 H   0  0  0  0  0  0  0  0  0  0  0  0
   -1.5873    1.8397   -0.1789 H   0  0  0  0  0  0  0  0  0  0  0  0
   -2.6164    2.2806    1.1726 H   0  0  0  0  0  0  0  0  0  0  0  0
   -3.9738    1.6577   -0.8309 H   0  0  0  0  0  0  0  0  0  0  0  0
   -4.3041    0.6099    0.5505 H   0  0  0  0  0  0  0  0  0  0  0  0
   -3.3067    0.0207   -0.7761 H   0  0  0  0  0  0  0  0  0  0  0  0
   -3.4409    5.2795    5.3438 H   0  0  0  0  0  0  0  0  0  0  0  0
   -1.1417    6.9930   13.3358 H   0  0  0  0  0  0  0  0  0  0  0  0
    0.6006    5.4265   14.1168 H   0  0  0  0  0  0  0  0  0  0  0  0
    1.5236    3.7221   12.6127 H   0  0  0  0  0  0  0  0  0  0  0  0
    0.7177    3.5464   10.2661 H   0  0  0  0  0  0  0  0  0  0  0  0
  1  2  2  0  0  0  0
  2  3  1  0  0  0  0
  3  4  2  0  0  0  0
  3  5  1  0  0  0  0
  5  6  2  0  0  0  0
  6  7  1  0  0  0  0
  7  8  2  0  0  0  0
  8  9  1  0  0  0  0
  9 10  2  0  0  0  0
 10 11  1  0  0  0  0
 11 12  2  0  0  0  0
 12 13  1  0  0  0  0
 13 14  3  0  0  0  0
 12 15  1  0  0  0  0
 15 16  3  0  0  0  0
  8 17  1  0  0  0  0
 17 18  1  0  0  0  0
 18 19  1  0  0  0  0
 19 20  2  0  0  0  0
 20 21  1  0  0  0  0
 21 22  1  0  0  0  0
 21 23  1  0  0  0  0
  1 24  1  0  0  0  0
 24 25  2  0  0  0  0
 25 26  1  0  0  0  0
 26 27  2  0  0  0  0
 27 28  1  0  0  0  0
 28 29  2  0  0  0  0
 29 30  1  0  0  0  0
 30 31  1  0  0  0  0
 29 32  1  0  0  0  0
 32 33  2  0  0  0  0
 25 34  1  0  0  0  0
 34 35  1  0  0  0  0
 35 36  1  0  0  0  0
 36 37  1  0  0  0  0
 37 38  1  0  0  0  0
 38 39  1  0  0  0  0
 39 40  2  0  0  0  0
 40 41  1  0  0  0  0
 41 42  1  0  0  0  0
 39 43  1  0  0  0  0
 43 44  1  0  0  0  0
 44 45  1  0  0  0  0
 45 46  1  0  0  0  0
 46 47  1  0  0  0  0
 47 48  1  0  0  0  0
 48 49  2  0  0  0  0
 49 50  1  0  0  0  0
 50 51  2  0  0  0  0
 51 52  1  0  0  0  0
 52 53  1  0  0  0  0
 51 54  1  0  0  0  0
 54 55  2  0  0  0  0
 47 56  2  0  0  0  0
 56 57  1  0  0  0  0
 57 58  1  0  0  0  0
 58 59  1  0  0  0  0
 59 60  1  0  0  0  0
 60 61  1  0  0  0  0
 61 62  1  0  0  0  0
 62 63  1  0  0  0  0
 63 64  1  0  0  0  0
 64 65  1  0  0  0  0
 65 66  1  0  0  0  0
 63 67  1  0  0  0  0
 67 68  1  0  0  0  0
 60 69  1  0  0  0  0
 69 70  1  0  0  0  0
 56 71  1  0  0  0  0
 71 72  2  0  0  0  0
 72 73  1  0  0  0  0
 73 74  2  0  0  0  0
 73 75  1  0  0  0  0
 75 76  2  0  0  0  0
 76 77  1  0  0  0  0
 77 78  1  0  0  0  0
 78 79  2  0  0  0  0
 79 80  1  0  0  0  0
 80 81  2  0  0  0  0
 81 82  1  0  0  0  0
 82 83  2  0  0  0  0
 76 84  1  0  0  0  0
 84 85  2  0  0  0  0
 85 86  1  0  0  0  0
 86 87  3  0  0  0  0
 85 88  1  0  0  0  0
 88 89  3  0  0  0  0
 11  2  1  0  0  0  0
 23 17  1  0  0  0  0
 66 24  1  0  0  0  0
 84 72  1  0  0  0  0
 10  5  1  0  0  0  0
 22 18  1  0  0  0  0
 33 26  1  0  0  0  0
 65 34  2  0  0  0  0
 83 75  1  0  0  0  0
 23  7  1  0  0  0  0
 64 36  2  0  0  0  0
 83 78  1  0  0  0  0
 62 37  2  0  0  0  0
 42 38  2  0  0  0  0
 61 43  2  0  0  0  0
 59 44  2  0  0  0  0
 58 46  2  0  0  0  0
 55 48  1  0  0  0  0
  1 90  1  0  0  0  0
  6 91  1  0  0  0  0
  9 92  1  0  0  0  0
 17 93  1  0  0  0  0
 18 94  1  0  0  0  0
 19 95  1  0  0  0  0
 20 96  1  0  0  0  0
 21 97  1  0  0  0  0
 22 98  1  0  0  0  0
 22 99  1  0  0  0  0
 23100  1  0  0  0  0
 27101  1  0  0  0  0
 28102  1  0  0  0  0
 30103  1  0  0  0  0
 30104  1  0  0  0  0
 31105  1  0  0  0  0
 31106  1  0  0  0  0
 31107  1  0  0  0  0
 32108  1  0  0  0  0
 33109  1  0  0  0  0
 49110  1  0  0  0  0
 50111  1  0  0  0  0
 52112  1  0  0  0  0
 52113  1  0  0  0  0
 53114  1  0  0  0  0
 53115  1  0  0  0  0
 53116  1  0  0  0  0
 54117  1  0  0  0  0
 55118  1  0  0  0  0
 67119  1  0  0  0  0
 67120  1  0  0  0  0
 68121  1  0  0  0  0
 68122  1  0  0  0  0
 68123  1  0  0  0  0
 69124  1  0  0  0  0
 69125  1  0  0  0  0
 70126  1  0  0  0  0
 70127  1  0  0  0  0
 70128  1  0  0  0  0
 71129  1  0  0  0  0
 79130  1  0  0  0  0
 80131  1  0  0  0  0
 81132  1  0  0  0  0
 82133  1  0  0  0  0
M  END
