
  xtb     02102222453D
 energy: -272.063565187354 gnorm: 0.000897945144 xtb: 6.4.1 (unknown)
139155  0     0  0            999 V2000
   -5.0413    3.6082    2.2713 C   0  0  0  0  0  0  0  0  0  0  0  0
   -5.9955    3.6540    1.3047 C   0  0  0  0  0  0  0  0  0  0  0  0
   -6.9370    4.8042    1.2404 C   0  0  0  0  0  0  0  0  0  0  0  0
   -7.1418    5.6207    2.1098 O   0  0  0  0  0  0  0  0  0  0  0  0
   -7.5059    4.7609   -0.1207 C   0  0  0  0  0  0  0  0  0  0  0  0
   -8.3416    5.7041   -0.7158 C   0  0  0  0  0  0  0  0  0  0  0  0
   -8.6932    5.4039   -2.0100 C   0  0  0  0  0  0  0  0  0  0  0  0
   -8.2422    4.2543   -2.6740 C   0  0  0  0  0  0  0  0  0  0  0  0
   -7.4207    3.3133   -2.1006 C   0  0  0  0  0  0  0  0  0  0  0  0
   -7.0586    3.5958   -0.7806 C   0  0  0  0  0  0  0  0  0  0  0  0
   -6.2502    2.8170    0.1518 C   0  0  0  0  0  0  0  0  0  0  0  0
   -6.0143    1.4688    0.0719 C   0  0  0  0  0  0  0  0  0  0  0  0
   -5.5078    0.7094    1.1472 C   0  0  0  0  0  0  0  0  0  0  0  0
   -5.1457    0.0480    2.0134 N   0  0  0  0  0  0  0  0  0  0  0  0
   -6.3102    0.6737   -1.0519 C   0  0  0  0  0  0  0  0  0  0  0  0
   -6.4935   -0.0191   -1.9493 N   0  0  0  0  0  0  0  0  0  0  0  0
   -8.9830    4.5988   -3.9417 C   0  0  0  0  0  0  0  0  0  0  0  0
  -10.2882    3.8194   -4.2096 C   0  0  0  0  0  0  0  0  0  0  0  0
  -11.0195    4.6757   -5.2181 C   0  0  0  0  0  0  0  0  0  0  0  0
  -11.4494    5.7620   -4.5889 C   0  0  0  0  0  0  0  0  0  0  0  0
  -11.0159    5.6582   -3.1443 C   0  0  0  0  0  0  0  0  0  0  0  0
  -11.1051    4.1389   -2.9509 C   0  0  0  0  0  0  0  0  0  0  0  0
   -9.4890    5.8779   -3.2004 C   0  0  0  0  0  0  0  0  0  0  0  0
   -3.8377    2.8655    2.2913 C   0  0  0  0  0  0  0  0  0  0  0  0
   -3.0936    2.5315    3.4136 C   0  0  0  0  0  0  0  0  0  0  0  0
   -3.5080    2.8090    4.8189 C   0  0  0  0  0  0  0  0  0  0  0  0
   -4.5737    1.8076    5.2712 C   0  0  0  0  0  0  0  0  0  0  0  0
   -1.9569    1.7909    3.0679 C   0  0  0  0  0  0  0  0  0  0  0  0
   -0.6975    1.0445    4.0230 S   0  0  0  0  0  0  0  0  0  0  0  0
    0.0201    0.4522    2.5682 C   0  0  0  0  0  0  0  0  0  0  0  0
    1.0882   -0.3651    2.1671 C   0  0  0  0  0  0  0  0  0  0  0  0
    2.0365   -1.0604    2.9565 C   0  0  0  0  0  0  0  0  0  0  0  0
    2.9325   -1.9421    2.3005 C   0  0  0  0  0  0  0  0  0  0  0  0
    3.7145   -2.7533    3.0077 N   0  0  0  0  0  0  0  0  0  0  0  0
    3.7077   -2.6522    4.3255 C   0  0  0  0  0  0  0  0  0  0  0  0
    4.4637   -3.6813    5.0471 C   0  0  0  0  0  0  0  0  0  0  0  0
    3.9996   -4.2191    6.2472 C   0  0  0  0  0  0  0  0  0  0  0  0
    4.7222   -5.2016    6.8924 C   0  0  0  0  0  0  0  0  0  0  0  0
    5.9137   -5.6578    6.3387 C   0  0  0  0  0  0  0  0  0  0  0  0
    6.6807   -6.7178    7.0758 C   0  0  0  0  0  0  0  0  0  0  0  0
    7.7820   -7.1251    6.4315 F   0  0  0  0  0  0  0  0  0  0  0  0
    5.9398   -7.8201    7.2964 F   0  0  0  0  0  0  0  0  0  0  0  0
    7.0851   -6.2967    8.2896 F   0  0  0  0  0  0  0  0  0  0  0  0
    6.3738   -5.1474    5.1327 C   0  0  0  0  0  0  0  0  0  0  0  0
    5.6449   -4.1667    4.4892 C   0  0  0  0  0  0  0  0  0  0  0  0
    2.9720   -1.6143    4.9629 C   0  0  0  0  0  0  0  0  0  0  0  0
    3.1255   -1.2480    6.3749 C   0  0  0  0  0  0  0  0  0  0  0  0
    2.0102   -0.7955    7.0790 C   0  0  0  0  0  0  0  0  0  0  0  0
    2.1242   -0.4202    8.4018 C   0  0  0  0  0  0  0  0  0  0  0  0
    3.3629   -0.4880    9.0291 C   0  0  0  0  0  0  0  0  0  0  0  0
    3.4743   -0.0534   10.4622 C   0  0  0  0  0  0  0  0  0  0  0  0
    2.4512   -0.4961   11.2133 F   0  0  0  0  0  0  0  0  0  0  0  0
    4.5963   -0.4771   11.0592 F   0  0  0  0  0  0  0  0  0  0  0  0
    3.4672    1.2900   10.5838 F   0  0  0  0  0  0  0  0  0  0  0  0
    4.4870   -0.9083    8.3303 C   0  0  0  0  0  0  0  0  0  0  0  0
    4.3670   -1.2859    7.0073 C   0  0  0  0  0  0  0  0  0  0  0  0
    2.1129   -0.8849    4.2729 N   0  0  0  0  0  0  0  0  0  0  0  0
    2.9598   -1.9272    0.8844 C   0  0  0  0  0  0  0  0  0  0  0  0
    3.8594   -2.5432    0.0035 C   0  0  0  0  0  0  0  0  0  0  0  0
    5.2376   -3.5801    0.0662 S   0  0  0  0  0  0  0  0  0  0  0  0
    5.4131   -3.4078   -1.6651 C   0  0  0  0  0  0  0  0  0  0  0  0
    6.3469   -3.9149   -2.5700 C   0  0  0  0  0  0  0  0  0  0  0  0
    7.4580   -4.8301   -2.1755 C   0  0  0  0  0  0  0  0  0  0  0  0
    6.9944   -6.2887   -2.2305 C   0  0  0  0  0  0  0  0  0  0  0  0
    6.0971   -3.4638   -3.8631 C   0  0  0  0  0  0  0  0  0  0  0  0
    4.6635   -2.4369   -3.9414 S   0  0  0  0  0  0  0  0  0  0  0  0
    4.4306   -2.5878   -2.2419 C   0  0  0  0  0  0  0  0  0  0  0  0
    3.5397   -2.0987   -1.2853 C   0  0  0  0  0  0  0  0  0  0  0  0
    2.4659   -1.2495   -1.2313 N   0  0  0  0  0  0  0  0  0  0  0  0
    2.0756   -1.1427    0.0872 C   0  0  0  0  0  0  0  0  0  0  0  0
    1.0353   -0.4430    0.7456 C   0  0  0  0  0  0  0  0  0  0  0  0
   -0.0564    0.2853    0.3024 N   0  0  0  0  0  0  0  0  0  0  0  0
   -0.6677    0.8192    1.4081 C   0  0  0  0  0  0  0  0  0  0  0  0
   -1.8002    1.5864    1.6920 C   0  0  0  0  0  0  0  0  0  0  0  0
   -3.0731    2.3252    0.7976 S   0  0  0  0  0  0  0  0  0  0  0  0
   -0.8592    0.1304   -0.8929 C   0  0  0  0  0  0  0  0  0  0  0  0
   -1.8524   -1.0208   -0.7387 C   0  0  0  0  0  0  0  0  0  0  0  0
    2.1246   -0.4517   -2.3868 C   0  0  0  0  0  0  0  0  0  0  0  0
    1.3007   -1.2431   -3.4021 C   0  0  0  0  0  0  0  0  0  0  0  0
    6.8082   -3.8123   -5.0270 C   0  0  0  0  0  0  0  0  0  0  0  0
    6.7478   -3.2339   -6.2603 C   0  0  0  0  0  0  0  0  0  0  0  0
    7.1988   -3.9759   -7.4595 C   0  0  0  0  0  0  0  0  0  0  0  0
    7.8528   -4.9906   -7.4823 O   0  0  0  0  0  0  0  0  0  0  0  0
    6.6059   -3.2409   -8.6066 C   0  0  0  0  0  0  0  0  0  0  0  0
    6.5754   -3.5921   -9.9453 C   0  0  0  0  0  0  0  0  0  0  0  0
    7.4118   -4.9620  -10.5230 Cl  0  0  0  0  0  0  0  0  0  0  0  0
    5.8283   -2.7934  -10.8242 C   0  0  0  0  0  0  0  0  0  0  0  0
    5.7831   -3.1758  -12.4903 Cl  0  0  0  0  0  0  0  0  0  0  0  0
    5.0926   -1.7120  -10.3403 C   0  0  0  0  0  0  0  0  0  0  0  0
    4.1177   -0.8091  -11.4172 Cl  0  0  0  0  0  0  0  0  0  0  0  0
    5.1300   -1.3590   -8.9826 C   0  0  0  0  0  0  0  0  0  0  0  0
    4.0912   -0.1171   -8.4169 Cl  0  0  0  0  0  0  0  0  0  0  0  0
    5.9370   -2.0949   -8.1287 C   0  0  0  0  0  0  0  0  0  0  0  0
    6.2401   -1.9528   -6.7059 C   0  0  0  0  0  0  0  0  0  0  0  0
    6.4027   -0.7774   -6.0221 C   0  0  0  0  0  0  0  0  0  0  0  0
    6.9618   -0.7321   -4.7246 C   0  0  0  0  0  0  0  0  0  0  0  0
    7.4428   -0.6510   -3.6859 N   0  0  0  0  0  0  0  0  0  0  0  0
    6.2302    0.5214   -6.5434 C   0  0  0  0  0  0  0  0  0  0  0  0
    6.1711    1.6146   -6.8865 N   0  0  0  0  0  0  0  0  0  0  0  0
   -5.1936    4.2879    3.1046 H   0  0  0  0  0  0  0  0  0  0  0  0
   -8.6632    6.5800   -0.1745 H   0  0  0  0  0  0  0  0  0  0  0  0
   -7.0682    2.4373   -2.6205 H   0  0  0  0  0  0  0  0  0  0  0  0
   -8.3693    4.7207   -4.8322 H   0  0  0  0  0  0  0  0  0  0  0  0
  -10.1486    2.7725   -4.4646 H   0  0  0  0  0  0  0  0  0  0  0  0
  -11.0987    4.4375   -6.2626 H   0  0  0  0  0  0  0  0  0  0  0  0
  -11.9591    6.6124   -5.0025 H   0  0  0  0  0  0  0  0  0  0  0  0
  -11.5406    6.2866   -2.4297 H   0  0  0  0  0  0  0  0  0  0  0  0
  -12.1286    3.7749   -3.0217 H   0  0  0  0  0  0  0  0  0  0  0  0
  -10.6551    3.7811   -2.0266 H   0  0  0  0  0  0  0  0  0  0  0  0
   -9.2139    6.8535   -3.5967 H   0  0  0  0  0  0  0  0  0  0  0  0
   -2.6309    2.7246    5.4635 H   0  0  0  0  0  0  0  0  0  0  0  0
   -3.9043    3.8233    4.9003 H   0  0  0  0  0  0  0  0  0  0  0  0
   -4.8519    2.0001    6.3038 H   0  0  0  0  0  0  0  0  0  0  0  0
   -4.1942    0.7920    5.1934 H   0  0  0  0  0  0  0  0  0  0  0  0
   -5.4602    1.8878    4.6468 H   0  0  0  0  0  0  0  0  0  0  0  0
    3.0651   -3.8795    6.6668 H   0  0  0  0  0  0  0  0  0  0  0  0
    4.3673   -5.6218    7.8210 H   0  0  0  0  0  0  0  0  0  0  0  0
    7.2919   -5.5177    4.7035 H   0  0  0  0  0  0  0  0  0  0  0  0
    5.9790   -3.7636    3.5461 H   0  0  0  0  0  0  0  0  0  0  0  0
    1.0605   -0.7415    6.5706 H   0  0  0  0  0  0  0  0  0  0  0  0
    1.2615   -0.0769    8.9520 H   0  0  0  0  0  0  0  0  0  0  0  0
    5.4477   -0.9388    8.8206 H   0  0  0  0  0  0  0  0  0  0  0  0
    5.2443   -1.5941    6.4596 H   0  0  0  0  0  0  0  0  0  0  0  0
    7.7580   -4.5884   -1.1541 H   0  0  0  0  0  0  0  0  0  0  0  0
    8.3174   -4.6868   -2.8300 H   0  0  0  0  0  0  0  0  0  0  0  0
    6.6888   -6.5580   -3.2389 H   0  0  0  0  0  0  0  0  0  0  0  0
    6.1521   -6.4433   -1.5604 H   0  0  0  0  0  0  0  0  0  0  0  0
    7.8041   -6.9462   -1.9265 H   0  0  0  0  0  0  0  0  0  0  0  0
   -1.4015    1.0693   -1.0386 H   0  0  0  0  0  0  0  0  0  0  0  0
   -0.2329   -0.0420   -1.7599 H   0  0  0  0  0  0  0  0  0  0  0  0
   -1.3246   -1.9592   -0.5807 H   0  0  0  0  0  0  0  0  0  0  0  0
   -2.5126   -0.8499    0.1085 H   0  0  0  0  0  0  0  0  0  0  0  0
   -2.4607   -1.1054   -1.6348 H   0  0  0  0  0  0  0  0  0  0  0  0
    3.0628   -0.1434   -2.8617 H   0  0  0  0  0  0  0  0  0  0  0  0
    1.6158    0.4544   -2.0554 H   0  0  0  0  0  0  0  0  0  0  0  0
    0.4239   -1.6929   -2.9421 H   0  0  0  0  0  0  0  0  0  0  0  0
    1.9038   -2.0407   -3.8279 H   0  0  0  0  0  0  0  0  0  0  0  0
    0.9813   -0.5891   -4.2086 H   0  0  0  0  0  0  0  0  0  0  0  0
    7.4134   -4.7103   -4.9685 H   0  0  0  0  0  0  0  0  0  0  0  0
  1  2  2  0  0  0  0
  2  3  1  0  0  0  0
  3  4  2  0  0  0  0
  3  5  1  0  0  0  0
  5  6  2  0  0  0  0
  6  7  1  0  0  0  0
  7  8  2  0  0  0  0
  8  9  1  0  0  0  0
  9 10  2  0  0  0  0
 10 11  1  0  0  0  0
 11 12  2  0  0  0  0
 12 13  1  0  0  0  0
 13 14  3  0  0  0  0
 12 15  1  0  0  0  0
 15 16  3  0  0  0  0
  8 17  1  0  0  0  0
 17 18  1  0  0  0  0
 18 19  1  0  0  0  0
 19 20  2  0  0  0  0
 20 21  1  0  0  0  0
 21 22  1  0  0  0  0
 21 23  1  0  0  0  0
  1 24  1  0  0  0  0
 24 25  2  0  0  0  0
 25 26  1  0  0  0  0
 26 27  1  0  0  0  0
 25 28  1  0  0  0  0
 28 29  1  0  0  0  0
 29 30  1  0  0  0  0
 30 31  1  0  0  0  0
 31 32  2  0  0  0  0
 32 33  1  0  0  0  0
 33 34  1  0  0  0  0
 34 35  2  0  0  0  0
 35 36  1  0  0  0  0
 36 37  2  0  0  0  0
 37 38  1  0  0  0  0
 38 39  2  0  0  0  0
 39 40  1  0  0  0  0
 40 41  1  0  0  0  0
 40 42  1  0  0  0  0
 40 43  1  0  0  0  0
 39 44  1  0  0  0  0
 44 45  2  0  0  0  0
 35 46  1  0  0  0  0
 46 47  1  0  0  0  0
 47 48  2  0  0  0  0
 48 49  1  0  0  0  0
 49 50  2  0  0  0  0
 50 51  1  0  0  0  0
 51 52  1  0  0  0  0
 51 53  1  0  0  0  0
 51 54  1  0  0  0  0
 50 55  1  0  0  0  0
 55 56  2  0  0  0  0
 46 57  2  0  0  0  0
 33 58  2  0  0  0  0
 58 59  1  0  0  0  0
 59 60  1  0  0  0  0
 60 61  1  0  0  0  0
 61 62  1  0  0  0  0
 62 63  1  0  0  0  0
 63 64  1  0  0  0  0
 62 65  2  0  0  0  0
 65 66  1  0  0  0  0
 66 67  1  0  0  0  0
 67 68  1  0  0  0  0
 68 69  1  0  0  0  0
 69 70  1  0  0  0  0
 70 71  2  0  0  0  0
 71 72  1  0  0  0  0
 72 73  1  0  0  0  0
 73 74  1  0  0  0  0
 74 75  1  0  0  0  0
 72 76  1  0  0  0  0
 76 77  1  0  0  0  0
 69 78  1  0  0  0  0
 78 79  1  0  0  0  0
 65 80  1  0  0  0  0
 80 81  2  0  0  0  0
 81 82  1  0  0  0  0
 82 83  2  0  0  0  0
 82 84  1  0  0  0  0
 84 85  2  0  0  0  0
 85 86  1  0  0  0  0
 85 87  1  0  0  0  0
 87 88  1  0  0  0  0
 87 89  2  0  0  0  0
 89 90  1  0  0  0  0
 89 91  1  0  0  0  0
 91 92  1  0  0  0  0
 91 93  2  0  0  0  0
 93 94  1  0  0  0  0
 94 95  2  0  0  0  0
 95 96  1  0  0  0  0
 96 97  3  0  0  0  0
 95 98  1  0  0  0  0
 98 99  3  0  0  0  0
 11  2  1  0  0  0  0
 23 17  1  0  0  0  0
 75 24  1  0  0  0  0
 94 81  1  0  0  0  0
 10  5  1  0  0  0  0
 22 18  1  0  0  0  0
 74 28  2  0  0  0  0
 93 84  1  0  0  0  0
 23  7  1  0  0  0  0
 73 30  2  0  0  0  0
 71 31  1  0  0  0  0
 57 32  1  0  0  0  0
 70 58  1  0  0  0  0
 45 36  1  0  0  0  0
 56 47  1  0  0  0  0
 68 59  2  0  0  0  0
 67 61  2  0  0  0  0
  1100  1  0  0  0  0
  6101  1  0  0  0  0
  9102  1  0  0  0  0
 17103  1  0  0  0  0
 18104  1  0  0  0  0
 19105  1  0  0  0  0
 20106  1  0  0  0  0
 21107  1  0  0  0  0
 22108  1  0  0  0  0
 22109  1  0  0  0  0
 23110  1  0  0  0  0
 26111  1  0  0  0  0
 26112  1  0  0  0  0
 27113  1  0  0  0  0
 27114  1  0  0  0  0
 27115  1  0  0  0  0
 37116  1  0  0  0  0
 38117  1  0  0  0  0
 44118  1  0  0  0  0
 45119  1  0  0  0  0
 48120  1  0  0  0  0
 49121  1  0  0  0  0
 55122  1  0  0  0  0
 56123  1  0  0  0  0
 63124  1  0  0  0  0
 63125  1  0  0  0  0
 64126  1  0  0  0  0
 64127  1  0  0  0  0
 64128  1  0  0  0  0
 76129  1  0  0  0  0
 76130  1  0  0  0  0
 77131  1  0  0  0  0
 77132  1  0  0  0  0
 77133  1  0  0  0  0
 78134  1  0  0  0  0
 78135  1  0  0  0  0
 79136  1  0  0  0  0
 79137  1  0  0  0  0
 79138  1  0  0  0  0
 80139  1  0  0  0  0
M  END
