104

C         -3.49300        4.62520       -1.89200
C         -4.61320        4.14530       -1.26140
C         -4.65580        3.07980       -0.25660
O         -3.72950        2.38520        0.12990
C         -6.04790        3.01100        0.21740
C         -6.55770        2.17300        1.20590
C         -7.89760        2.35150        1.45370
C         -8.67190        3.30070        0.77360
C         -8.18110        4.13220       -0.20500
C         -6.82190        3.96030       -0.48010
C         -5.96000        4.65130       -1.43840
C         -6.38320        5.58080       -2.35480
C         -5.57090        6.22890       -3.30800
N         -4.98350        6.79620       -4.11690
C         -7.71870        6.01150       -2.49780
N         -8.78070        6.40980       -2.67750
C         -9.92500        2.93850        1.53040
C        -10.98170        2.07180        0.80230
C        -10.23570        1.26960       -0.23470
C         -9.50240        0.36670        0.40270
C         -9.73990        0.54180        1.88240
C        -11.21020        0.98950        1.86950
C         -9.06360        1.87630        2.28370
C         -2.15070        4.23980       -1.79940
C         -1.12080        4.88420       -2.50550
C         -1.28940        6.00890       -3.47380
C         -1.64780        5.47720       -4.86420
C          0.11330        4.30650       -2.23880
C          0.06120        3.22290       -1.34540
S         -1.54650        2.91330       -0.80510
C          1.33690        2.69700       -1.12050
C          2.33440        3.39340       -1.81540
S          1.73340        4.68640       -2.79310
C          3.56180        2.82880       -1.44670
C          4.88860        3.23390       -1.71410
N          5.31000        4.23360       -2.47200
S          6.92240        4.32180       -2.35540
N          7.14520        3.08520       -1.33460
C          5.96520        2.55810       -1.05020
C          5.67480        1.42180       -0.26170
C          6.52020        0.49570        0.36340
S          8.20980        0.24540        0.64110
C          7.82300       -1.27580        1.41930
C          8.59170       -2.26990        1.99490
C          7.82740       -3.33570        2.47120
S          6.10920       -3.07790        2.19570
C          6.44270       -1.55680        1.45540
C          5.70590       -0.52960        0.86010
N          4.38750       -0.25070        0.60570
C          3.44600       -1.35060        0.59440
C          3.36400       -1.98140       -0.79390
C          4.34070        0.95290       -0.07810
C          3.26920        1.74750       -0.56290
N          1.90430        1.70820       -0.36210
C          1.12760        1.06780        0.67540
C          0.22300       -0.03340        0.12470
C          8.40830       -4.45700        3.08270
C          7.83500       -5.60040        3.57040
C          6.39930       -5.93590        3.55130
O          5.48030       -5.25170        3.13770
C          6.30520       -7.27680        4.13710
C          7.57840       -7.70470        4.49260
S          7.61440       -9.27940        5.19730
C          5.89080       -9.38510        5.01650
C          4.93640      -10.37230        5.32450
C          3.68610       -9.96600        4.97790
S          3.62600       -8.38640        4.27350
C          5.33320       -8.23810        4.43600
C          8.56310       -6.70870        4.17250
C          9.90870       -6.83890        4.41510
C         10.89990       -5.88440        4.12310
N         11.75690       -5.14890        3.91190
C         10.42100       -8.00860        5.01380
N         10.84640       -8.95770        5.49880
H         -3.65110        5.45220       -2.57070
H         -5.92310        1.46170        1.71120
H         -8.79070        4.85990       -0.71380
H        -10.37520        3.73760        2.11600
H        -11.85100        2.62080        0.45060
H        -10.27230        1.47300       -1.28890
H         -8.80330       -0.33530       -0.01280
H         -9.47950       -0.30380        2.51370
H        -11.55130        1.38680        2.82450
H        -11.88660        0.20440        1.53490
H         -8.95590        1.97850        3.36200
H         -2.06210        6.70350       -3.14200
H         -0.34370        6.55160       -3.53260
H         -1.74300        6.30470       -5.56100
H         -0.87270        4.80380       -5.22260
H         -2.59310        4.94060       -4.83860
H          9.66360       -2.24780        2.07260
H          2.46160       -1.03060        0.92040
H          3.81500       -2.08780        1.31170
H          2.66670       -2.81440       -0.78040
H          3.03050       -1.25090       -1.52870
H          4.34010       -2.35260       -1.09730
H          0.49400        1.83620        1.13220
H          1.80670        0.70240        1.44700
H         -0.25600       -0.55900        0.94590
H          0.78040       -0.74630       -0.47670
H         -0.55430        0.40360       -0.49590
H          9.48680       -4.38430        3.16010
H          5.16540      -11.32070        5.77300
H          2.76970      -10.50990        5.09450
