
  xtb     02112201063D
 energy: -189.146022437906 gnorm: 0.000239571236 xtb: 6.4.1 (unknown)
104119  0     0  0            999 V2000
   -5.3655    1.6708    5.1443 C   0  0  0  0  0  0  0  0  0  0  0  0
   -4.8721    2.8664    5.6098 C   0  0  0  0  0  0  0  0  0  0  0  0
   -3.7798    3.6186    5.0081 C   0  0  0  0  0  0  0  0  0  0  0  0
   -3.1058    3.2951    4.0345 O   0  0  0  0  0  0  0  0  0  0  0  0
   -3.6322    4.8550    5.7855 C   0  0  0  0  0  0  0  0  0  0  0  0
   -2.7311    5.8929    5.5565 C   0  0  0  0  0  0  0  0  0  0  0  0
   -2.8331    6.9280    6.4546 C   0  0  0  0  0  0  0  0  0  0  0  0
   -3.7627    6.9305    7.5027 C   0  0  0  0  0  0  0  0  0  0  0  0
   -4.6603    5.9146    7.7363 C   0  0  0  0  0  0  0  0  0  0  0  0
   -4.5743    4.8498    6.8352 C   0  0  0  0  0  0  0  0  0  0  0  0
   -5.3508    3.6110    6.7586 C   0  0  0  0  0  0  0  0  0  0  0  0
   -6.3267    3.2333    7.6441 C   0  0  0  0  0  0  0  0  0  0  0  0
   -7.0656    2.0324    7.5931 C   0  0  0  0  0  0  0  0  0  0  0  0
   -7.7095    1.0817    7.6310 N   0  0  0  0  0  0  0  0  0  0  0  0
   -6.7294    3.9934    8.7625 C   0  0  0  0  0  0  0  0  0  0  0  0
   -7.1082    4.5522    9.6912 N   0  0  0  0  0  0  0  0  0  0  0  0
   -3.3034    8.2733    8.0136 C   0  0  0  0  0  0  0  0  0  0  0  0
   -2.4010    8.2637    9.2659 C   0  0  0  0  0  0  0  0  0  0  0  0
   -1.7363    9.6213    9.2414 C   0  0  0  0  0  0  0  0  0  0  0  0
   -0.8583    9.6227    8.2466 C   0  0  0  0  0  0  0  0  0  0  0  0
   -0.9144    8.2659    7.5821 C   0  0  0  0  0  0  0  0  0  0  0  0
   -1.2302    7.3884    8.8002 C   0  0  0  0  0  0  0  0  0  0  0  0
   -2.2689    8.2721    6.8425 C   0  0  0  0  0  0  0  0  0  0  0  0
   -4.9444    0.8659    4.0781 C   0  0  0  0  0  0  0  0  0  0  0  0
   -5.5940   -0.3363    3.7839 C   0  0  0  0  0  0  0  0  0  0  0  0
   -5.0414   -1.0655    2.7487 C   0  0  0  0  0  0  0  0  0  0  0  0
   -5.4870   -2.6301    2.0887 S   0  0  0  0  0  0  0  0  0  0  0  0
   -4.1348   -2.5301    1.0160 C   0  0  0  0  0  0  0  0  0  0  0  0
   -3.4524   -3.3285    0.0892 C   0  0  0  0  0  0  0  0  0  0  0  0
   -3.6291   -4.6800   -0.2863 C   0  0  0  0  0  0  0  0  0  0  0  0
   -2.6144   -5.3203   -1.0742 C   0  0  0  0  0  0  0  0  0  0  0  0
   -2.8672   -6.6033   -1.2765 N   0  0  0  0  0  0  0  0  0  0  0  0
   -4.2646   -6.9736   -0.5482 S   0  0  0  0  0  0  0  0  0  0  0  0
   -4.5989   -5.5109    0.0597 N   0  0  0  0  0  0  0  0  0  0  0  0
   -1.5353   -4.5484   -1.5612 C   0  0  0  0  0  0  0  0  0  0  0  0
   -0.4409   -4.8802   -2.3726 C   0  0  0  0  0  0  0  0  0  0  0  0
    0.2521   -3.6913   -2.6304 C   0  0  0  0  0  0  0  0  0  0  0  0
   -0.3609   -2.6403   -1.9966 N   0  0  0  0  0  0  0  0  0  0  0  0
   -0.1376   -1.3106   -2.5194 C   0  0  0  0  0  0  0  0  0  0  0  0
   -0.6892   -1.1764   -3.9385 C   0  0  0  0  0  0  0  0  0  0  0  0
   -1.4449   -3.1484   -1.3033 C   0  0  0  0  0  0  0  0  0  0  0  0
   -2.3325   -2.5690   -0.3631 C   0  0  0  0  0  0  0  0  0  0  0  0
   -2.3254   -1.3623    0.3061 N   0  0  0  0  0  0  0  0  0  0  0  0
   -3.4093   -1.3378    1.1432 C   0  0  0  0  0  0  0  0  0  0  0  0
   -3.9072   -0.4915    2.1362 C   0  0  0  0  0  0  0  0  0  0  0  0
   -3.4760    1.1520    2.9095 Se  0  0  0  0  0  2  0  0  0  0  0  0
   -1.2802   -0.3790    0.4687 C   0  0  0  0  0  0  0  0  0  0  0  0
   -1.6394    0.9546   -0.1874 C   0  0  0  0  0  0  0  0  0  0  0  0
    1.3799   -3.8687   -3.4323 C   0  0  0  0  0  0  0  0  0  0  0  0
    1.5383   -5.2299   -3.7648 C   0  0  0  0  0  0  0  0  0  0  0  0
    0.2826   -6.2677   -3.1088 S   0  0  0  0  0  0  0  0  0  0  0  0
    2.6501   -5.5281   -4.5292 C   0  0  0  0  0  0  0  0  0  0  0  0
    3.4542   -4.4337   -4.8612 C   0  0  0  0  0  0  0  0  0  0  0  0
    2.7401   -2.8193   -4.1574 Se  0  0  0  0  0  2  0  0  0  0  0  0
    4.6384   -4.6083   -5.5894 C   0  0  0  0  0  0  0  0  0  0  0  0
    5.5808   -3.6968   -6.0011 C   0  0  0  0  0  0  0  0  0  0  0  0
    5.5133   -2.2561   -5.7888 C   0  0  0  0  0  0  0  0  0  0  0  0
    4.6154   -1.6463   -5.2126 O   0  0  0  0  0  0  0  0  0  0  0  0
    6.7182   -1.6813   -6.3995 C   0  0  0  0  0  0  0  0  0  0  0  0
    7.4825   -2.7115   -6.9482 C   0  0  0  0  0  0  0  0  0  0  0  0
    8.6927   -2.4262   -7.5925 C   0  0  0  0  0  0  0  0  0  0  0  0
    9.1076   -1.1213   -7.6729 C   0  0  0  0  0  0  0  0  0  0  0  0
    8.3551   -0.0586   -7.1292 C   0  0  0  0  0  0  0  0  0  0  0  0
    8.7894    1.2800   -7.2189 C   0  0  0  0  0  0  0  0  0  0  0  0
    8.0414    2.2926   -6.6851 C   0  0  0  0  0  0  0  0  0  0  0  0
    6.8266    2.0154   -6.0370 C   0  0  0  0  0  0  0  0  0  0  0  0
    6.3721    0.7303   -5.9290 C   0  0  0  0  0  0  0  0  0  0  0  0
    7.1216   -0.3341   -6.4703 C   0  0  0  0  0  0  0  0  0  0  0  0
    6.8063   -3.9884   -6.7174 C   0  0  0  0  0  0  0  0  0  0  0  0
    7.2755   -5.2167   -7.1037 C   0  0  0  0  0  0  0  0  0  0  0  0
    6.6341   -6.4528   -6.8754 C   0  0  0  0  0  0  0  0  0  0  0  0
    6.1856   -7.5007   -6.7324 N   0  0  0  0  0  0  0  0  0  0  0  0
    8.4891   -5.4316   -7.7913 C   0  0  0  0  0  0  0  0  0  0  0  0
    9.4593   -5.6892   -8.3485 N   0  0  0  0  0  0  0  0  0  0  0  0
   -6.2165    1.2582    5.6744 H   0  0  0  0  0  0  0  0  0  0  0  0
   -2.0343    5.8508    4.7341 H   0  0  0  0  0  0  0  0  0  0  0  0
   -5.3738    5.9391    8.5426 H   0  0  0  0  0  0  0  0  0  0  0  0
   -4.0601    9.0548    8.0409 H   0  0  0  0  0  0  0  0  0  0  0  0
   -2.9036    7.9808   10.1867 H   0  0  0  0  0  0  0  0  0  0  0  0
   -2.0039   10.4321    9.8931 H   0  0  0  0  0  0  0  0  0  0  0  0
   -0.2461   10.4350    7.9011 H   0  0  0  0  0  0  0  0  0  0  0  0
   -0.0618    7.9855    6.9694 H   0  0  0  0  0  0  0  0  0  0  0  0
   -1.5111    6.3669    8.5508 H   0  0  0  0  0  0  0  0  0  0  0  0
   -0.4142    7.3760    9.5209 H   0  0  0  0  0  0  0  0  0  0  0  0
   -2.3382    9.0519    6.0863 H   0  0  0  0  0  0  0  0  0  0  0  0
   -6.4531   -0.6659    4.3438 H   0  0  0  0  0  0  0  0  0  0  0  0
    0.9456   -1.1318   -2.5285 H   0  0  0  0  0  0  0  0  0  0  0  0
   -0.6177   -0.5739   -1.8874 H   0  0  0  0  0  0  0  0  0  0  0  0
   -0.5493   -0.1576   -4.2885 H   0  0  0  0  0  0  0  0  0  0  0  0
   -1.7513   -1.4125   -3.9554 H   0  0  0  0  0  0  0  0  0  0  0  0
   -0.1717   -1.8473   -4.6211 H   0  0  0  0  0  0  0  0  0  0  0  0
   -0.3417   -0.7867    0.0909 H   0  0  0  0  0  0  0  0  0  0  0  0
   -1.1562   -0.2062    1.5467 H   0  0  0  0  0  0  0  0  0  0  0  0
   -2.4443    1.4368    0.3672 H   0  0  0  0  0  0  0  0  0  0  0  0
   -1.9747    0.8226   -1.2140 H   0  0  0  0  0  0  0  0  0  0  0  0
   -0.7769    1.6149   -0.1769 H   0  0  0  0  0  0  0  0  0  0  0  0
    2.8976   -6.5274   -4.8458 H   0  0  0  0  0  0  0  0  0  0  0  0
    4.8239   -5.6445   -5.8488 H   0  0  0  0  0  0  0  0  0  0  0  0
    9.2933   -3.2115   -8.0202 H   0  0  0  0  0  0  0  0  0  0  0  0
   10.0395   -0.8877   -8.1671 H   0  0  0  0  0  0  0  0  0  0  0  0
    9.7244    1.4897   -7.7180 H   0  0  0  0  0  0  0  0  0  0  0  0
    8.3807    3.3153   -6.7585 H   0  0  0  0  0  0  0  0  0  0  0  0
    6.2516    2.8303   -5.6228 H   0  0  0  0  0  0  0  0  0  0  0  0
    5.4406    0.5067   -5.4334 H   0  0  0  0  0  0  0  0  0  0  0  0
  1  2  2  0  0  0  0
  2  3  1  0  0  0  0
  3  4  2  0  0  0  0
  3  5  1  0  0  0  0
  5  6  2  0  0  0  0
  6  7  1  0  0  0  0
  7  8  2  0  0  0  0
  8  9  1  0  0  0  0
  9 10  2  0  0  0  0
 10 11  1  0  0  0  0
 11 12  2  0  0  0  0
 12 13  1  0  0  0  0
 13 14  3  0  0  0  0
 12 15  1  0  0  0  0
 15 16  3  0  0  0  0
  8 17  1  0  0  0  0
 17 18  1  0  0  0  0
 18 19  1  0  0  0  0
 19 20  2  0  0  0  0
 20 21  1  0  0  0  0
 21 22  1  0  0  0  0
 21 23  1  0  0  0  0
  1 24  1  0  0  0  0
 24 25  2  0  0  0  0
 25 26  1  0  0  0  0
 26 27  1  0  0  0  0
 27 28  1  0  0  0  0
 28 29  1  0  0  0  0
 29 30  1  0  0  0  0
 30 31  1  0  0  0  0
 31 32  2  0  0  0  0
 32 33  1  0  0  0  0
 33 34  1  0  0  0  0
 31 35  1  0  0  0  0
 35 36  1  0  0  0  0
 36 37  2  0  0  0  0
 37 38  1  0  0  0  0
 38 39  1  0  0  0  0
 39 40  1  0  0  0  0
 38 41  1  0  0  0  0
 41 42  1  0  0  0  0
 42 43  1  0  0  0  0
 43 44  1  0  0  0  0
 44 45  1  0  0  0  0
 45 46  1  0  0  0  0
 43 47  1  0  0  0  0
 47 48  1  0  0  0  0
 37 49  1  0  0  0  0
 49 50  2  0  0  0  0
 50 51  1  0  0  0  0
 50 52  1  0  0  0  0
 52 53  2  0  0  0  0
 53 54  1  0  0  0  0
 53 55  1  0  0  0  0
 55 56  2  0  0  0  0
 56 57  1  0  0  0  0
 57 58  2  0  0  0  0
 57 59  1  0  0  0  0
 59 60  2  0  0  0  0
 60 61  1  0  0  0  0
 61 62  2  0  0  0  0
 62 63  1  0  0  0  0
 63 64  2  0  0  0  0
 64 65  1  0  0  0  0
 65 66  2  0  0  0  0
 66 67  1  0  0  0  0
 67 68  2  0  0  0  0
 60 69  1  0  0  0  0
 69 70  2  0  0  0  0
 70 71  1  0  0  0  0
 71 72  3  0  0  0  0
 70 73  1  0  0  0  0
 73 74  3  0  0  0  0
 11  2  1  0  0  0  0
 23 17  1  0  0  0  0
 46 24  1  0  0  0  0
 54 49  1  0  0  0  0
 69 56  1  0  0  0  0
 10  5  1  0  0  0  0
 22 18  1  0  0  0  0
 45 26  2  0  0  0  0
 68 59  1  0  0  0  0
 23  7  1  0  0  0  0
 44 28  2  0  0  0  0
 68 63  1  0  0  0  0
 42 29  2  0  0  0  0
 34 30  2  0  0  0  0
 41 35  2  0  0  0  0
 51 36  1  0  0  0  0
  1 75  1  0  0  0  0
  6 76  1  0  0  0  0
  9 77  1  0  0  0  0
 17 78  1  0  0  0  0
 18 79  1  0  0  0  0
 19 80  1  0  0  0  0
 20 81  1  0  0  0  0
 21 82  1  0  0  0  0
 22 83  1  0  0  0  0
 22 84  1  0  0  0  0
 23 85  1  0  0  0  0
 25 86  1  0  0  0  0
 39 87  1  0  0  0  0
 39 88  1  0  0  0  0
 40 89  1  0  0  0  0
 40 90  1  0  0  0  0
 40 91  1  0  0  0  0
 47 92  1  0  0  0  0
 47 93  1  0  0  0  0
 48 94  1  0  0  0  0
 48 95  1  0  0  0  0
 48 96  1  0  0  0  0
 52 97  1  0  0  0  0
 55 98  1  0  0  0  0
 61 99  1  0  0  0  0
 62100  1  0  0  0  0
 64101  1  0  0  0  0
 65102  1  0  0  0  0
 66103  1  0  0  0  0
 67104  1  0  0  0  0
M  END
