
  xtb     02022221053D
 energy: -220.065936783785 gnorm: 0.000438248361 xtb: 6.4.1 (unknown)
127143  0     0  0            999 V2000
    1.3222    5.4618   -4.7682 C   0  0  0  0  0  0  0  0  0  0  0  0
    1.2268    4.8264   -5.9703 C   0  0  0  0  0  0  0  0  0  0  0  0
    0.9701    5.6089   -7.2065 C   0  0  0  0  0  0  0  0  0  0  0  0
    1.0389    6.8117   -7.3317 O   0  0  0  0  0  0  0  0  0  0  0  0
    0.5586    4.6146   -8.2185 C   0  0  0  0  0  0  0  0  0  0  0  0
    0.1125    4.8634   -9.5151 C   0  0  0  0  0  0  0  0  0  0  0  0
   -0.2063    3.7308  -10.2255 C   0  0  0  0  0  0  0  0  0  0  0  0
   -0.1045    2.4413   -9.6857 C   0  0  0  0  0  0  0  0  0  0  0  0
    0.3350    2.1789   -8.4102 C   0  0  0  0  0  0  0  0  0  0  0  0
    0.6777    3.3174   -7.6765 C   0  0  0  0  0  0  0  0  0  0  0  0
    1.2438    3.4285   -6.3351 C   0  0  0  0  0  0  0  0  0  0  0  0
    1.9383    2.4385   -5.6860 C   0  0  0  0  0  0  0  0  0  0  0  0
    1.9746    1.0924   -6.0939 C   0  0  0  0  0  0  0  0  0  0  0  0
    2.0122   -0.0265   -6.3513 N   0  0  0  0  0  0  0  0  0  0  0  0
    2.7676    2.6843   -4.5719 C   0  0  0  0  0  0  0  0  0  0  0  0
    3.4984    2.8522   -3.7018 N   0  0  0  0  0  0  0  0  0  0  0  0
   -0.5829    1.7843  -10.9562 C   0  0  0  0  0  0  0  0  0  0  0  0
    0.5002    1.1237  -11.8353 C   0  0  0  0  0  0  0  0  0  0  0  0
   -0.1582    1.0028  -13.1905 C   0  0  0  0  0  0  0  0  0  0  0  0
   -0.2510    2.2228  -13.7041 C   0  0  0  0  0  0  0  0  0  0  0  0
    0.3437    3.1888  -12.7048 C   0  0  0  0  0  0  0  0  0  0  0  0
    1.4435    2.3032  -12.1050 C   0  0  0  0  0  0  0  0  0  0  0  0
   -0.6916    3.2211  -11.5602 C   0  0  0  0  0  0  0  0  0  0  0  0
    1.1667    4.9211   -3.4743 C   0  0  0  0  0  0  0  0  0  0  0  0
    1.6789    5.4362   -2.2861 C   0  0  0  0  0  0  0  0  0  0  0  0
    2.4207    6.6900   -2.1578 C   0  0  0  0  0  0  0  0  0  0  0  0
    3.6568    6.6967   -1.5172 C   0  0  0  0  0  0  0  0  0  0  0  0
    4.3597    7.8765   -1.3749 C   0  0  0  0  0  0  0  0  0  0  0  0
    3.8476    9.0760   -1.8543 C   0  0  0  0  0  0  0  0  0  0  0  0
    4.5936   10.3629   -1.6563 C   0  0  0  0  0  0  0  0  0  0  0  0
    4.1917   11.0124   -0.3302 C   0  0  0  0  0  0  0  0  0  0  0  0
    2.6036    9.0666   -2.4743 C   0  0  0  0  0  0  0  0  0  0  0  0
    1.8966    7.8910   -2.6296 C   0  0  0  0  0  0  0  0  0  0  0  0
    1.4429    4.5684   -1.2100 C   0  0  0  0  0  0  0  0  0  0  0  0
    1.8943    4.6314    0.4772 S   0  0  0  0  0  0  0  0  0  0  0  0
    1.0857    3.1237    0.7228 C   0  0  0  0  0  0  0  0  0  0  0  0
    0.8026    2.2264    1.7616 C   0  0  0  0  0  0  0  0  0  0  0  0
    1.0569    2.3146    3.1475 C   0  0  0  0  0  0  0  0  0  0  0  0
    0.5387    1.2944    4.0098 C   0  0  0  0  0  0  0  0  0  0  0  0
    0.8003    1.5289    5.2862 N   0  0  0  0  0  0  0  0  0  0  0  0
    1.6336    2.9126    5.3918 S   0  0  0  0  0  0  0  0  0  0  0  0
    1.6896    3.2678    3.8134 N   0  0  0  0  0  0  0  0  0  0  0  0
   -0.1154    0.1834    3.4342 C   0  0  0  0  0  0  0  0  0  0  0  0
   -0.6086   -0.9893    4.0221 C   0  0  0  0  0  0  0  0  0  0  0  0
   -0.7680   -1.7003    5.5906 S   0  0  0  0  0  0  0  0  0  0  0  0
   -1.4526   -3.1273    4.8370 C   0  0  0  0  0  0  0  0  0  0  0  0
   -1.8901   -4.3475    5.3469 C   0  0  0  0  0  0  0  0  0  0  0  0
   -1.8042   -4.7337    6.7507 C   0  0  0  0  0  0  0  0  0  0  0  0
   -2.2213   -3.8609    7.7532 C   0  0  0  0  0  0  0  0  0  0  0  0
   -2.1609   -4.2439    9.0778 C   0  0  0  0  0  0  0  0  0  0  0  0
   -1.6701   -5.4928    9.4400 C   0  0  0  0  0  0  0  0  0  0  0  0
   -1.6850   -5.9446   10.8690 C   0  0  0  0  0  0  0  0  0  0  0  0
   -3.0006   -6.6703   11.1625 C   0  0  0  0  0  0  0  0  0  0  0  0
   -1.2175   -6.3450    8.4399 C   0  0  0  0  0  0  0  0  0  0  0  0
   -1.2811   -5.9751    7.1131 C   0  0  0  0  0  0  0  0  0  0  0  0
   -2.3929   -5.1818    4.3284 C   0  0  0  0  0  0  0  0  0  0  0  0
   -2.2205   -4.4573    2.7321 S   0  0  0  0  0  0  0  0  0  0  0  0
   -1.5480   -3.0347    3.4386 C   0  0  0  0  0  0  0  0  0  0  0  0
   -1.0568   -1.8081    2.9809 C   0  0  0  0  0  0  0  0  0  0  0  0
   -0.8767   -1.1817    1.7734 N   0  0  0  0  0  0  0  0  0  0  0  0
   -0.3019    0.0548    2.0255 C   0  0  0  0  0  0  0  0  0  0  0  0
    0.0673    1.1445    1.1917 C   0  0  0  0  0  0  0  0  0  0  0  0
   -0.1282    1.4192   -0.1490 N   0  0  0  0  0  0  0  0  0  0  0  0
    0.4958    2.6027   -0.4346 C   0  0  0  0  0  0  0  0  0  0  0  0
    0.6926    3.4330   -1.5402 C   0  0  0  0  0  0  0  0  0  0  0  0
    0.2829    3.4178   -3.2142 S   0  0  0  0  0  0  0  0  0  0  0  0
   -1.0200    0.8400   -1.1268 C   0  0  0  0  0  0  0  0  0  0  0  0
   -0.2662    0.0383   -2.1872 C   0  0  0  0  0  0  0  0  0  0  0  0
   -0.7985   -2.0235    0.5972 C   0  0  0  0  0  0  0  0  0  0  0  0
    0.6167   -2.5676    0.4132 C   0  0  0  0  0  0  0  0  0  0  0  0
   -3.0633   -6.3782    4.6042 C   0  0  0  0  0  0  0  0  0  0  0  0
   -3.6415   -7.2977    3.7657 C   0  0  0  0  0  0  0  0  0  0  0  0
   -3.6511   -7.2512    2.2925 C   0  0  0  0  0  0  0  0  0  0  0  0
   -3.1440   -6.4116    1.5688 O   0  0  0  0  0  0  0  0  0  0  0  0
   -4.4047   -8.4343    1.8941 C   0  0  0  0  0  0  0  0  0  0  0  0
   -4.9051   -9.1476    0.4243 S   0  0  0  0  0  0  0  0  0  0  0  0
   -5.6791  -10.4147    1.3015 C   0  0  0  0  0  0  0  0  0  0  0  0
   -5.5621  -10.3026    2.6556 C   0  0  0  0  0  0  0  0  0  0  0  0
   -4.8238   -9.1551    3.0035 C   0  0  0  0  0  0  0  0  0  0  0  0
   -4.3582   -8.4813    4.2030 C   0  0  0  0  0  0  0  0  0  0  0  0
   -4.5816   -8.9338    5.4785 C   0  0  0  0  0  0  0  0  0  0  0  0
   -5.3095  -10.1178    5.7206 C   0  0  0  0  0  0  0  0  0  0  0  0
   -5.8961  -11.0795    5.9409 N   0  0  0  0  0  0  0  0  0  0  0  0
   -4.1451   -8.3355    6.6763 C   0  0  0  0  0  0  0  0  0  0  0  0
   -3.8290   -7.9279    7.7034 N   0  0  0  0  0  0  0  0  0  0  0  0
    1.4925    6.5313   -4.8254 H   0  0  0  0  0  0  0  0  0  0  0  0
    0.0428    5.8711   -9.8936 H   0  0  0  0  0  0  0  0  0  0  0  0
    0.4031    1.1850   -7.9989 H   0  0  0  0  0  0  0  0  0  0  0  0
   -1.4872    1.1846  -10.8714 H   0  0  0  0  0  0  0  0  0  0  0  0
    0.9350    0.2194  -11.4185 H   0  0  0  0  0  0  0  0  0  0  0  0
   -0.5266    0.0799  -13.5985 H   0  0  0  0  0  0  0  0  0  0  0  0
   -0.7125    2.5224  -14.6267 H   0  0  0  0  0  0  0  0  0  0  0  0
    0.6362    4.1649  -13.0824 H   0  0  0  0  0  0  0  0  0  0  0  0
    2.2144    2.0552  -12.8327 H   0  0  0  0  0  0  0  0  0  0  0  0
    1.9071    2.7146  -11.2104 H   0  0  0  0  0  0  0  0  0  0  0  0
   -1.6683    3.5797  -11.8801 H   0  0  0  0  0  0  0  0  0  0  0  0
    4.0723    5.7690   -1.1543 H   0  0  0  0  0  0  0  0  0  0  0  0
    5.3230    7.8663   -0.8857 H   0  0  0  0  0  0  0  0  0  0  0  0
    5.6682   10.1710   -1.6517 H   0  0  0  0  0  0  0  0  0  0  0  0
    4.3715   11.0497   -2.4754 H   0  0  0  0  0  0  0  0  0  0  0  0
    4.4140   10.3458    0.5000 H   0  0  0  0  0  0  0  0  0  0  0  0
    3.1251   11.2256   -0.3208 H   0  0  0  0  0  0  0  0  0  0  0  0
    4.7337   11.9437   -0.1838 H   0  0  0  0  0  0  0  0  0  0  0  0
    2.1841    9.9923   -2.8414 H   0  0  0  0  0  0  0  0  0  0  0  0
    0.9199    7.9080   -3.0915 H   0  0  0  0  0  0  0  0  0  0  0  0
   -2.6198   -2.8937    7.4849 H   0  0  0  0  0  0  0  0  0  0  0  0
   -2.5058   -3.5647    9.8441 H   0  0  0  0  0  0  0  0  0  0  0  0
   -1.5831   -5.0873   11.5375 H   0  0  0  0  0  0  0  0  0  0  0  0
   -0.8504   -6.6244   11.0515 H   0  0  0  0  0  0  0  0  0  0  0  0
   -3.8401   -5.9879   11.0523 H   0  0  0  0  0  0  0  0  0  0  0  0
   -3.0011   -7.0636   12.1764 H   0  0  0  0  0  0  0  0  0  0  0  0
   -3.1393   -7.4916   10.4641 H   0  0  0  0  0  0  0  0  0  0  0  0
   -0.8167   -7.3122    8.7043 H   0  0  0  0  0  0  0  0  0  0  0  0
   -0.9016   -6.6386    6.3489 H   0  0  0  0  0  0  0  0  0  0  0  0
   -1.7760    0.2455   -0.6123 H   0  0  0  0  0  0  0  0  0  0  0  0
   -1.5401    1.6679   -1.6221 H   0  0  0  0  0  0  0  0  0  0  0  0
    0.3799    0.6976   -2.7611 H   0  0  0  0  0  0  0  0  0  0  0  0
    0.3556   -0.7321   -1.7410 H   0  0  0  0  0  0  0  0  0  0  0  0
   -0.9711   -0.4272   -2.8703 H   0  0  0  0  0  0  0  0  0  0  0  0
   -1.1144   -1.4918   -0.2932 H   0  0  0  0  0  0  0  0  0  0  0  0
   -1.4920   -2.8529    0.7580 H   0  0  0  0  0  0  0  0  0  0  0  0
    1.3292   -1.7535    0.2927 H   0  0  0  0  0  0  0  0  0  0  0  0
    0.9104   -3.1548    1.2800 H   0  0  0  0  0  0  0  0  0  0  0  0
    0.6558   -3.2054   -0.4653 H   0  0  0  0  0  0  0  0  0  0  0  0
   -3.1541   -6.5803    5.6652 H   0  0  0  0  0  0  0  0  0  0  0  0
   -6.1869  -11.1858    0.7559 H   0  0  0  0  0  0  0  0  0  0  0  0
   -5.9841  -11.0042    3.3508 H   0  0  0  0  0  0  0  0  0  0  0  0
  1  2  2  0  0  0  0
  2  3  1  0  0  0  0
  3  4  2  0  0  0  0
  3  5  1  0  0  0  0
  5  6  2  0  0  0  0
  6  7  1  0  0  0  0
  7  8  2  0  0  0  0
  8  9  1  0  0  0  0
  9 10  2  0  0  0  0
 10 11  1  0  0  0  0
 11 12  2  0  0  0  0
 12 13  1  0  0  0  0
 13 14  3  0  0  0  0
 12 15  1  0  0  0  0
 15 16  3  0  0  0  0
  8 17  1  0  0  0  0
 17 18  1  0  0  0  0
 18 19  1  0  0  0  0
 19 20  2  0  0  0  0
 20 21  1  0  0  0  0
 21 22  1  0  0  0  0
 21 23  1  0  0  0  0
  1 24  1  0  0  0  0
 24 25  2  0  0  0  0
 25 26  1  0  0  0  0
 26 27  2  0  0  0  0
 27 28  1  0  0  0  0
 28 29  2  0  0  0  0
 29 30  1  0  0  0  0
 30 31  1  0  0  0  0
 29 32  1  0  0  0  0
 32 33  2  0  0  0  0
 25 34  1  0  0  0  0
 34 35  1  0  0  0  0
 35 36  1  0  0  0  0
 36 37  1  0  0  0  0
 37 38  1  0  0  0  0
 38 39  1  0  0  0  0
 39 40  2  0  0  0  0
 40 41  1  0  0  0  0
 41 42  1  0  0  0  0
 39 43  1  0  0  0  0
 43 44  1  0  0  0  0
 44 45  1  0  0  0  0
 45 46  1  0  0  0  0
 46 47  1  0  0  0  0
 47 48  1  0  0  0  0
 48 49  2  0  0  0  0
 49 50  1  0  0  0  0
 50 51  2  0  0  0  0
 51 52  1  0  0  0  0
 52 53  1  0  0  0  0
 51 54  1  0  0  0  0
 54 55  2  0  0  0  0
 47 56  2  0  0  0  0
 56 57  1  0  0  0  0
 57 58  1  0  0  0  0
 58 59  1  0  0  0  0
 59 60  1  0  0  0  0
 60 61  1  0  0  0  0
 61 62  1  0  0  0  0
 62 63  1  0  0  0  0
 63 64  1  0  0  0  0
 64 65  1  0  0  0  0
 65 66  1  0  0  0  0
 63 67  1  0  0  0  0
 67 68  1  0  0  0  0
 60 69  1  0  0  0  0
 69 70  1  0  0  0  0
 56 71  1  0  0  0  0
 71 72  2  0  0  0  0
 72 73  1  0  0  0  0
 73 74  2  0  0  0  0
 73 75  1  0  0  0  0
 75 76  1  0  0  0  0
 76 77  1  0  0  0  0
 77 78  2  0  0  0  0
 78 79  1  0  0  0  0
 79 80  1  0  0  0  0
 80 81  2  0  0  0  0
 81 82  1  0  0  0  0
 82 83  3  0  0  0  0
 81 84  1  0  0  0  0
 84 85  3  0  0  0  0
 11  2  1  0  0  0  0
 23 17  1  0  0  0  0
 66 24  1  0  0  0  0
 80 72  1  0  0  0  0
 10  5  1  0  0  0  0
 22 18  1  0  0  0  0
 33 26  1  0  0  0  0
 65 34  2  0  0  0  0
 79 75  2  0  0  0  0
 23  7  1  0  0  0  0
 64 36  2  0  0  0  0
 62 37  2  0  0  0  0
 42 38  2  0  0  0  0
 61 43  2  0  0  0  0
 59 44  2  0  0  0  0
 58 46  2  0  0  0  0
 55 48  1  0  0  0  0
  1 86  1  0  0  0  0
  6 87  1  0  0  0  0
  9 88  1  0  0  0  0
 17 89  1  0  0  0  0
 18 90  1  0  0  0  0
 19 91  1  0  0  0  0
 20 92  1  0  0  0  0
 21 93  1  0  0  0  0
 22 94  1  0  0  0  0
 22 95  1  0  0  0  0
 23 96  1  0  0  0  0
 27 97  1  0  0  0  0
 28 98  1  0  0  0  0
 30 99  1  0  0  0  0
 30100  1  0  0  0  0
 31101  1  0  0  0  0
 31102  1  0  0  0  0
 31103  1  0  0  0  0
 32104  1  0  0  0  0
 33105  1  0  0  0  0
 49106  1  0  0  0  0
 50107  1  0  0  0  0
 52108  1  0  0  0  0
 52109  1  0  0  0  0
 53110  1  0  0  0  0
 53111  1  0  0  0  0
 53112  1  0  0  0  0
 54113  1  0  0  0  0
 55114  1  0  0  0  0
 67115  1  0  0  0  0
 67116  1  0  0  0  0
 68117  1  0  0  0  0
 68118  1  0  0  0  0
 68119  1  0  0  0  0
 69120  1  0  0  0  0
 69121  1  0  0  0  0
 70122  1  0  0  0  0
 70123  1  0  0  0  0
 70124  1  0  0  0  0
 71125  1  0  0  0  0
 77126  1  0  0  0  0
 78127  1  0  0  0  0
M  END
