
  xtb     02012221553D
 energy: -235.594792696832 gnorm: 0.000554555594 xtb: 6.4.1 (unknown)
136152  0     0  0            999 V2000
   -3.8802    2.9593    5.7256 C   0  0  0  0  0  0  0  0  0  0  0  0
   -2.8636    3.2144    6.6090 C   0  0  0  0  0  0  0  0  0  0  0  0
   -1.4336    3.0313    6.3491 C   0  0  0  0  0  0  0  0  0  0  0  0
   -0.9163    2.5323    5.3621 O   0  0  0  0  0  0  0  0  0  0  0  0
   -0.7270    3.5733    7.5208 C   0  0  0  0  0  0  0  0  0  0  0  0
    0.6508    3.6657    7.7007 C   0  0  0  0  0  0  0  0  0  0  0  0
    1.0215    4.2489    8.8884 C   0  0  0  0  0  0  0  0  0  0  0  0
    0.0892    4.6983    9.8326 C   0  0  0  0  0  0  0  0  0  0  0  0
   -1.2730    4.6053    9.6706 C   0  0  0  0  0  0  0  0  0  0  0  0
   -1.6728    4.0236    8.4646 C   0  0  0  0  0  0  0  0  0  0  0  0
   -3.0144    3.7863    7.9318 C   0  0  0  0  0  0  0  0  0  0  0  0
   -4.1887    4.0627    8.5844 C   0  0  0  0  0  0  0  0  0  0  0  0
   -4.2694    4.6111    9.8816 C   0  0  0  0  0  0  0  0  0  0  0  0
   -4.4165    5.0554   10.9303 N   0  0  0  0  0  0  0  0  0  0  0  0
   -5.4892    3.8401    8.0838 C   0  0  0  0  0  0  0  0  0  0  0  0
   -6.5838    3.6998    7.7627 N   0  0  0  0  0  0  0  0  0  0  0  0
    1.1600    5.1923   10.7727 C   0  0  0  0  0  0  0  0  0  0  0  0
    1.4248    6.7175   10.8228 C   0  0  0  0  0  0  0  0  0  0  0  0
    1.0147    7.2683    9.4796 C   0  0  0  0  0  0  0  0  0  0  0  0
    1.8959    6.8459    8.5828 C   0  0  0  0  0  0  0  0  0  0  0  0
    2.9181    6.0022    9.3036 C   0  0  0  0  0  0  0  0  0  0  0  0
    2.9534    6.7216   10.6614 C   0  0  0  0  0  0  0  0  0  0  0  0
    2.1988    4.6945    9.7188 C   0  0  0  0  0  0  0  0  0  0  0  0
   -3.8420    2.4798    4.4103 C   0  0  0  0  0  0  0  0  0  0  0  0
   -4.9982    2.4194    3.6157 C   0  0  0  0  0  0  0  0  0  0  0  0
   -6.3385    2.8093    4.0790 C   0  0  0  0  0  0  0  0  0  0  0  0
   -7.2722    1.7978    4.2809 C   0  0  0  0  0  0  0  0  0  0  0  0
   -8.5395    2.0940    4.7431 C   0  0  0  0  0  0  0  0  0  0  0  0
   -8.8841    3.4092    4.9998 C   0  0  0  0  0  0  0  0  0  0  0  0
   -7.9660    4.4182    4.7764 C   0  0  0  0  0  0  0  0  0  0  0  0
   -6.6863    4.1415    4.3158 C   0  0  0  0  0  0  0  0  0  0  0  0
   -5.7452    5.2691    3.9958 C   0  0  0  0  0  0  0  0  0  0  0  0
   -5.7999    5.5917    2.5008 C   0  0  0  0  0  0  0  0  0  0  0  0
   -4.7279    1.9043    2.3543 C   0  0  0  0  0  0  0  0  0  0  0  0
   -5.7310    1.6676    0.9366 S   0  0  0  0  0  0  0  0  0  0  0  0
   -4.3344    1.0895    0.0938 C   0  0  0  0  0  0  0  0  0  0  0  0
   -3.9778    0.6531   -1.1881 C   0  0  0  0  0  0  0  0  0  0  0  0
   -4.7139    0.6349   -2.3940 C   0  0  0  0  0  0  0  0  0  0  0  0
   -4.0376    0.2939   -3.6105 C   0  0  0  0  0  0  0  0  0  0  0  0
   -4.8250    0.3836   -4.6702 N   0  0  0  0  0  0  0  0  0  0  0  0
   -6.2948    0.8526   -4.1781 S   0  0  0  0  0  0  0  0  0  0  0  0
   -5.9808    0.9607   -2.5933 N   0  0  0  0  0  0  0  0  0  0  0  0
   -2.6961   -0.1448   -3.5435 C   0  0  0  0  0  0  0  0  0  0  0  0
   -1.8562   -0.6710   -4.5320 C   0  0  0  0  0  0  0  0  0  0  0  0
   -1.8594   -0.9411   -6.2409 S   0  0  0  0  0  0  0  0  0  0  0  0
   -0.2884   -1.7046   -6.0842 C   0  0  0  0  0  0  0  0  0  0  0  0
    0.5670   -2.2901   -7.0074 C   0  0  0  0  0  0  0  0  0  0  0  0
    0.3566   -2.3150   -8.4626 C   0  0  0  0  0  0  0  0  0  0  0  0
   -0.6227   -3.1159   -9.0524 C   0  0  0  0  0  0  0  0  0  0  0  0
   -1.4487   -4.0705   -8.2380 C   0  0  0  0  0  0  0  0  0  0  0  0
   -0.6660   -5.3582   -7.9704 C   0  0  0  0  0  0  0  0  0  0  0  0
   -0.7610   -3.0806  -10.4334 C   0  0  0  0  0  0  0  0  0  0  0  0
    0.0419   -2.2733  -11.2172 C   0  0  0  0  0  0  0  0  0  0  0  0
    1.0129   -1.4843  -10.6262 C   0  0  0  0  0  0  0  0  0  0  0  0
    1.1704   -1.5093   -9.2548 C   0  0  0  0  0  0  0  0  0  0  0  0
    1.7125   -2.8239   -6.3889 C   0  0  0  0  0  0  0  0  0  0  0  0
    1.7212   -2.5425   -4.6496 S   0  0  0  0  0  0  0  0  0  0  0  0
    0.2002   -1.7348   -4.7645 C   0  0  0  0  0  0  0  0  0  0  0  0
   -0.6961   -1.1185   -3.8866 C   0  0  0  0  0  0  0  0  0  0  0  0
   -0.7699   -0.8391   -2.5482 N   0  0  0  0  0  0  0  0  0  0  0  0
   -1.9870   -0.2274   -2.3081 C   0  0  0  0  0  0  0  0  0  0  0  0
   -2.5951    0.3050   -1.1396 C   0  0  0  0  0  0  0  0  0  0  0  0
   -2.1258    0.5755    0.1336 N   0  0  0  0  0  0  0  0  0  0  0  0
   -3.1704    1.0615    0.8723 C   0  0  0  0  0  0  0  0  0  0  0  0
   -3.3806    1.5494    2.1664 C   0  0  0  0  0  0  0  0  0  0  0  0
   -2.4184    1.8887    3.5596 S   0  0  0  0  0  0  0  0  0  0  0  0
   -0.7722    0.7369    0.6161 C   0  0  0  0  0  0  0  0  0  0  0  0
   -0.0115    1.7876   -0.1882 C   0  0  0  0  0  0  0  0  0  0  0  0
    0.1568   -1.4677   -1.6331 C   0  0  0  0  0  0  0  0  0  0  0  0
   -0.5288   -2.5363   -0.7861 C   0  0  0  0  0  0  0  0  0  0  0  0
    2.6558   -3.5577   -7.1126 C   0  0  0  0  0  0  0  0  0  0  0  0
    3.7624   -4.2547   -6.6908 C   0  0  0  0  0  0  0  0  0  0  0  0
    4.2442   -4.3461   -5.3128 C   0  0  0  0  0  0  0  0  0  0  0  0
    3.7967   -3.7863   -4.3256 O   0  0  0  0  0  0  0  0  0  0  0  0
    5.4001   -5.2641   -5.3466 C   0  0  0  0  0  0  0  0  0  0  0  0
    6.1730   -5.7125   -4.2989 C   0  0  0  0  0  0  0  0  0  0  0  0
    7.2009   -6.6100   -4.5844 C   0  0  0  0  0  0  0  0  0  0  0  0
    7.9772   -7.0133   -3.5147 O   0  0  0  0  0  0  0  0  0  0  0  0
    8.4293   -8.2825   -3.4003 C   0  0  0  0  0  0  0  0  0  0  0  0
    8.1830   -9.1628   -4.1742 O   0  0  0  0  0  0  0  0  0  0  0  0
    9.2480   -8.4166   -2.1470 C   0  0  0  0  0  0  0  0  0  0  0  0
    7.4434   -7.0219   -5.8905 C   0  0  0  0  0  0  0  0  0  0  0  0
    6.6575   -6.5636   -6.9388 C   0  0  0  0  0  0  0  0  0  0  0  0
    5.6234   -5.6811   -6.6711 C   0  0  0  0  0  0  0  0  0  0  0  0
    4.6240   -5.0553   -7.5366 C   0  0  0  0  0  0  0  0  0  0  0  0
    4.5387   -5.2226   -8.8951 C   0  0  0  0  0  0  0  0  0  0  0  0
    3.5668   -4.6542   -9.7454 C   0  0  0  0  0  0  0  0  0  0  0  0
    2.8156   -4.2468  -10.5138 N   0  0  0  0  0  0  0  0  0  0  0  0
    5.4387   -6.0033   -9.6511 C   0  0  0  0  0  0  0  0  0  0  0  0
    6.1362   -6.6128  -10.3294 N   0  0  0  0  0  0  0  0  0  0  0  0
   -4.8866    3.1893    6.0557 H   0  0  0  0  0  0  0  0  0  0  0  0
    1.3336    3.3059    6.9468 H   0  0  0  0  0  0  0  0  0  0  0  0
   -1.9748    4.9580   10.4074 H   0  0  0  0  0  0  0  0  0  0  0  0
    1.1761    4.7356   11.7602 H   0  0  0  0  0  0  0  0  0  0  0  0
    1.0113    7.2190   11.6935 H   0  0  0  0  0  0  0  0  0  0  0  0
    0.1220    7.8430    9.3153 H   0  0  0  0  0  0  0  0  0  0  0  0
    1.8862    6.9970    7.5191 H   0  0  0  0  0  0  0  0  0  0  0  0
    3.8650    5.8535    8.7910 H   0  0  0  0  0  0  0  0  0  0  0  0
    3.4732    6.1603   11.4366 H   0  0  0  0  0  0  0  0  0  0  0  0
    3.3671    7.7267   10.5947 H   0  0  0  0  0  0  0  0  0  0  0  0
    2.8964    3.9149   10.0189 H   0  0  0  0  0  0  0  0  0  0  0  0
   -6.9876    0.7738    4.0859 H   0  0  0  0  0  0  0  0  0  0  0  0
   -9.2521    1.2997    4.9062 H   0  0  0  0  0  0  0  0  0  0  0  0
   -9.8687    3.6496    5.3711 H   0  0  0  0  0  0  0  0  0  0  0  0
   -8.2424    5.4449    4.9673 H   0  0  0  0  0  0  0  0  0  0  0  0
   -6.0336    6.1535    4.5670 H   0  0  0  0  0  0  0  0  0  0  0  0
   -4.7199    5.0124    4.2684 H   0  0  0  0  0  0  0  0  0  0  0  0
   -5.4950    4.7286    1.9134 H   0  0  0  0  0  0  0  0  0  0  0  0
   -6.8126    5.8604    2.2095 H   0  0  0  0  0  0  0  0  0  0  0  0
   -5.1378    6.4223    2.2669 H   0  0  0  0  0  0  0  0  0  0  0  0
   -2.3616   -4.3139   -8.7841 H   0  0  0  0  0  0  0  0  0  0  0  0
   -1.7353   -3.6179   -7.2879 H   0  0  0  0  0  0  0  0  0  0  0  0
   -1.2855   -6.0743   -7.4354 H   0  0  0  0  0  0  0  0  0  0  0  0
   -0.3458   -5.8060   -8.9085 H   0  0  0  0  0  0  0  0  0  0  0  0
    0.2191   -5.1529   -7.3718 H   0  0  0  0  0  0  0  0  0  0  0  0
   -1.5098   -3.7050  -10.8991 H   0  0  0  0  0  0  0  0  0  0  0  0
   -0.0829   -2.2667  -12.2891 H   0  0  0  0  0  0  0  0  0  0  0  0
    1.6507   -0.8573  -11.2301 H   0  0  0  0  0  0  0  0  0  0  0  0
    1.9253   -0.8975   -8.7809 H   0  0  0  0  0  0  0  0  0  0  0  0
   -0.2502   -0.2205    0.6221 H   0  0  0  0  0  0  0  0  0  0  0  0
   -0.8503    1.0674    1.6546 H   0  0  0  0  0  0  0  0  0  0  0  0
    1.0012    1.8818    0.1937 H   0  0  0  0  0  0  0  0  0  0  0  0
    0.0319    1.5259   -1.2429 H   0  0  0  0  0  0  0  0  0  0  0  0
   -0.5055    2.7521   -0.0977 H   0  0  0  0  0  0  0  0  0  0  0  0
    0.6504   -0.7192   -1.0124 H   0  0  0  0  0  0  0  0  0  0  0  0
    0.9295   -1.9366   -2.2469 H   0  0  0  0  0  0  0  0  0  0  0  0
   -0.9282   -3.3181   -1.4279 H   0  0  0  0  0  0  0  0  0  0  0  0
   -1.3501   -2.1183   -0.2086 H   0  0  0  0  0  0  0  0  0  0  0  0
    0.1897   -2.9833   -0.1046 H   0  0  0  0  0  0  0  0  0  0  0  0
    2.4309   -3.5961   -8.1720 H   0  0  0  0  0  0  0  0  0  0  0  0
    5.9892   -5.3867   -3.2874 H   0  0  0  0  0  0  0  0  0  0  0  0
    9.7384   -9.3848   -2.1353 H   0  0  0  0  0  0  0  0  0  0  0  0
    9.9814   -7.6163   -2.0963 H   0  0  0  0  0  0  0  0  0  0  0  0
    8.5918   -8.3314   -1.2833 H   0  0  0  0  0  0  0  0  0  0  0  0
    8.2454   -7.7129   -6.0937 H   0  0  0  0  0  0  0  0  0  0  0  0
    6.8658   -6.9049   -7.9392 H   0  0  0  0  0  0  0  0  0  0  0  0
  1  2  2  0  0  0  0
  2  3  1  0  0  0  0
  3  4  2  0  0  0  0
  3  5  1  0  0  0  0
  5  6  2  0  0  0  0
  6  7  1  0  0  0  0
  7  8  2  0  0  0  0
  8  9  1  0  0  0  0
  9 10  2  0  0  0  0
 10 11  1  0  0  0  0
 11 12  2  0  0  0  0
 12 13  1  0  0  0  0
 13 14  3  0  0  0  0
 12 15  1  0  0  0  0
 15 16  3  0  0  0  0
  8 17  1  0  0  0  0
 17 18  1  0  0  0  0
 18 19  1  0  0  0  0
 19 20  2  0  0  0  0
 20 21  1  0  0  0  0
 21 22  1  0  0  0  0
 21 23  1  0  0  0  0
  1 24  1  0  0  0  0
 24 25  2  0  0  0  0
 25 26  1  0  0  0  0
 26 27  2  0  0  0  0
 27 28  1  0  0  0  0
 28 29  2  0  0  0  0
 29 30  1  0  0  0  0
 30 31  2  0  0  0  0
 31 32  1  0  0  0  0
 32 33  1  0  0  0  0
 25 34  1  0  0  0  0
 34 35  1  0  0  0  0
 35 36  1  0  0  0  0
 36 37  1  0  0  0  0
 37 38  1  0  0  0  0
 38 39  1  0  0  0  0
 39 40  2  0  0  0  0
 40 41  1  0  0  0  0
 41 42  1  0  0  0  0
 39 43  1  0  0  0  0
 43 44  1  0  0  0  0
 44 45  1  0  0  0  0
 45 46  1  0  0  0  0
 46 47  1  0  0  0  0
 47 48  1  0  0  0  0
 48 49  2  0  0  0  0
 49 50  1  0  0  0  0
 50 51  1  0  0  0  0
 49 52  1  0  0  0  0
 52 53  2  0  0  0  0
 53 54  1  0  0  0  0
 54 55  2  0  0  0  0
 47 56  2  0  0  0  0
 56 57  1  0  0  0  0
 57 58  1  0  0  0  0
 58 59  1  0  0  0  0
 59 60  1  0  0  0  0
 60 61  1  0  0  0  0
 61 62  1  0  0  0  0
 62 63  1  0  0  0  0
 63 64  1  0  0  0  0
 64 65  1  0  0  0  0
 65 66  1  0  0  0  0
 63 67  1  0  0  0  0
 67 68  1  0  0  0  0
 60 69  1  0  0  0  0
 69 70  1  0  0  0  0
 56 71  1  0  0  0  0
 71 72  2  0  0  0  0
 72 73  1  0  0  0  0
 73 74  2  0  0  0  0
 73 75  1  0  0  0  0
 75 76  2  0  0  0  0
 76 77  1  0  0  0  0
 77 78  1  0  0  0  0
 78 79  1  0  0  0  0
 79 80  2  0  0  0  0
 79 81  1  0  0  0  0
 77 82  2  0  0  0  0
 82 83  1  0  0  0  0
 83 84  2  0  0  0  0
 84 85  1  0  0  0  0
 85 86  2  0  0  0  0
 86 87  1  0  0  0  0
 87 88  3  0  0  0  0
 86 89  1  0  0  0  0
 89 90  3  0  0  0  0
 11  2  1  0  0  0  0
 23 17  1  0  0  0  0
 66 24  1  0  0  0  0
 85 72  1  0  0  0  0
 10  5  1  0  0  0  0
 22 18  1  0  0  0  0
 31 26  1  0  0  0  0
 65 34  2  0  0  0  0
 84 75  1  0  0  0  0
 23  7  1  0  0  0  0
 64 36  2  0  0  0  0
 62 37  2  0  0  0  0
 42 38  2  0  0  0  0
 61 43  2  0  0  0  0
 59 44  2  0  0  0  0
 58 46  2  0  0  0  0
 55 48  1  0  0  0  0
  1 91  1  0  0  0  0
  6 92  1  0  0  0  0
  9 93  1  0  0  0  0
 17 94  1  0  0  0  0
 18 95  1  0  0  0  0
 19 96  1  0  0  0  0
 20 97  1  0  0  0  0
 21 98  1  0  0  0  0
 22 99  1  0  0  0  0
 22100  1  0  0  0  0
 23101  1  0  0  0  0
 27102  1  0  0  0  0
 28103  1  0  0  0  0
 29104  1  0  0  0  0
 30105  1  0  0  0  0
 32106  1  0  0  0  0
 32107  1  0  0  0  0
 33108  1  0  0  0  0
 33109  1  0  0  0  0
 33110  1  0  0  0  0
 50111  1  0  0  0  0
 50112  1  0  0  0  0
 51113  1  0  0  0  0
 51114  1  0  0  0  0
 51115  1  0  0  0  0
 52116  1  0  0  0  0
 53117  1  0  0  0  0
 54118  1  0  0  0  0
 55119  1  0  0  0  0
 67120  1  0  0  0  0
 67121  1  0  0  0  0
 68122  1  0  0  0  0
 68123  1  0  0  0  0
 68124  1  0  0  0  0
 69125  1  0  0  0  0
 69126  1  0  0  0  0
 70127  1  0  0  0  0
 70128  1  0  0  0  0
 70129  1  0  0  0  0
 71130  1  0  0  0  0
 76131  1  0  0  0  0
 81132  1  0  0  0  0
 81133  1  0  0  0  0
 81134  1  0  0  0  0
 82135  1  0  0  0  0
 83136  1  0  0  0  0
M  END
