
  xtb     02112205103D
 energy: -185.110056289076 gnorm: 0.000364549598 xtb: 6.4.1 (unknown)
104117  0     0  0            999 V2000
   -3.2104    1.9141    5.4557 C   0  0  0  0  0  0  0  0  0  0  0  0
   -3.6809    3.1309    5.0373 C   0  0  0  0  0  0  0  0  0  0  0  0
   -3.4190    3.8552    3.7736 C   0  0  0  0  0  0  0  0  0  0  0  0
   -2.5610    3.6517    2.9349 O   0  0  0  0  0  0  0  0  0  0  0  0
   -4.4328    4.9224    3.7016 C   0  0  0  0  0  0  0  0  0  0  0  0
   -4.6339    5.8052    2.6427 C   0  0  0  0  0  0  0  0  0  0  0  0
   -5.6678    6.6878    2.8399 C   0  0  0  0  0  0  0  0  0  0  0  0
   -6.4506    6.6879    4.0026 C   0  0  0  0  0  0  0  0  0  0  0  0
   -6.2603    5.8248    5.0552 C   0  0  0  0  0  0  0  0  0  0  0  0
   -5.2053    4.9248    4.8786 C   0  0  0  0  0  0  0  0  0  0  0  0
   -4.6961    3.8806    5.7625 C   0  0  0  0  0  0  0  0  0  0  0  0
   -5.0614    3.7104    7.0725 C   0  0  0  0  0  0  0  0  0  0  0  0
   -6.0319    4.4919    7.7344 C   0  0  0  0  0  0  0  0  0  0  0  0
   -6.8094    5.0834    8.3377 N   0  0  0  0  0  0  0  0  0  0  0  0
   -4.4943    2.7851    7.9753 C   0  0  0  0  0  0  0  0  0  0  0  0
   -4.0756    2.0856    8.7846 N   0  0  0  0  0  0  0  0  0  0  0  0
   -7.3051    7.8339    3.5222 C   0  0  0  0  0  0  0  0  0  0  0  0
   -7.0345    9.2350    4.1237 C   0  0  0  0  0  0  0  0  0  0  0  0
   -5.5872    9.2457    4.5495 C   0  0  0  0  0  0  0  0  0  0  0  0
   -4.8425    9.2480    3.4520 C   0  0  0  0  0  0  0  0  0  0  0  0
   -5.7727    9.2387    2.2641 C   0  0  0  0  0  0  0  0  0  0  0  0
   -6.9424   10.0598    2.8299 C   0  0  0  0  0  0  0  0  0  0  0  0
   -6.4300    7.8366    2.2292 C   0  0  0  0  0  0  0  0  0  0  0  0
   -2.2619    1.0339    4.9003 C   0  0  0  0  0  0  0  0  0  0  0  0
   -2.0644   -0.6864    5.7434 Se  0  0  0  0  0  2  0  0  0  0  0  0
   -0.8099   -1.0275    4.4378 C   0  0  0  0  0  0  0  0  0  0  0  0
    0.0614   -2.0376    4.0051 C   0  0  0  0  0  0  0  0  0  0  0  0
    0.3671   -3.3024    4.5511 C   0  0  0  0  0  0  0  0  0  0  0  0
    1.3623   -4.1175    3.9153 C   0  0  0  0  0  0  0  0  0  0  0  0
    1.5776   -5.2487    4.5681 N   0  0  0  0  0  0  0  0  0  0  0  0
    0.6112   -5.2865    5.8665 S   0  0  0  0  0  0  0  0  0  0  0  0
   -0.1237   -3.8599    5.6459 N   0  0  0  0  0  0  0  0  0  0  0  0
    1.9103   -3.6851    2.6853 C   0  0  0  0  0  0  0  0  0  0  0  0
    2.7158   -4.3419    1.7442 C   0  0  0  0  0  0  0  0  0  0  0  0
    3.5362   -5.8531    1.5524 S   0  0  0  0  0  0  0  0  0  0  0  0
    3.9618   -5.3882   -0.0807 C   0  0  0  0  0  0  0  0  0  0  0  0
    4.6687   -6.0411   -1.0935 C   0  0  0  0  0  0  0  0  0  0  0  0
    5.2273   -7.4185   -0.9495 C   0  0  0  0  0  0  0  0  0  0  0  0
    4.2271   -8.4634   -1.4508 C   0  0  0  0  0  0  0  0  0  0  0  0
    4.7270   -5.2654   -2.2492 C   0  0  0  0  0  0  0  0  0  0  0  0
    3.9127   -3.7152   -2.0523 S   0  0  0  0  0  0  0  0  0  0  0  0
    3.4871   -4.1158   -0.4323 C   0  0  0  0  0  0  0  0  0  0  0  0
    2.7857   -3.5145    0.6156 C   0  0  0  0  0  0  0  0  0  0  0  0
    2.0830   -2.3611    0.8366 N   0  0  0  0  0  0  0  0  0  0  0  0
    1.5481   -2.4329    2.1083 C   0  0  0  0  0  0  0  0  0  0  0  0
    0.7243   -1.5476    2.8466 C   0  0  0  0  0  0  0  0  0  0  0  0
    0.3174   -0.2467    2.6211 N   0  0  0  0  0  0  0  0  0  0  0  0
   -0.6292    0.0658    3.5693 C   0  0  0  0  0  0  0  0  0  0  0  0
   -1.4094    1.1897    3.8191 C   0  0  0  0  0  0  0  0  0  0  0  0
    1.0633    0.8248    1.9952 C   0  0  0  0  0  0  0  0  0  0  0  0
    1.8223    1.6506    3.0344 C   0  0  0  0  0  0  0  0  0  0  0  0
    1.7320   -1.4991   -0.2722 C   0  0  0  0  0  0  0  0  0  0  0  0
    2.9046   -0.6307   -0.7268 C   0  0  0  0  0  0  0  0  0  0  0  0
    5.3295   -5.6079   -3.4727 C   0  0  0  0  0  0  0  0  0  0  0  0
    5.3868   -4.8600   -4.6056 C   0  0  0  0  0  0  0  0  0  0  0  0
    4.7370   -3.2493   -4.8335 S   0  0  0  0  0  0  0  0  0  0  0  0
    5.3200   -3.2142   -6.4829 C   0  0  0  0  0  0  0  0  0  0  0  0
    5.1835   -2.0948   -7.2630 C   0  0  0  0  0  0  0  0  0  0  0  0
    5.6977   -1.9509   -8.5637 C   0  0  0  0  0  0  0  0  0  0  0  0
    6.1080   -1.7530   -9.6177 N   0  0  0  0  0  0  0  0  0  0  0  0
    4.5192   -0.9671   -6.7420 C   0  0  0  0  0  0  0  0  0  0  0  0
    3.9716   -0.0560   -6.3098 N   0  0  0  0  0  0  0  0  0  0  0  0
    5.9223   -4.3815   -6.8270 N   0  0  0  0  0  0  0  0  0  0  0  0
    6.3719   -4.6568   -8.1530 C   0  0  0  0  0  0  0  0  0  0  0  0
    5.4365   -4.8493   -9.1595 C   0  0  0  0  0  0  0  0  0  0  0  0
    5.8721   -5.1223  -10.4424 C   0  0  0  0  0  0  0  0  0  0  0  0
    7.2275   -5.2109  -10.7109 C   0  0  0  0  0  0  0  0  0  0  0  0
    8.1525   -5.0365   -9.6960 C   0  0  0  0  0  0  0  0  0  0  0  0
    7.7292   -4.7597   -8.4085 C   0  0  0  0  0  0  0  0  0  0  0  0
    6.0215   -5.3457   -5.8273 C   0  0  0  0  0  0  0  0  0  0  0  0
    6.5508   -6.4215   -5.9820 O   0  0  0  0  0  0  0  0  0  0  0  0
   -3.6679    1.5229    6.3592 H   0  0  0  0  0  0  0  0  0  0  0  0
   -4.0122    5.7647    1.7619 H   0  0  0  0  0  0  0  0  0  0  0  0
   -6.8759    5.8333    5.9389 H   0  0  0  0  0  0  0  0  0  0  0  0
   -8.3680    7.6249    3.4179 H   0  0  0  0  0  0  0  0  0  0  0  0
   -7.7568    9.5525    4.8707 H   0  0  0  0  0  0  0  0  0  0  0  0
   -5.2642    9.1935    5.5727 H   0  0  0  0  0  0  0  0  0  0  0  0
   -3.7721    9.1984    3.3749 H   0  0  0  0  0  0  0  0  0  0  0  0
   -5.3463    9.5609    1.3177 H   0  0  0  0  0  0  0  0  0  0  0  0
   -7.8427   10.0106    2.2188 H   0  0  0  0  0  0  0  0  0  0  0  0
   -6.6775   11.1002    3.0117 H   0  0  0  0  0  0  0  0  0  0  0  0
   -6.9217    7.6328    1.2798 H   0  0  0  0  0  0  0  0  0  0  0  0
    5.4342   -7.5981    0.1072 H   0  0  0  0  0  0  0  0  0  0  0  0
    6.1618   -7.5083   -1.5052 H   0  0  0  0  0  0  0  0  0  0  0  0
    4.6379   -9.4615   -1.3248 H   0  0  0  0  0  0  0  0  0  0  0  0
    4.0064   -8.3083   -2.5044 H   0  0  0  0  0  0  0  0  0  0  0  0
    3.2990   -8.3970   -0.8883 H   0  0  0  0  0  0  0  0  0  0  0  0
   -1.3949    2.0925    3.2350 H   0  0  0  0  0  0  0  0  0  0  0  0
    0.3608    1.4635    1.4519 H   0  0  0  0  0  0  0  0  0  0  0  0
    1.7819    0.4070    1.3001 H   0  0  0  0  0  0  0  0  0  0  0  0
    2.5063    1.0154    3.5940 H   0  0  0  0  0  0  0  0  0  0  0  0
    1.1384    2.1235    3.7334 H   0  0  0  0  0  0  0  0  0  0  0  0
    2.3963    2.4252    2.5331 H   0  0  0  0  0  0  0  0  0  0  0  0
    1.4338   -2.1409   -1.1090 H   0  0  0  0  0  0  0  0  0  0  0  0
    0.8655   -0.8991    0.0069 H   0  0  0  0  0  0  0  0  0  0  0  0
    2.5684    0.0671   -1.4880 H   0  0  0  0  0  0  0  0  0  0  0  0
    3.3386   -0.0704    0.0984 H   0  0  0  0  0  0  0  0  0  0  0  0
    3.6872   -1.2497   -1.1562 H   0  0  0  0  0  0  0  0  0  0  0  0
    5.8021   -6.5801   -3.5396 H   0  0  0  0  0  0  0  0  0  0  0  0
    4.3814   -4.7788   -8.9376 H   0  0  0  0  0  0  0  0  0  0  0  0
    5.1504   -5.2639  -11.2318 H   0  0  0  0  0  0  0  0  0  0  0  0
    7.5634   -5.4182  -11.7153 H   0  0  0  0  0  0  0  0  0  0  0  0
    9.2085   -5.1110   -9.9050 H   0  0  0  0  0  0  0  0  0  0  0  0
    8.4392   -4.6222   -7.6074 H   0  0  0  0  0  0  0  0  0  0  0  0
  1  2  2  0  0  0  0
  2  3  1  0  0  0  0
  3  4  2  0  0  0  0
  3  5  1  0  0  0  0
  5  6  2  0  0  0  0
  6  7  1  0  0  0  0
  7  8  2  0  0  0  0
  8  9  1  0  0  0  0
  9 10  2  0  0  0  0
 10 11  1  0  0  0  0
 11 12  2  0  0  0  0
 12 13  1  0  0  0  0
 13 14  3  0  0  0  0
 12 15  1  0  0  0  0
 15 16  3  0  0  0  0
  8 17  1  0  0  0  0
 17 18  1  0  0  0  0
 18 19  1  0  0  0  0
 19 20  2  0  0  0  0
 20 21  1  0  0  0  0
 21 22  1  0  0  0  0
 21 23  1  0  0  0  0
  1 24  1  0  0  0  0
 24 25  1  0  0  0  0
 25 26  1  0  0  0  0
 26 27  1  0  0  0  0
 27 28  1  0  0  0  0
 28 29  1  0  0  0  0
 29 30  2  0  0  0  0
 30 31  1  0  0  0  0
 31 32  1  0  0  0  0
 29 33  1  0  0  0  0
 33 34  1  0  0  0  0
 34 35  1  0  0  0  0
 35 36  1  0  0  0  0
 36 37  1  0  0  0  0
 37 38  1  0  0  0  0
 38 39  1  0  0  0  0
 37 40  2  0  0  0  0
 40 41  1  0  0  0  0
 41 42  1  0  0  0  0
 42 43  1  0  0  0  0
 43 44  1  0  0  0  0
 44 45  1  0  0  0  0
 45 46  1  0  0  0  0
 46 47  1  0  0  0  0
 47 48  1  0  0  0  0
 48 49  1  0  0  0  0
 47 50  1  0  0  0  0
 50 51  1  0  0  0  0
 44 52  1  0  0  0  0
 52 53  1  0  0  0  0
 40 54  1  0  0  0  0
 54 55  2  0  0  0  0
 55 56  1  0  0  0  0
 56 57  1  0  0  0  0
 57 58  2  0  0  0  0
 58 59  1  0  0  0  0
 59 60  3  0  0  0  0
 58 61  1  0  0  0  0
 61 62  3  0  0  0  0
 57 63  1  0  0  0  0
 63 64  1  0  0  0  0
 64 65  2  0  0  0  0
 65 66  1  0  0  0  0
 66 67  2  0  0  0  0
 67 68  1  0  0  0  0
 68 69  2  0  0  0  0
 63 70  1  0  0  0  0
 70 71  2  0  0  0  0
 11  2  1  0  0  0  0
 23 17  1  0  0  0  0
 49 24  2  0  0  0  0
 70 55  1  0  0  0  0
 10  5  1  0  0  0  0
 22 18  1  0  0  0  0
 48 26  2  0  0  0  0
 69 64  1  0  0  0  0
 23  7  1  0  0  0  0
 46 27  2  0  0  0  0
 32 28  2  0  0  0  0
 45 33  2  0  0  0  0
 43 34  2  0  0  0  0
 42 36  2  0  0  0  0
  1 72  1  0  0  0  0
  6 73  1  0  0  0  0
  9 74  1  0  0  0  0
 17 75  1  0  0  0  0
 18 76  1  0  0  0  0
 19 77  1  0  0  0  0
 20 78  1  0  0  0  0
 21 79  1  0  0  0  0
 22 80  1  0  0  0  0
 22 81  1  0  0  0  0
 23 82  1  0  0  0  0
 38 83  1  0  0  0  0
 38 84  1  0  0  0  0
 39 85  1  0  0  0  0
 39 86  1  0  0  0  0
 39 87  1  0  0  0  0
 49 88  1  0  0  0  0
 50 89  1  0  0  0  0
 50 90  1  0  0  0  0
 51 91  1  0  0  0  0
 51 92  1  0  0  0  0
 51 93  1  0  0  0  0
 52 94  1  0  0  0  0
 52 95  1  0  0  0  0
 53 96  1  0  0  0  0
 53 97  1  0  0  0  0
 53 98  1  0  0  0  0
 54 99  1  0  0  0  0
 65100  1  0  0  0  0
 66101  1  0  0  0  0
 67102  1  0  0  0  0
 68103  1  0  0  0  0
 69104  1  0  0  0  0
M  END
