
  xtb     02022203073D
 energy: -244.760112055133 gnorm: 0.000503416402 xtb: 6.4.1 (unknown)
139155  0     0  0            999 V2000
   -5.9875   -3.1351    1.9869 C   0  0  0  0  0  0  0  0  0  0  0  0
   -6.6129   -4.1682    1.3520 C   0  0  0  0  0  0  0  0  0  0  0  0
   -6.1593   -4.7558    0.0671 C   0  0  0  0  0  0  0  0  0  0  0  0
   -5.1056   -4.5690   -0.5046 O   0  0  0  0  0  0  0  0  0  0  0  0
   -7.3109   -5.5251   -0.4407 C   0  0  0  0  0  0  0  0  0  0  0  0
   -7.3873   -6.2033   -1.6549 C   0  0  0  0  0  0  0  0  0  0  0  0
   -8.5948   -6.8205   -1.8765 C   0  0  0  0  0  0  0  0  0  0  0  0
   -9.6567   -6.7587   -0.9636 C   0  0  0  0  0  0  0  0  0  0  0  0
   -9.5978   -6.0879    0.2346 C   0  0  0  0  0  0  0  0  0  0  0  0
   -8.3735   -5.4611    0.4837 C   0  0  0  0  0  0  0  0  0  0  0  0
   -7.9457   -4.6651    1.6285 C   0  0  0  0  0  0  0  0  0  0  0  0
   -8.6337   -4.4897    2.8003 C   0  0  0  0  0  0  0  0  0  0  0  0
   -8.1255   -3.7951    3.9184 C   0  0  0  0  0  0  0  0  0  0  0  0
   -7.7611   -3.2647    4.8694 N   0  0  0  0  0  0  0  0  0  0  0  0
   -9.9161   -5.0148    3.0598 C   0  0  0  0  0  0  0  0  0  0  0  0
  -10.9591   -5.4115    3.3300 N   0  0  0  0  0  0  0  0  0  0  0  0
  -10.5581   -7.5978   -1.8340 C   0  0  0  0  0  0  0  0  0  0  0  0
  -10.7633   -9.0813   -1.4398 C   0  0  0  0  0  0  0  0  0  0  0  0
   -9.5295   -9.4968   -0.6774 C   0  0  0  0  0  0  0  0  0  0  0  0
   -8.5229   -9.5582   -1.5389 C   0  0  0  0  0  0  0  0  0  0  0  0
   -9.0578   -9.1853   -2.8995 C   0  0  0  0  0  0  0  0  0  0  0  0
  -10.4830   -9.7510   -2.7946 C   0  0  0  0  0  0  0  0  0  0  0  0
   -9.3738   -7.6698   -2.8489 C   0  0  0  0  0  0  0  0  0  0  0  0
   -4.6463   -2.7310    1.7812 C   0  0  0  0  0  0  0  0  0  0  0  0
   -3.4963   -3.4843    1.5947 C   0  0  0  0  0  0  0  0  0  0  0  0
   -3.4213   -4.9692    1.7149 C   0  0  0  0  0  0  0  0  0  0  0  0
   -2.3798   -5.4101    2.7425 C   0  0  0  0  0  0  0  0  0  0  0  0
   -2.3815   -2.6541    1.3963 C   0  0  0  0  0  0  0  0  0  0  0  0
   -0.7010   -2.9837    1.0400 S   0  0  0  0  0  0  0  0  0  0  0  0
   -0.4050   -1.2865    0.9275 C   0  0  0  0  0  0  0  0  0  0  0  0
    0.6488   -0.4097    0.6161 C   0  0  0  0  0  0  0  0  0  0  0  0
    1.9727   -0.6523    0.1686 C   0  0  0  0  0  0  0  0  0  0  0  0
    2.4959   -1.8751    0.1685 N   0  0  0  0  0  0  0  0  0  0  0  0
    3.6964   -2.0603   -0.3559 C   0  0  0  0  0  0  0  0  0  0  0  0
    4.2635   -3.3713   -0.1360 C   0  0  0  0  0  0  0  0  0  0  0  0
    5.9732   -3.6532    0.0120 S   0  0  0  0  0  0  0  0  0  0  0  0
    5.7318   -5.3292    0.3659 C   0  0  0  0  0  0  0  0  0  0  0  0
    6.8741   -6.2626    0.5684 C   0  0  0  0  0  0  0  0  0  0  0  0
    7.6571   -6.4689   -0.7298 C   0  0  0  0  0  0  0  0  0  0  0  0
    4.3952   -5.6090    0.3667 C   0  0  0  0  0  0  0  0  0  0  0  0
    3.5519   -4.5156    0.1042 C   0  0  0  0  0  0  0  0  0  0  0  0
    3.9194   -6.8438    0.6092 F   0  0  0  0  0  0  0  0  0  0  0  0
    4.3514   -0.9864   -1.0317 C   0  0  0  0  0  0  0  0  0  0  0  0
    5.4920   -1.1357   -1.9003 C   0  0  0  0  0  0  0  0  0  0  0  0
    5.8743   -2.1834   -2.6939 C   0  0  0  0  0  0  0  0  0  0  0  0
    7.0098   -1.8623   -3.4561 C   0  0  0  0  0  0  0  0  0  0  0  0
    7.5728   -2.7424   -4.3057 F   0  0  0  0  0  0  0  0  0  0  0  0
    7.4977   -0.5985   -3.2770 C   0  0  0  0  0  0  0  0  0  0  0  0
    8.6953    0.0203   -3.9107 C   0  0  0  0  0  0  0  0  0  0  0  0
    9.7810    0.3224   -2.8771 C   0  0  0  0  0  0  0  0  0  0  0  0
    6.5176    0.2468   -2.1322 S   0  0  0  0  0  0  0  0  0  0  0  0
    3.8959    0.2499   -0.9113 N   0  0  0  0  0  0  0  0  0  0  0  0
    2.7471    0.4559   -0.2752 C   0  0  0  0  0  0  0  0  0  0  0  0
    2.2530    1.7628   -0.0337 C   0  0  0  0  0  0  0  0  0  0  0  0
    2.8288    3.0293   -0.2234 C   0  0  0  0  0  0  0  0  0  0  0  0
    4.2627    3.7191   -0.8957 S   0  0  0  0  0  0  0  0  0  0  0  0
    3.6592    5.3105   -0.4682 C   0  0  0  0  0  0  0  0  0  0  0  0
    4.1675    6.5858   -0.6587 C   0  0  0  0  0  0  0  0  0  0  0  0
    5.4998    6.8424   -1.2828 C   0  0  0  0  0  0  0  0  0  0  0  0
    6.5771    7.0282   -0.2104 C   0  0  0  0  0  0  0  0  0  0  0  0
    3.2960    7.5678   -0.1466 C   0  0  0  0  0  0  0  0  0  0  0  0
    1.8433    6.8606    0.5695 S   0  0  0  0  0  0  0  0  0  0  0  0
    2.4074    5.2824    0.1763 C   0  0  0  0  0  0  0  0  0  0  0  0
    1.9398    3.9751    0.3096 C   0  0  0  0  0  0  0  0  0  0  0  0
    0.8231    3.3436    0.8041 N   0  0  0  0  0  0  0  0  0  0  0  0
    0.0422    3.9489    1.8649 C   0  0  0  0  0  0  0  0  0  0  0  0
    0.9176    4.2897    3.0701 C   0  0  0  0  0  0  0  0  0  0  0  0
    0.9846    1.9950    0.5650 C   0  0  0  0  0  0  0  0  0  0  0  0
    0.1150    0.9006    0.7308 C   0  0  0  0  0  0  0  0  0  0  0  0
   -1.2298    0.8299    1.0432 N   0  0  0  0  0  0  0  0  0  0  0  0
   -1.5404   -0.5029    1.1660 C   0  0  0  0  0  0  0  0  0  0  0  0
   -2.6682   -1.2833    1.4357 C   0  0  0  0  0  0  0  0  0  0  0  0
   -4.3279   -0.9959    1.7929 S   0  0  0  0  0  0  0  0  0  0  0  0
   -2.2554    1.7843    0.6715 C   0  0  0  0  0  0  0  0  0  0  0  0
   -2.8997    1.4111   -0.6633 C   0  0  0  0  0  0  0  0  0  0  0  0
    3.5656    8.9339   -0.2279 C   0  0  0  0  0  0  0  0  0  0  0  0
    2.8481   10.0266    0.2054 C   0  0  0  0  0  0  0  0  0  0  0  0
    1.5694    9.9947    0.9124 C   0  0  0  0  0  0  0  0  0  0  0  0
    0.9120    9.0205    1.2354 O   0  0  0  0  0  0  0  0  0  0  0  0
    1.2113   11.4056    1.1698 C   0  0  0  0  0  0  0  0  0  0  0  0
    0.0953   11.9032    1.8081 C   0  0  0  0  0  0  0  0  0  0  0  0
   -0.0085   13.2832    1.9215 C   0  0  0  0  0  0  0  0  0  0  0  0
   -1.5247   14.0313    2.7894 Br  0  0  0  0  0  0  0  0  0  0  0  0
    0.9680   14.1301    1.4161 C   0  0  0  0  0  0  0  0  0  0  0  0
    2.0867   13.6173    0.7751 C   0  0  0  0  0  0  0  0  0  0  0  0
    2.2130   12.2420    0.6478 C   0  0  0  0  0  0  0  0  0  0  0  0
    3.2470   11.4078    0.0339 C   0  0  0  0  0  0  0  0  0  0  0  0
    4.3713   11.8853   -0.5925 C   0  0  0  0  0  0  0  0  0  0  0  0
    4.6843   13.2548   -0.7179 C   0  0  0  0  0  0  0  0  0  0  0  0
    4.9995   14.3504   -0.8531 N   0  0  0  0  0  0  0  0  0  0  0  0
    5.3724   11.1030   -1.2037 C   0  0  0  0  0  0  0  0  0  0  0  0
    6.2283   10.5402   -1.7251 N   0  0  0  0  0  0  0  0  0  0  0  0
   -6.5681   -2.5061    2.6523 H   0  0  0  0  0  0  0  0  0  0  0  0
   -6.5489   -6.2200   -2.3336 H   0  0  0  0  0  0  0  0  0  0  0  0
  -10.4253   -6.0372    0.9228 H   0  0  0  0  0  0  0  0  0  0  0  0
  -11.4814   -7.1234   -2.1604 H   0  0  0  0  0  0  0  0  0  0  0  0
  -11.7163   -9.2937   -0.9630 H   0  0  0  0  0  0  0  0  0  0  0  0
   -9.5046   -9.6431    0.3865 H   0  0  0  0  0  0  0  0  0  0  0  0
   -7.4881   -9.7660   -1.3386 H   0  0  0  0  0  0  0  0  0  0  0  0
   -8.4582   -9.4930   -3.7522 H   0  0  0  0  0  0  0  0  0  0  0  0
  -11.1441   -9.4123   -3.5912 H   0  0  0  0  0  0  0  0  0  0  0  0
  -10.5013  -10.8383   -2.7387 H   0  0  0  0  0  0  0  0  0  0  0  0
   -9.5241   -7.2443   -3.8393 H   0  0  0  0  0  0  0  0  0  0  0  0
   -4.3992   -5.3574    2.0032 H   0  0  0  0  0  0  0  0  0  0  0  0
   -3.1742   -5.3836    0.7340 H   0  0  0  0  0  0  0  0  0  0  0  0
   -2.4006   -6.4923    2.8410 H   0  0  0  0  0  0  0  0  0  0  0  0
   -2.5971   -4.9712    3.7141 H   0  0  0  0  0  0  0  0  0  0  0  0
   -1.3791   -5.1132    2.4419 H   0  0  0  0  0  0  0  0  0  0  0  0
    7.5441   -5.8615    1.3331 H   0  0  0  0  0  0  0  0  0  0  0  0
    6.4800   -7.2181    0.9207 H   0  0  0  0  0  0  0  0  0  0  0  0
    8.0504   -5.5202   -1.0881 H   0  0  0  0  0  0  0  0  0  0  0  0
    7.0130   -6.8896   -1.4985 H   0  0  0  0  0  0  0  0  0  0  0  0
    8.4870   -7.1501   -0.5619 H   0  0  0  0  0  0  0  0  0  0  0  0
    2.4798   -4.5645    0.0808 H   0  0  0  0  0  0  0  0  0  0  0  0
    5.3664   -3.1275   -2.7588 H   0  0  0  0  0  0  0  0  0  0  0  0
    9.0809   -0.6680   -4.6657 H   0  0  0  0  0  0  0  0  0  0  0  0
    8.4051    0.9494   -4.4077 H   0  0  0  0  0  0  0  0  0  0  0  0
   10.6435    0.7729   -3.3612 H   0  0  0  0  0  0  0  0  0  0  0  0
   10.0985   -0.5924   -2.3824 H   0  0  0  0  0  0  0  0  0  0  0  0
    9.4018    1.0102   -2.1250 H   0  0  0  0  0  0  0  0  0  0  0  0
    5.4710    7.7254   -1.9229 H   0  0  0  0  0  0  0  0  0  0  0  0
    5.7577    5.9799   -1.9003 H   0  0  0  0  0  0  0  0  0  0  0  0
    6.6489    6.1389    0.4114 H   0  0  0  0  0  0  0  0  0  0  0  0
    6.3461    7.8795    0.4255 H   0  0  0  0  0  0  0  0  0  0  0  0
    7.5392    7.2036   -0.6830 H   0  0  0  0  0  0  0  0  0  0  0  0
   -0.4274    4.8599    1.4810 H   0  0  0  0  0  0  0  0  0  0  0  0
   -0.7236    3.2451    2.1866 H   0  0  0  0  0  0  0  0  0  0  0  0
    1.6573    5.0427    2.8148 H   0  0  0  0  0  0  0  0  0  0  0  0
    0.2941    4.6794    3.8696 H   0  0  0  0  0  0  0  0  0  0  0  0
    1.4299    3.3988    3.4276 H   0  0  0  0  0  0  0  0  0  0  0  0
   -1.8098    2.7716    0.5724 H   0  0  0  0  0  0  0  0  0  0  0  0
   -3.0141    1.8015    1.4601 H   0  0  0  0  0  0  0  0  0  0  0  0
   -2.1436    1.3620   -1.4440 H   0  0  0  0  0  0  0  0  0  0  0  0
   -3.6339    2.1645   -0.9344 H   0  0  0  0  0  0  0  0  0  0  0  0
   -3.4003    0.4491   -0.6019 H   0  0  0  0  0  0  0  0  0  0  0  0
    4.5018    9.1551   -0.7214 H   0  0  0  0  0  0  0  0  0  0  0  0
   -0.6603   11.2397    2.1992 H   0  0  0  0  0  0  0  0  0  0  0  0
    0.8552   15.1980    1.5226 H   0  0  0  0  0  0  0  0  0  0  0  0
    2.8310   14.2948    0.3911 H   0  0  0  0  0  0  0  0  0  0  0  0
  1  2  2  0  0  0  0
  2  3  1  0  0  0  0
  3  4  2  0  0  0  0
  3  5  1  0  0  0  0
  5  6  2  0  0  0  0
  6  7  1  0  0  0  0
  7  8  2  0  0  0  0
  8  9  1  0  0  0  0
  9 10  2  0  0  0  0
 10 11  1  0  0  0  0
 11 12  2  0  0  0  0
 12 13  1  0  0  0  0
 13 14  3  0  0  0  0
 12 15  1  0  0  0  0
 15 16  3  0  0  0  0
  8 17  1  0  0  0  0
 17 18  1  0  0  0  0
 18 19  1  0  0  0  0
 19 20  2  0  0  0  0
 20 21  1  0  0  0  0
 21 22  1  0  0  0  0
 21 23  1  0  0  0  0
  1 24  1  0  0  0  0
 24 25  2  0  0  0  0
 25 26  1  0  0  0  0
 26 27  1  0  0  0  0
 25 28  1  0  0  0  0
 28 29  1  0  0  0  0
 29 30  1  0  0  0  0
 30 31  1  0  0  0  0
 31 32  2  0  0  0  0
 32 33  1  0  0  0  0
 33 34  2  0  0  0  0
 34 35  1  0  0  0  0
 35 36  1  0  0  0  0
 36 37  1  0  0  0  0
 37 38  1  0  0  0  0
 38 39  1  0  0  0  0
 37 40  2  0  0  0  0
 40 41  1  0  0  0  0
 40 42  1  0  0  0  0
 34 43  1  0  0  0  0
 43 44  1  0  0  0  0
 44 45  2  0  0  0  0
 45 46  1  0  0  0  0
 46 47  1  0  0  0  0
 46 48  2  0  0  0  0
 48 49  1  0  0  0  0
 49 50  1  0  0  0  0
 48 51  1  0  0  0  0
 43 52  2  0  0  0  0
 52 53  1  0  0  0  0
 53 54  2  0  0  0  0
 54 55  1  0  0  0  0
 55 56  1  0  0  0  0
 56 57  1  0  0  0  0
 57 58  1  0  0  0  0
 58 59  1  0  0  0  0
 59 60  1  0  0  0  0
 58 61  2  0  0  0  0
 61 62  1  0  0  0  0
 62 63  1  0  0  0  0
 63 64  1  0  0  0  0
 64 65  1  0  0  0  0
 65 66  1  0  0  0  0
 66 67  1  0  0  0  0
 65 68  1  0  0  0  0
 68 69  2  0  0  0  0
 69 70  1  0  0  0  0
 70 71  1  0  0  0  0
 71 72  1  0  0  0  0
 72 73  1  0  0  0  0
 70 74  1  0  0  0  0
 74 75  1  0  0  0  0
 61 76  1  0  0  0  0
 76 77  2  0  0  0  0
 77 78  1  0  0  0  0
 78 79  2  0  0  0  0
 78 80  1  0  0  0  0
 80 81  2  0  0  0  0
 81 82  1  0  0  0  0
 82 83  1  0  0  0  0
 82 84  2  0  0  0  0
 84 85  1  0  0  0  0
 85 86  2  0  0  0  0
 86 87  1  0  0  0  0
 87 88  2  0  0  0  0
 88 89  1  0  0  0  0
 89 90  3  0  0  0  0
 88 91  1  0  0  0  0
 91 92  3  0  0  0  0
 11  2  1  0  0  0  0
 23 17  1  0  0  0  0
 73 24  1  0  0  0  0
 87 77  1  0  0  0  0
 10  5  1  0  0  0  0
 22 18  1  0  0  0  0
 72 28  2  0  0  0  0
 86 80  1  0  0  0  0
 23  7  1  0  0  0  0
 71 30  2  0  0  0  0
 69 31  1  0  0  0  0
 53 32  1  0  0  0  0
 68 54  1  0  0  0  0
 41 35  2  0  0  0  0
 51 44  1  0  0  0  0
 64 55  2  0  0  0  0
 63 57  2  0  0  0  0
  1 93  1  0  0  0  0
  6 94  1  0  0  0  0
  9 95  1  0  0  0  0
 17 96  1  0  0  0  0
 18 97  1  0  0  0  0
 19 98  1  0  0  0  0
 20 99  1  0  0  0  0
 21100  1  0  0  0  0
 22101  1  0  0  0  0
 22102  1  0  0  0  0
 23103  1  0  0  0  0
 26104  1  0  0  0  0
 26105  1  0  0  0  0
 27106  1  0  0  0  0
 27107  1  0  0  0  0
 27108  1  0  0  0  0
 38109  1  0  0  0  0
 38110  1  0  0  0  0
 39111  1  0  0  0  0
 39112  1  0  0  0  0
 39113  1  0  0  0  0
 41114  1  0  0  0  0
 45115  1  0  0  0  0
 49116  1  0  0  0  0
 49117  1  0  0  0  0
 50118  1  0  0  0  0
 50119  1  0  0  0  0
 50120  1  0  0  0  0
 59121  1  0  0  0  0
 59122  1  0  0  0  0
 60123  1  0  0  0  0
 60124  1  0  0  0  0
 60125  1  0  0  0  0
 66126  1  0  0  0  0
 66127  1  0  0  0  0
 67128  1  0  0  0  0
 67129  1  0  0  0  0
 67130  1  0  0  0  0
 74131  1  0  0  0  0
 74132  1  0  0  0  0
 75133  1  0  0  0  0
 75134  1  0  0  0  0
 75135  1  0  0  0  0
 76136  1  0  0  0  0
 81137  1  0  0  0  0
 84138  1  0  0  0  0
 85139  1  0  0  0  0
M  END
