125

C          6.23530        3.35520       -2.21470
C          6.62900        4.52770       -1.64460
C          5.90730        5.26450       -0.57410
O          4.79010        5.07390       -0.14300
C          6.87680        6.24450       -0.04560
C          6.66590        7.12900        1.01050
C          7.75120        7.91800        1.30400
C          8.96200        7.83120        0.60320
C          9.18210        6.96660       -0.44200
C          8.08710        6.15550       -0.75990
C          7.94270        5.13060       -1.78810
C          8.85750        4.84650       -2.76890
C         10.11470        5.47230       -2.89440
N         11.15630        5.93070       -3.04930
C          8.66400        3.91590       -3.81140
N          8.57900        3.19570       -4.70240
C          9.61680        8.89930        1.44400
C         10.60100        8.41560        2.53020
C         10.70140        9.59040        3.47630
C          9.55400        9.67570        4.13710
C          8.65870        8.55990        3.64880
C          9.71240        7.48220        3.36270
C          8.26560        8.99870        2.22210
C          4.93420        2.75510       -2.17120
C          3.75350        3.52870       -2.16760
C          2.51580        2.94730       -2.08520
C          2.42120        1.55620       -1.98650
C          1.37460        0.62500       -1.84490
C          1.94420       -0.65620       -1.82590
N          3.29940       -0.57550       -1.94370
C          3.61520        0.76070       -2.05020
C          4.85280        1.35690       -2.16740
C          4.19710       -1.69330       -2.07760
C          4.54130       -1.96470       -3.54130
C          0.90560       -1.58050       -1.62560
C          0.84690       -2.96560       -1.36490
C         -0.39680       -3.57730       -1.03300
N         -0.15330       -4.86120       -0.75850
N          1.14340       -4.98650       -0.91680
C          1.80650       -6.24740       -0.75600
C          1.91860       -6.97420       -2.09330
N          1.79300       -3.90420       -1.27630
C         -1.59070       -2.82830       -1.09380
C         -1.53790       -1.45920       -1.47720
C         -0.29090       -0.81000       -1.58270
N          0.00770        0.53850       -1.69280
C         -0.74580        1.61570       -1.08360
C         -0.12500        2.05300        0.24320
N         -2.82080       -0.95220       -1.61970
C         -3.21150        0.06610       -2.57350
C         -3.77800       -0.55430       -3.85080
C         -3.68370       -1.97230       -1.27590
C         -2.95490       -3.12570       -0.93580
N         -3.79710       -4.13450       -0.59080
C         -3.40520       -5.41770       -0.06400
C         -3.53850       -5.46810        1.45670
C         -5.07760       -3.63230       -0.66300
C         -5.04600       -2.26670       -1.11340
C         -6.25390       -1.57740       -1.28690
C         -7.42750       -2.21350       -0.99290
C         -7.46080       -3.54060       -0.48880
C         -6.26460       -4.26080       -0.36470
C         -8.73180       -4.08520       -0.15450
C         -9.05820       -5.07940        0.73190
C         -8.21310       -5.62900        1.81310
O         -7.02950       -5.46540        2.02650
C         -9.13520       -6.39930        2.68130
C         -8.83780       -7.06660        3.85180
C         -9.86770       -7.72220        4.51520
Cl        -9.56640       -8.57570        5.97910
C        -11.15830       -7.68260        3.98420
F        -12.14750       -8.31060        4.63310
C        -11.46300       -7.01500        2.80800
C        -10.43290       -6.36410        2.14730
C        -10.40640       -5.58500        0.91310
C        -11.46260       -5.43430        0.05130
C        -12.75070       -5.95820        0.28610
N        -13.81970       -6.35460        0.42120
C        -11.41580       -4.77240       -1.19390
N        -11.46370       -4.27940       -2.23040
H          6.99410        2.76520       -2.71660
H          5.71730        7.16110        1.52340
H         10.11910        6.91030       -0.97060
H          9.97440        9.77480        0.90550
H         11.53550        8.01170        2.15040
H         11.54750       10.25030        3.52550
H          9.24990       10.42110        4.84840
H          7.82340        8.28700        4.28810
H         10.20940        7.14160        4.26960
H          9.33130        6.62400        2.81230
H          7.72080        9.94080        2.20090
H          3.83320        4.59820       -2.26360
H          1.62480        3.55660       -2.09390
H          5.75750        0.76820       -2.20330
H          5.10800       -1.48530       -1.50800
H          3.69710       -2.56530       -1.64800
H          5.00830       -1.09350       -3.99490
H          5.22560       -2.80550       -3.61190
H          3.63810       -2.20280       -4.09790
H          2.79980       -6.05050       -0.34680
H          1.22040       -6.83570       -0.04740
H          2.48210       -6.37030       -2.80040
H          0.92910       -7.16290       -2.50260
H          2.42870       -7.92340       -1.95710
H         -0.77830        2.46290       -1.77690
H         -1.76020        1.27060       -0.88970
H         -0.73680        2.83120        0.69170
H         -0.07690        1.20900        0.92810
H          0.87950        2.44030        0.09850
H         -3.96140        0.71680       -2.11120
H         -2.33590        0.65760       -2.83730
H         -4.67060       -1.13660       -3.63910
H         -3.03800       -1.20760       -4.30790
H         -4.03290        0.23150       -4.55680
H         -2.36350       -5.57920       -0.35410
H         -4.02940       -6.19140       -0.52120
H         -3.20640       -6.43620        1.82110
H         -4.57100       -5.31550        1.76060
H         -2.92130       -4.69600        1.91020
H         -6.25490       -0.55810       -1.64350
H         -8.36430       -1.69000       -1.11380
H         -6.28210       -5.29280       -0.06350
H         -9.56640       -3.58820       -0.63660
H         -7.83120       -7.07680        4.23850
H        -12.48110       -7.01960        2.45480
