
  xtb     02022200253D
 energy: -195.374924433332 gnorm: 0.000505810367 xtb: 6.4.1 (unknown)
113127  0     0  0            999 V2000
   -0.4253    2.2153   -7.0697 C   0  0  0  0  0  0  0  0  0  0  0  0
   -1.3532    1.2452   -7.3565 C   0  0  0  0  0  0  0  0  0  0  0  0
   -1.9377    0.2958   -6.4063 C   0  0  0  0  0  0  0  0  0  0  0  0
   -1.6870    0.1842   -5.2168 O   0  0  0  0  0  0  0  0  0  0  0  0
   -2.9017   -0.5152   -7.1674 C   0  0  0  0  0  0  0  0  0  0  0  0
   -3.7059   -1.5409   -6.6774 C   0  0  0  0  0  0  0  0  0  0  0  0
   -4.5125   -2.1207   -7.6269 C   0  0  0  0  0  0  0  0  0  0  0  0
   -4.5216   -1.7062   -8.9650 C   0  0  0  0  0  0  0  0  0  0  0  0
   -3.7341   -0.6937   -9.4604 C   0  0  0  0  0  0  0  0  0  0  0  0
   -2.9011   -0.0936   -8.5124 C   0  0  0  0  0  0  0  0  0  0  0  0
   -1.9354    0.9953   -8.6599 C   0  0  0  0  0  0  0  0  0  0  0  0
   -1.6458    1.6395   -9.8368 C   0  0  0  0  0  0  0  0  0  0  0  0
   -2.2440    1.3438  -11.0793 C   0  0  0  0  0  0  0  0  0  0  0  0
   -2.6819    1.1668  -12.1261 N   0  0  0  0  0  0  0  0  0  0  0  0
   -0.7124    2.6838   -9.9992 C   0  0  0  0  0  0  0  0  0  0  0  0
    0.0272    3.5363  -10.2179 N   0  0  0  0  0  0  0  0  0  0  0  0
   -5.5603   -2.7264   -9.3575 C   0  0  0  0  0  0  0  0  0  0  0  0
   -5.0798   -3.9899  -10.1131 C   0  0  0  0  0  0  0  0  0  0  0  0
   -3.6427   -4.2101   -9.7103 C   0  0  0  0  0  0  0  0  0  0  0  0
   -3.6330   -4.6039   -8.4439 C   0  0  0  0  0  0  0  0  0  0  0  0
   -5.0636   -4.6568   -7.9673 C   0  0  0  0  0  0  0  0  0  0  0  0
   -5.7670   -5.0747   -9.2684 C   0  0  0  0  0  0  0  0  0  0  0  0
   -5.5493   -3.1895   -7.8665 C   0  0  0  0  0  0  0  0  0  0  0  0
    0.2025    2.5577   -5.8672 C   0  0  0  0  0  0  0  0  0  0  0  0
    1.1231    3.6121   -5.7562 C   0  0  0  0  0  0  0  0  0  0  0  0
    1.5272    4.5411   -6.8541 C   0  0  0  0  0  0  0  0  0  0  0  0
    0.5095    5.6736   -7.0092 C   0  0  0  0  0  0  0  0  0  0  0  0
    1.5967    3.7475   -4.4575 C   0  0  0  0  0  0  0  0  0  0  0  0
    2.8326    4.9527   -3.6651 Se  0  0  0  0  0  2  0  0  0  0  0  0
    2.4877    3.9987   -2.1060 C   0  0  0  0  0  0  0  0  0  0  0  0
    2.9089    3.9776   -0.7733 C   0  0  0  0  0  0  0  0  0  0  0  0
    3.9014    4.7474   -0.1308 C   0  0  0  0  0  0  0  0  0  0  0  0
    4.2359    4.4401    1.2238 C   0  0  0  0  0  0  0  0  0  0  0  0
    5.2123    5.1994    1.6946 N   0  0  0  0  0  0  0  0  0  0  0  0
    5.6704    6.2209    0.5209 S   0  0  0  0  0  0  0  0  0  0  0  0
    4.6375    5.7282   -0.6283 N   0  0  0  0  0  0  0  0  0  0  0  0
    3.4962    3.4430    1.8934 C   0  0  0  0  0  0  0  0  0  0  0  0
    3.5710    3.0202    3.2245 C   0  0  0  0  0  0  0  0  0  0  0  0
    4.5977    3.3470    4.7380 Se  0  0  0  0  0  2  0  0  0  0  0  0
    3.4646    2.0778    5.5667 C   0  0  0  0  0  0  0  0  0  0  0  0
    3.4245    1.5521    6.8612 C   0  0  0  0  0  0  0  0  0  0  0  0
    4.3650    1.9881    7.9360 C   0  0  0  0  0  0  0  0  0  0  0  0
    3.8163    3.2228    8.6549 C   0  0  0  0  0  0  0  0  0  0  0  0
    2.4148    0.6094    7.0066 C   0  0  0  0  0  0  0  0  0  0  0  0
    1.4884    0.4150    5.5188 S   0  0  0  0  0  0  0  0  0  0  0  0
    2.4820    1.5683    4.7072 C   0  0  0  0  0  0  0  0  0  0  0  0
    2.5459    2.0838    3.4076 C   0  0  0  0  0  0  0  0  0  0  0  0
    1.8669    1.9016    2.2317 N   0  0  0  0  0  0  0  0  0  0  0  0
    2.4389    2.7201    1.2714 C   0  0  0  0  0  0  0  0  0  0  0  0
    2.2035    2.9270   -0.1169 C   0  0  0  0  0  0  0  0  0  0  0  0
    1.3906    2.3166   -1.0551 N   0  0  0  0  0  0  0  0  0  0  0  0
    1.5657    2.9550   -2.2546 C   0  0  0  0  0  0  0  0  0  0  0  0
    1.0681    2.8077   -3.5563 C   0  0  0  0  0  0  0  0  0  0  0  0
   -0.0479    1.7409   -4.3259 S   0  0  0  0  0  0  0  0  0  0  0  0
    0.7299    1.0309   -1.0206 C   0  0  0  0  0  0  0  0  0  0  0  0
    1.7331   -0.1050   -0.8349 C   0  0  0  0  0  0  0  0  0  0  0  0
    0.5811    1.2414    2.2426 C   0  0  0  0  0  0  0  0  0  0  0  0
   -0.5585    2.2437    2.0739 C   0  0  0  0  0  0  0  0  0  0  0  0
    2.0497   -0.0581    8.1945 C   0  0  0  0  0  0  0  0  0  0  0  0
    1.2423   -1.1435    8.3591 C   0  0  0  0  0  0  0  0  0  0  0  0
    0.5829   -1.3810    9.6717 C   0  0  0  0  0  0  0  0  0  0  0  0
    0.8586   -0.8541   10.7265 O   0  0  0  0  0  0  0  0  0  0  0  0
   -0.5034   -2.3371    9.3842 C   0  0  0  0  0  0  0  0  0  0  0  0
   -1.5000   -2.8118   10.2151 C   0  0  0  0  0  0  0  0  0  0  0  0
   -2.4277   -3.6988    9.6920 C   0  0  0  0  0  0  0  0  0  0  0  0
   -2.3730   -4.1080    8.3609 C   0  0  0  0  0  0  0  0  0  0  0  0
   -3.4076   -5.0410    7.8163 C   0  0  0  0  0  0  0  0  0  0  0  0
   -1.3612   -3.6307    7.5291 C   0  0  0  0  0  0  0  0  0  0  0  0
   -0.4261   -2.7502    8.0409 C   0  0  0  0  0  0  0  0  0  0  0  0
    0.7533   -2.1383    7.4330 C   0  0  0  0  0  0  0  0  0  0  0  0
    1.4269   -2.6235    6.3414 C   0  0  0  0  0  0  0  0  0  0  0  0
    2.7321   -2.2103    6.0024 C   0  0  0  0  0  0  0  0  0  0  0  0
    3.8144   -1.9341    5.7364 N   0  0  0  0  0  0  0  0  0  0  0  0
    0.9347   -3.6378    5.4990 C   0  0  0  0  0  0  0  0  0  0  0  0
    0.5636   -4.4373    4.7625 N   0  0  0  0  0  0  0  0  0  0  0  0
   -0.1182    2.8364   -7.8998 H   0  0  0  0  0  0  0  0  0  0  0  0
   -3.6693   -1.8248   -5.6373 H   0  0  0  0  0  0  0  0  0  0  0  0
   -3.7572   -0.3877  -10.4927 H   0  0  0  0  0  0  0  0  0  0  0  0
   -6.4896   -2.3298   -9.7616 H   0  0  0  0  0  0  0  0  0  0  0  0
   -5.2830   -3.9817  -11.1805 H   0  0  0  0  0  0  0  0  0  0  0  0
   -2.8041   -4.0080  -10.3505 H   0  0  0  0  0  0  0  0  0  0  0  0
   -2.7843   -4.7965   -7.8140 H   0  0  0  0  0  0  0  0  0  0  0  0
   -5.2526   -5.2570   -7.0810 H   0  0  0  0  0  0  0  0  0  0  0  0
   -6.8506   -4.9722   -9.2284 H   0  0  0  0  0  0  0  0  0  0  0  0
   -5.5043   -6.0834   -9.5838 H   0  0  0  0  0  0  0  0  0  0  0  0
   -6.4721   -3.0961   -7.2970 H   0  0  0  0  0  0  0  0  0  0  0  0
    1.6326    4.0132   -7.8030 H   0  0  0  0  0  0  0  0  0  0  0  0
    2.4993    4.9701   -6.5903 H   0  0  0  0  0  0  0  0  0  0  0  0
    0.4245    6.2323   -6.0793 H   0  0  0  0  0  0  0  0  0  0  0  0
   -0.4698    5.2781   -7.2686 H   0  0  0  0  0  0  0  0  0  0  0  0
    0.8271    6.3503   -7.7972 H   0  0  0  0  0  0  0  0  0  0  0  0
    4.5334    1.1814    8.6491 H   0  0  0  0  0  0  0  0  0  0  0  0
    5.3211    2.2424    7.4688 H   0  0  0  0  0  0  0  0  0  0  0  0
    4.5140    3.5490    9.4213 H   0  0  0  0  0  0  0  0  0  0  0  0
    2.8611    3.0016    9.1259 H   0  0  0  0  0  0  0  0  0  0  0  0
    3.6732    4.0362    7.9458 H   0  0  0  0  0  0  0  0  0  0  0  0
   -0.0433    1.0189   -0.2530 H   0  0  0  0  0  0  0  0  0  0  0  0
    0.2267    0.9096   -1.9822 H   0  0  0  0  0  0  0  0  0  0  0  0
    2.3137    0.0215    0.0764 H   0  0  0  0  0  0  0  0  0  0  0  0
    2.4232   -0.1291   -1.6750 H   0  0  0  0  0  0  0  0  0  0  0  0
    1.2109   -1.0567   -0.7911 H   0  0  0  0  0  0  0  0  0  0  0  0
    0.4877    0.7521    3.2148 H   0  0  0  0  0  0  0  0  0  0  0  0
    0.5452    0.4565    1.4878 H   0  0  0  0  0  0  0  0  0  0  0  0
   -1.5127    1.7237    2.0683 H   0  0  0  0  0  0  0  0  0  0  0  0
   -0.4565    2.8043    1.1473 H   0  0  0  0  0  0  0  0  0  0  0  0
   -0.5551    2.9518    2.8997 H   0  0  0  0  0  0  0  0  0  0  0  0
    2.3765    0.4110    9.1172 H   0  0  0  0  0  0  0  0  0  0  0  0
   -1.5427   -2.4959   11.2461 H   0  0  0  0  0  0  0  0  0  0  0  0
   -3.2127   -4.0842   10.3263 H   0  0  0  0  0  0  0  0  0  0  0  0
   -4.2849   -4.4749    7.5009 H   0  0  0  0  0  0  0  0  0  0  0  0
   -3.7250   -5.7542    8.5733 H   0  0  0  0  0  0  0  0  0  0  0  0
   -3.0268   -5.5816    6.9536 H   0  0  0  0  0  0  0  0  0  0  0  0
   -1.3245   -3.9451    6.4977 H   0  0  0  0  0  0  0  0  0  0  0  0
  1  2  2  0  0  0  0
  2  3  1  0  0  0  0
  3  4  2  0  0  0  0
  3  5  1  0  0  0  0
  5  6  2  0  0  0  0
  6  7  1  0  0  0  0
  7  8  2  0  0  0  0
  8  9  1  0  0  0  0
  9 10  2  0  0  0  0
 10 11  1  0  0  0  0
 11 12  2  0  0  0  0
 12 13  1  0  0  0  0
 13 14  3  0  0  0  0
 12 15  1  0  0  0  0
 15 16  3  0  0  0  0
  8 17  1  0  0  0  0
 17 18  1  0  0  0  0
 18 19  1  0  0  0  0
 19 20  2  0  0  0  0
 20 21  1  0  0  0  0
 21 22  1  0  0  0  0
 21 23  1  0  0  0  0
  1 24  1  0  0  0  0
 24 25  2  0  0  0  0
 25 26  1  0  0  0  0
 26 27  1  0  0  0  0
 25 28  1  0  0  0  0
 28 29  1  0  0  0  0
 29 30  1  0  0  0  0
 30 31  1  0  0  0  0
 31 32  1  0  0  0  0
 32 33  1  0  0  0  0
 33 34  2  0  0  0  0
 34 35  1  0  0  0  0
 35 36  1  0  0  0  0
 33 37  1  0  0  0  0
 37 38  1  0  0  0  0
 38 39  1  0  0  0  0
 39 40  1  0  0  0  0
 40 41  1  0  0  0  0
 41 42  1  0  0  0  0
 42 43  1  0  0  0  0
 41 44  2  0  0  0  0
 44 45  1  0  0  0  0
 45 46  1  0  0  0  0
 46 47  1  0  0  0  0
 47 48  1  0  0  0  0
 48 49  1  0  0  0  0
 49 50  1  0  0  0  0
 50 51  1  0  0  0  0
 51 52  1  0  0  0  0
 52 53  1  0  0  0  0
 53 54  1  0  0  0  0
 51 55  1  0  0  0  0
 55 56  1  0  0  0  0
 48 57  1  0  0  0  0
 57 58  1  0  0  0  0
 44 59  1  0  0  0  0
 59 60  2  0  0  0  0
 60 61  1  0  0  0  0
 61 62  2  0  0  0  0
 61 63  1  0  0  0  0
 63 64  2  0  0  0  0
 64 65  1  0  0  0  0
 65 66  2  0  0  0  0
 66 67  1  0  0  0  0
 66 68  1  0  0  0  0
 68 69  2  0  0  0  0
 69 70  1  0  0  0  0
 70 71  2  0  0  0  0
 71 72  1  0  0  0  0
 72 73  3  0  0  0  0
 71 74  1  0  0  0  0
 74 75  3  0  0  0  0
 11  2  1  0  0  0  0
 23 17  1  0  0  0  0
 54 24  1  0  0  0  0
 70 60  1  0  0  0  0
 10  5  1  0  0  0  0
 22 18  1  0  0  0  0
 53 28  2  0  0  0  0
 69 63  1  0  0  0  0
 23  7  1  0  0  0  0
 52 30  2  0  0  0  0
 50 31  2  0  0  0  0
 36 32  2  0  0  0  0
 49 37  2  0  0  0  0
 47 38  2  0  0  0  0
 46 40  2  0  0  0  0
  1 76  1  0  0  0  0
  6 77  1  0  0  0  0
  9 78  1  0  0  0  0
 17 79  1  0  0  0  0
 18 80  1  0  0  0  0
 19 81  1  0  0  0  0
 20 82  1  0  0  0  0
 21 83  1  0  0  0  0
 22 84  1  0  0  0  0
 22 85  1  0  0  0  0
 23 86  1  0  0  0  0
 26 87  1  0  0  0  0
 26 88  1  0  0  0  0
 27 89  1  0  0  0  0
 27 90  1  0  0  0  0
 27 91  1  0  0  0  0
 42 92  1  0  0  0  0
 42 93  1  0  0  0  0
 43 94  1  0  0  0  0
 43 95  1  0  0  0  0
 43 96  1  0  0  0  0
 55 97  1  0  0  0  0
 55 98  1  0  0  0  0
 56 99  1  0  0  0  0
 56100  1  0  0  0  0
 56101  1  0  0  0  0
 57102  1  0  0  0  0
 57103  1  0  0  0  0
 58104  1  0  0  0  0
 58105  1  0  0  0  0
 58106  1  0  0  0  0
 59107  1  0  0  0  0
 64108  1  0  0  0  0
 65109  1  0  0  0  0
 67110  1  0  0  0  0
 67111  1  0  0  0  0
 67112  1  0  0  0  0
 68113  1  0  0  0  0
M  END
