106

C         -7.01940        4.66510       -1.40770
C         -6.66070        5.96290       -1.13410
C         -5.37220        6.38780       -0.60280
O         -4.42320        5.66970       -0.30300
C         -5.41920        7.85060       -0.48570
C         -4.40680        8.69420       -0.03410
C         -4.74290       10.02680       -0.04760
C         -5.99310       10.48550       -0.48260
C         -7.00060        9.66320       -0.93040
C         -6.68250        8.30310       -0.92130
C         -7.48050        7.14430       -1.32460
C         -8.76560        7.19600       -1.79880
C         -9.51500        8.38200       -1.95140
N        -10.18860        9.30010       -2.10280
C         -9.53960        6.08970       -2.20830
N        -10.23940        5.25190       -2.56730
C         -5.64350       11.92900       -0.22310
C         -6.22880       12.59550        1.04620
C         -6.46740       11.48690        2.04120
C         -5.28440       11.05340        2.45580
C         -4.22420       11.86010        1.74770
C         -4.94690       13.21160        1.62910
C         -4.25060       11.41810        0.26330
C         -6.29160        3.47340       -1.28860
C         -6.85840        2.24990       -1.65650
C         -6.02690        1.15400       -1.52660
S         -6.31080       -0.54470       -1.86680
C         -4.68880       -0.88280       -1.37380
C         -3.82490       -1.97610       -1.22550
C         -4.05030       -3.36110       -1.38600
C         -2.98740       -4.27570       -1.08890
N         -3.35150       -5.53980       -1.23580
S         -4.89830       -5.57560       -1.71040
N         -5.16340       -3.97960       -1.74770
C         -1.71610       -3.75640       -0.75770
C         -0.48020       -4.39750       -0.59630
C          0.48310       -3.39340       -0.44060
N         -0.11810       -2.16370       -0.47940
C          0.70260       -0.98210       -0.59190
C          1.23540       -0.52830        0.76790
C         -1.47580       -2.35380       -0.65630
C         -2.57240       -1.45990       -0.77450
N         -2.69970       -0.08960       -0.61420
C         -3.97780        0.25450       -0.97700
C         -4.72980        1.42940       -1.04520
Se        -4.50240        3.24730       -0.68930
C         -1.99230        0.83590        0.24280
C         -2.55360        0.80490        1.66340
C          1.78240       -3.90360       -0.35990
C          1.78210       -5.31120       -0.44870
S          0.17910       -5.99380       -0.62150
C          3.02300       -5.93610       -0.40300
C          4.09420       -5.07020       -0.28030
Se         3.51720       -3.25130       -0.19000
C          5.48340       -5.28130       -0.18930
C          6.24860       -6.41130       -0.28480
C          5.83740       -7.78720       -0.65450
O          4.71840       -8.22520       -0.83890
C          7.08730       -8.55170       -0.77900
C          7.24370       -9.87890       -1.14310
C          8.52370      -10.40920       -1.20280
O          8.82500      -11.68140       -1.53980
C          7.77150      -12.55800       -1.86720
C          9.64440       -9.58520       -0.89290
O         10.84200      -10.19950       -0.98480
C         12.01010       -9.45840       -0.70860
C          9.46780       -8.25770       -0.52940
C          8.18100       -7.73560       -0.46950
C          7.69480       -6.41090       -0.11520
C          8.47810       -5.38300        0.35070
C          8.03290       -4.11690        0.78280
N          7.76560       -3.06750        1.17050
C          9.87750       -5.47100        0.49960
N         11.01780       -5.47730        0.64140
H         -8.02120        4.51040       -1.79240
H         -3.45640        8.29680        0.28600
H         -7.95480       10.03700       -1.26130
H         -5.67090       12.58830       -1.08830
H         -7.06650       13.26210        0.86030
H         -7.44010       11.10530        2.29040
H         -5.07140       10.23690        3.12080
H         -3.23660       11.85890        2.20150
H         -5.11020       13.68820        2.59450
H         -4.45450       13.90910        0.95290
H         -3.36800       11.74550       -0.28280
H         -7.87060        2.18220       -2.01860
H          0.14060       -0.20040       -1.10490
H          1.55880       -1.23900       -1.23020
H          1.94860       -1.25890        1.14730
H          1.74480        0.42600        0.66870
H          0.43660       -0.43200        1.49950
H         -2.13000        1.83860       -0.18310
H         -0.93310        0.61560        0.26910
H         -3.60180        1.09640        1.66480
H         -2.00270        1.49920        2.29150
H         -2.47060       -0.19600        2.08310
H          3.15650       -7.00160       -0.46980
H          6.03500       -4.36140       -0.02210
H          6.36770      -10.46480       -1.36930
H          8.24600      -13.50900       -2.10280
H          7.21270      -12.20440       -2.73930
H          7.08580      -12.69260       -1.02500
H         12.12200       -8.61480       -1.39620
H         12.83530      -10.15350       -0.85190
H         12.01900       -9.08990        0.32140
H         10.32010       -7.64300       -0.30060
