102

C          3.83230       -5.09360        3.45350
C          3.04500       -4.90840        4.54940
C          3.60580       -5.10610        5.91250
O          4.62280       -5.69480        6.20120
C          2.69490       -4.37060        6.81430
C          2.86400       -4.13250        8.17690
C          1.85930       -3.38540        8.74430
C          0.76820       -2.89660        8.01250
C          0.58380       -3.12660        6.67010
C          1.58930       -3.89480        6.07800
C          1.71140       -4.37160        4.70380
C          0.66620       -4.55140        3.83070
C         -0.64520       -4.09280        4.05970
N         -1.72350       -3.71820        4.18410
C          0.78420       -5.30930        2.64660
N          0.83740       -5.94950        1.69450
C          0.15740       -2.22550        9.21690
C         -1.04700       -2.94150        9.86400
C         -1.11950       -2.34520       11.25110
C         -0.09030       -2.81320       11.94560
C          0.69510       -3.73400       11.03960
C         -0.44880       -4.31410       10.19780
C          1.36960       -2.77590       10.03470
C          3.69420       -4.55030        2.15690
C          4.44350       -4.92650        1.05550
C          4.20040       -4.18560       -0.09810
S          4.87010       -4.31150       -1.71160
C          3.88990       -2.97570       -2.20200
C          3.63940       -2.19040       -3.33500
C          4.23520       -2.22470       -4.61420
C          3.85110       -1.24130       -5.58040
N          4.51050       -1.36710       -6.72170
S          5.52480       -2.62110       -6.59020
N          5.16520       -3.04880       -5.07150
C          2.84760       -0.30880       -5.24000
C          2.26010        0.70540       -6.00760
C          1.27390        1.29480       -5.21070
N          1.23030        0.67980       -3.98990
C          0.16660        1.04370       -3.08560
C          0.50060        2.30980       -2.29640
C          2.20510       -0.30320       -3.96380
C          2.65060       -1.22320       -2.97410
N          2.35070       -1.41190       -1.63610
C          3.08580       -2.46860       -1.17660
C          3.26320       -3.14610        0.03160
Se         2.59320       -3.05480        1.76330
C          1.48460       -0.73760       -0.70060
C          0.16140       -1.48210       -0.52000
C          0.58230        2.31190       -5.87490
C          1.05880        2.47760       -7.18710
S          2.36380        1.38330       -7.59300
C          0.44050        3.47660       -7.93400
C         -0.58470        4.13980       -7.28240
Se        -0.79620        3.50720       -5.50630
C         -1.28420        5.24740       -7.81200
C         -2.37070        5.90010       -7.31780
C         -2.64290        7.30300       -7.72340
O         -2.18590        7.88770       -8.67840
C         -3.52560        7.84080       -6.66340
C         -3.96960        9.13470       -6.48070
C         -4.75460        9.39670       -5.36650
C         -5.05510        8.40410       -4.44870
C         -4.60520        7.09090       -4.62000
O         -4.78550        6.08960       -3.73770
C         -5.62780        6.28420       -2.62410
C         -3.86130        6.80810       -5.77080
C         -3.32820        5.55290       -6.28340
C         -3.86380        4.30190       -6.10830
C         -3.46870        3.20800       -6.91010
N         -3.19140        2.30720       -7.56650
C         -4.94530        3.96270       -5.26980
N         -5.83120        3.57850       -4.64880
H          4.74470       -5.65630        3.62950
H          3.72170       -4.51820        8.70520
H         -0.25160       -2.73890        6.11000
H          0.02420       -1.14770        9.14400
H         -1.95860       -2.92210        9.27310
H         -1.85610       -1.62560       11.55720
H          0.20480       -2.56250       12.94760
H          1.36930       -4.43660       11.52180
H         -1.12700       -4.92500       10.79110
H         -0.11870       -4.87810        9.32740
H          2.04340       -2.06580       10.51070
H          5.13450       -5.75100        1.09070
H         -0.07180        0.20670       -2.43580
H         -0.72300        1.24240       -3.69930
H         -0.26890        2.49680       -1.55270
H          0.54410        3.16620       -2.96850
H          1.46550        2.22900       -1.79950
H          1.33640        0.29450       -1.00330
H          2.00920       -0.72210        0.26530
H         -0.50060       -0.91380        0.12740
H         -0.33400       -1.65300       -1.47350
H          0.33910       -2.45400       -0.06090
H          0.71310        3.70510       -8.94980
H         -0.82920        5.70680       -8.68490
H         -3.71140        9.90550       -7.18870
H         -5.13010       10.39460       -5.19740
H         -5.64380        8.65830       -3.58150
H         -5.69960        5.30860       -2.14730
H         -5.20150        7.00850       -1.92320
H         -6.62560        6.60740       -2.93170
