101

C         -5.01480       -2.24750        1.88890
C         -5.06710       -1.97390        3.23000
C         -4.07590       -1.28790        4.08790
O         -3.09990       -0.63790        3.76210
C         -4.49930       -1.53950        5.47700
C         -3.82370       -1.15620        6.63360
C         -4.44160       -1.54540        7.79700
C         -5.64040       -2.27150        7.81030
C         -6.31850       -2.65210        6.67710
C         -5.71230       -2.25440        5.48180
C         -6.13150       -2.45670        4.09810
C         -7.35440       -2.93970        3.71080
C         -7.82390       -3.04670        2.38370
N         -8.30030       -3.15030        1.34350
C         -8.36460       -3.35340        4.60510
N         -9.23240       -3.70570        5.26920
C         -5.68600       -2.32130        9.31700
C         -6.66670       -1.36400       10.03820
C         -6.86340       -0.18310        9.12030
C         -5.73280        0.51020        9.10520
C         -4.75110       -0.18920       10.01270
C         -5.71330       -0.74660       11.07380
C         -4.35390       -1.50700        9.30190
C         -4.08530       -1.90170        0.88910
Se        -4.39000       -2.64090       -0.86180
C         -2.85790       -1.74660       -1.35450
C         -2.04790       -1.52490       -2.47830
C         -2.19110       -1.87720       -3.83880
C         -1.24450       -1.37800       -4.79900
N         -1.55510       -1.72820       -6.03680
S         -2.91030       -2.61240       -6.00040
N         -3.15850       -2.58320       -4.40030
C         -0.10700       -0.67460       -4.33600
C          1.05370       -0.21170       -4.97340
S          1.70450       -0.08590       -6.57030
C          3.17660        0.57830       -5.88550
C          4.36990        0.99100       -6.45890
C          4.60460        0.98770       -7.93380
C          4.32750        2.37000       -8.53190
C          5.27610        1.44710       -5.48230
S          4.60370        1.35210       -3.85170
C          3.14240        0.69460       -4.48380
C          1.92410        0.24530       -3.97130
N          1.33550        0.10660       -2.73900
C          0.07930       -0.42710       -2.94670
C         -0.97220       -0.70650       -2.04750
N         -1.15540       -0.37160       -0.72090
C         -2.29220       -1.01800       -0.28730
C         -2.95820       -1.09530        0.93130
C         -0.72050        0.85620       -0.08340
C         -1.83940        1.89770       -0.06530
C          2.15690       -0.03130       -1.55240
C          3.09770       -1.22980       -1.66910
C          6.56230        1.89170       -5.79470
C          7.57250        2.37370       -4.99510
C          7.50570        2.58480       -3.54770
O          6.57330        2.34350       -2.79980
C          8.80840        3.15580       -3.15690
C          9.24040        3.54580       -1.90390
C         10.52100        4.06080       -1.77740
C         11.31940        4.16530       -2.90630
F         12.55710        4.66670       -2.76720
C         10.90670        3.77940       -4.17510
C          9.62640        3.26640       -4.29500
C          8.88420        2.77460       -5.45840
C          9.38180        2.70170       -6.73440
C         10.68630        3.09640       -7.09990
N         11.73050        3.39850       -7.46920
C          8.68940        2.21940       -7.86460
N          8.19860        1.84230       -8.83300
H         -5.81800       -2.87300        1.51180
H         -2.89810       -0.60470        6.57760
H         -7.23570       -3.21600        6.70500
H         -5.67160       -3.31410        9.76220
H         -7.57050       -1.83950       10.40930
H         -7.75710       -0.01130        8.54970
H         -5.49310        1.37780        8.51860
H         -3.91130        0.40610       10.36150
H         -5.25360       -1.48150       11.73330
H         -6.18510        0.03560       11.66650
H         -3.47040       -1.96560        9.74190
H          5.62760        0.69000       -8.16900
H          3.92530        0.26200       -8.38530
H          4.49670        2.34660       -9.60450
H          4.98490        3.11820       -8.09520
H          3.29660        2.66270       -8.34640
H         -2.64430       -0.60950        1.83820
H          0.11880        1.26880       -0.64090
H         -0.40580        0.62990        0.93980
H         -2.68480        1.55390        0.52360
H         -1.46660        2.82130        0.36870
H         -2.17980        2.10080       -1.07850
H          2.74060        0.88570       -1.42720
H          1.51660       -0.18170       -0.68590
H          2.52700       -2.14350       -1.82230
H          3.78900       -1.10410       -2.49730
H          3.67370       -1.32620       -0.75330
H          6.78540        1.83970       -6.85140
H          8.58770        3.44780       -1.05060
H         10.90930        4.38120       -0.82370
H         11.58090        3.89020       -5.00790
