108

C         -2.14400        2.67550       -4.21640
C         -3.49670        2.75940       -4.43370
C         -4.59630        1.99400       -3.81200
O         -4.54000        1.01050       -3.09860
C         -5.84320        2.66570       -4.22790
C         -7.13520        2.33930       -3.82420
C         -8.10780        3.15590       -4.34830
C         -7.81620        4.21730       -5.21500
C         -6.54640        4.54300       -5.62860
C         -5.54140        3.72550       -5.10330
C         -4.09360        3.76500       -5.29510
C         -3.44380        4.58930       -6.18140
C         -4.08340        5.53600       -7.00810
N         -4.52470        6.33020       -7.71090
C         -2.05740        4.61030       -6.43610
N         -0.94410        4.69210       -6.71360
C         -9.26370        4.62470       -5.33140
C         -9.73100        5.86250       -4.52620
C         -8.81060        5.97320       -3.33620
C         -9.08640        4.96820       -2.51590
C        -10.19850        4.15950       -3.13670
C        -10.97960        5.27550       -3.84860
C         -9.58860        3.44140       -4.36620
C         -1.36520        1.81740       -3.42490
C         -1.71970        0.67480       -2.67780
C         -0.55580        0.23570       -2.07710
C          0.49270        1.09930       -2.46860
N          0.00670        2.04110       -3.29700
C          0.77870        3.14640       -3.81480
C          0.57930        4.41070       -2.98110
C          1.66590        0.64850       -1.83420
C          3.01900        1.04490       -1.91050
C          3.99930        0.35290       -1.11910
N          5.22640        0.80180       -1.32560
S          5.16710        1.99240       -2.41750
N          3.56390        1.98450       -2.67050
C          3.56600       -0.62060       -0.19150
C          4.22990       -1.26420        0.86190
S          5.81170       -1.34360        1.54960
C          5.17250       -2.29610        2.87170
C          5.74790       -2.78850        4.05060
C          7.20730       -2.75520        4.35390
C          8.06180       -3.22410        3.17800
C          4.79210       -3.41560        4.84530
S          3.20590       -3.46890        4.07310
C          3.79780       -2.55060        2.74220
C          3.26160       -1.96840        1.59060
N          2.03310       -1.81210        1.00360
C          2.19500       -0.99320       -0.09740
C          1.26960       -0.45470       -1.02230
N         -0.07470       -0.72780       -1.21770
C         -0.70860       -2.02710       -1.14030
C         -0.97540       -2.60700       -2.52910
C          0.82610       -2.16190        1.72100
C          0.58040       -3.66970        1.74430
C          4.89330       -4.03050        6.10870
C          5.67800       -3.62000        7.15430
C          6.19780       -2.24230        7.31130
O          6.14650       -1.33800        6.50590
C          6.67650       -2.16550        8.70860
C          7.22790       -1.09630        9.39500
Cl         7.48020        0.41590        8.62320
C          7.58450       -1.26760       10.73130
C          7.37940       -2.48480       11.35570
C          6.82650       -3.56630       10.67940
C          6.47790       -3.40300        9.35010
C          5.88930       -4.33550        8.39060
C          5.66650       -5.67230        8.59810
C          5.91060       -6.34040        9.81520
N          6.08190       -6.93890       10.77990
C          5.19870       -6.56120        7.60740
N          4.84570       -7.34090        6.84170
H         -1.56250        3.43090       -4.72530
H         -7.31340        1.51300       -3.15370
H         -6.34130        5.36450       -6.29400
H         -9.68830        4.59740       -6.33290
H         -9.85940        6.76420       -5.11890
H         -8.03840        6.71440       -3.24340
H         -8.59030        4.70160       -1.60100
H        -10.75350        3.51080       -2.46380
H        -11.72170        4.90380       -4.55380
H        -11.44820        5.97090       -3.15380
H        -10.22610        2.64120       -4.73760
H         -2.71110        0.27910       -2.60530
H          0.51210        3.33290       -4.85850
H          1.82950        2.84820       -3.76890
H         -0.46530        4.71440       -2.97030
H          0.90080        4.23770       -1.95670
H          1.17110        5.21860       -3.40070
H          7.48010       -1.73110        4.62480
H          7.40560       -3.38870        5.22050
H          7.98270       -2.54310        2.33570
H          7.75300       -4.21610        2.85540
H          9.10410       -3.27000        3.48280
H         -0.04370       -2.70330       -0.61050
H         -1.65310       -1.93510       -0.59370
H         -1.68290       -1.99380       -3.07870
H         -1.38670       -3.60800       -2.42940
H         -0.04950       -2.66470       -3.09780
H         -0.01350       -1.62530        1.28050
H          0.94100       -1.81430        2.75410
H          1.36230       -4.17090        2.30790
H         -0.37240       -3.87470        2.22360
H          0.56480       -4.09290        0.74280
H          4.21820       -4.86290        6.27370
H          8.01870       -0.44150       11.27150
H          7.65420       -2.59780       12.39330
H          6.67200       -4.50120       11.19200
