188

C          0.00840        6.39320        6.60840
C          1.19140        6.69830        7.23250
C          2.39640        5.85350        7.36820
O          2.51080        4.65080        7.22390
C          3.49890        6.77950        7.69380
C          4.84870        6.45680        7.80990
C          5.65950        7.53240        8.08100
C          5.16470        8.83490        8.22820
C          3.83360        9.16460        8.12980
C          2.99260        8.08370        7.85240
C          1.54580        8.03850        7.66070
C          0.67530        9.06500        7.92220
C          1.06650       10.34840        8.35470
N          1.31530       11.41440        8.70210
C         -0.73120        8.97170        7.85720
N         -1.87990        8.97280        7.85920
C          6.53800        9.41660        8.45200
C          7.20380       10.16600        7.27110
C          6.61930        9.58470        6.00780
C          7.08900        8.35160        5.87400
C          7.99940        8.07670        7.04530
C          8.58020        9.48150        7.27200
C          7.08900        7.96450        8.29350
C         -0.45670        5.16880        6.10300
S         -1.77350        5.25870        4.91320
C         -1.69370        3.56010        4.67850
C         -2.21280        2.53770        3.89240
S         -3.31960        2.30920        2.57650
C         -2.87680        0.63400        2.54540
C         -3.14370       -0.43710        1.63760
C         -2.35620       -1.53470        2.05070
C         -1.62750       -1.21830        3.35510
C         -0.13330       -1.42200        3.18330
C          0.49410       -0.81230        2.09860
C          1.84850       -0.94730        1.89750
C          2.62910       -1.69980        2.77970
O          3.95020       -1.77490        2.47070
C          4.84590       -2.42670        3.34830
C          5.18530       -1.58380        4.57430
C          2.00760       -2.30760        3.86370
C          0.64260       -2.16470        4.05710
C         -2.23190       -2.04780        4.47630
C         -2.88910       -1.46420        5.54780
C         -3.45030       -2.22750        6.55920
C         -3.36930       -3.61360        6.51650
O         -3.89170       -4.47510        7.42830
C         -4.53820       -3.97730        8.58250
C         -3.55600       -3.50520        9.65090
C         -2.71000       -4.20740        5.43730
C         -2.15620       -3.43890        4.43900
C         -1.95450        0.25050        3.50430
C         -1.55870        1.33900        4.28810
N         -0.69080        1.60780        5.30940
C         -0.73420        2.96000        5.53610
C         -0.04970        3.86290        6.33550
C          0.23290        0.70280        5.94480
C          1.65390        0.89200        5.42050
C         -2.24250       -2.64980        1.25460
C         -2.94790       -2.65340        0.05460
C         -2.91280       -3.57360       -1.04050
C         -3.78630       -3.18040       -2.03950
C         -4.33720       -1.80250       -1.72940
C         -3.77450       -1.57400       -0.33430
C         -3.88100       -0.45540        0.45660
C         -5.83440       -1.65700       -1.74630
C         -6.43400       -0.40600       -1.71840
C         -7.81090       -0.26870       -1.69880
C         -8.62570       -1.39650       -1.70840
O         -9.98510       -1.39850       -1.72120
C        -10.69580       -0.18640       -1.56590
C        -10.69850        0.31200       -0.12390
C         -8.02480       -2.65660       -1.73180
C         -6.65290       -2.78170       -1.74480
C         -3.58770       -0.98100       -2.78370
C         -2.19750       -0.95000       -2.73150
C         -1.44070       -0.56860       -3.82070
C         -2.06670       -0.19400       -5.00650
O         -1.42450        0.07210       -6.17090
C         -0.06190       -0.30500       -6.29100
C          0.32710       -0.18550       -7.75600
C         -3.45770       -0.09280       -5.01840
C         -4.20480       -0.49230       -3.92820
C         -3.55350       -3.88750       -3.22740
C         -2.40770       -4.71520       -3.12760
S         -1.76510       -4.79110       -1.51440
C         -2.06130       -5.07110       -4.42910
S         -0.75370       -5.72270       -5.32650
C         -1.54780       -5.27450       -6.83080
C         -2.80060       -4.71240       -6.62810
C         -3.06450       -4.53100       -5.27670
N         -3.97570       -3.83070       -4.52810
C         -5.24020       -3.33920       -5.01200
C         -6.20150       -4.48850       -5.31010
C         -0.91650       -5.45010       -8.08380
C          0.41360       -5.23620       -8.32570
C          1.27200       -4.36600       -7.48680
O          0.99500       -3.82920       -6.43290
C          2.49800       -4.14050       -8.27370
C          3.58230       -3.34660       -7.90870
C          4.59080       -3.31500       -8.84100
C          4.52220       -4.01410      -10.05340
C          3.45130       -4.78910      -10.43190
C          2.41590       -4.83890       -9.49430
C          1.13440       -5.53870       -9.54130
C          0.71650       -6.39170      -10.53160
C         -0.49900       -7.10600      -10.50630
N         -1.46300       -7.72950      -10.54780
C          1.45290       -6.68560      -11.69620
N          1.99830       -6.96180      -12.66850
C          5.88440       -3.53940      -10.49470
C          7.06610       -4.53410      -10.38170
C          6.71370       -5.49540       -9.27360
C          6.77830       -4.83260       -8.12660
C          7.17480       -3.41070       -8.43870
C          8.08640       -3.64410       -9.65380
C          5.95960       -2.75960       -9.14420
H         -0.64730        7.22880        6.38940
H          5.18830        5.44040        7.68440
H          3.46760       10.17150        8.24200
H          6.69450        9.92130        9.40330
H          7.18280       11.24920        7.35500
H          5.90170       10.09300        5.39070
H          6.84170        7.62390        5.12330
H          8.70360        7.25750        6.92420
H          9.11480        9.58320        8.21540
H          9.21560        9.81200        6.45150
H          7.60270        7.51950        9.14360
H         -0.09230       -0.22600        1.40580
H          2.33540       -0.47930        1.05670
H          4.45500       -3.40820        3.64380
H          5.74570       -2.58350        2.74690
H          4.30120       -1.40490        5.18110
H          5.58480       -0.62270        4.26080
H          5.92950       -2.09700        5.17700
H          2.56540       -2.90250        4.56960
H          0.19050       -2.65100        4.90920
H         -2.97860       -0.39040        5.61350
H         -3.95220       -1.71810        7.36660
H         -5.11170       -4.82900        8.95920
H         -5.24220       -3.17890        8.31770
H         -2.95270       -2.67680        9.28750
H         -2.89060       -4.32000        9.92480
H         -4.10230       -3.18360       10.53330
H         -2.65070       -5.28380        5.40500
H         -1.64990       -3.92890        3.62320
H          0.71790        3.61580        7.04280
H          0.20800        0.89070        7.02310
H         -0.10980       -0.31580        5.75560
H          2.00380        1.90080        5.62470
H          1.68750        0.71580        4.34810
H          2.31980        0.18750        5.91030
H         -1.59060       -3.47390        1.49770
H         -4.46380        0.40400        0.16560
H         -5.82050        0.48270       -1.72220
H         -8.22980        0.72510       -1.68050
H        -11.71560       -0.43130       -1.87560
H        -10.30640        0.58220       -2.24500
H        -11.12170       -0.44880        0.52720
H        -11.29830        1.21480       -0.04920
H         -9.68830        0.52910        0.21490
H         -8.66240       -3.52640       -1.73680
H         -6.20690       -3.76590       -1.74890
H         -1.68660       -1.27410       -1.83690
H         -0.36560       -0.59990       -3.74690
H          0.56670        0.35640       -5.67890
H          0.07390       -1.34040       -5.95180
H         -0.29290       -0.84420       -8.35840
H          1.36830       -0.46870       -7.88250
H          0.18690        0.83570       -8.10020
H         -3.94090        0.25870       -5.91660
H         -5.28160       -0.44330       -3.98930
H         -3.42080       -4.37520       -7.43890
H         -5.06330       -2.74850       -5.91590
H         -5.66680       -2.69420       -4.24380
H         -6.39180       -5.06360       -4.40690
H         -5.78400       -5.15300       -6.06260
H         -7.14570       -4.09410       -5.67470
H         -1.56720       -5.70280       -8.91350
H          3.59320       -2.82490       -6.96430
H          3.40740       -5.31080      -11.37340
H          5.91380       -2.96430      -11.41820
H          7.37220       -4.97980      -11.32420
H          6.40710       -6.51170       -9.43790
H          6.53560       -5.18430       -7.14090
H          7.58020       -2.83270       -7.61210
H          8.33020       -2.73090      -10.19520
H          9.00180       -4.17540       -9.39770
H          6.03640       -1.67460       -9.18610
