
  xtb     02102220353D
 energy: -207.424001123795 gnorm: 0.000320892646 xtb: 6.4.1 (unknown)
125139  0     0  0            999 V2000
    4.6876    1.7651    5.2670 C   0  0  0  0  0  0  0  0  0  0  0  0
    5.9931    1.8382    4.8774 C   0  0  0  0  0  0  0  0  0  0  0  0
    6.5952    1.3280    3.6202 C   0  0  0  0  0  0  0  0  0  0  0  0
    6.0487    0.9974    2.5876 O   0  0  0  0  0  0  0  0  0  0  0  0
    8.0455    1.2398    3.8817 C   0  0  0  0  0  0  0  0  0  0  0  0
    9.0124    0.7287    3.0188 C   0  0  0  0  0  0  0  0  0  0  0  0
   10.2872    0.7538    3.5296 C   0  0  0  0  0  0  0  0  0  0  0  0
   10.5813    1.2499    4.8069 C   0  0  0  0  0  0  0  0  0  0  0  0
    9.6384    1.7632    5.6651 C   0  0  0  0  0  0  0  0  0  0  0  0
    8.3335    1.7468    5.1632 C   0  0  0  0  0  0  0  0  0  0  0  0
    7.0847    2.1924    5.7707 C   0  0  0  0  0  0  0  0  0  0  0  0
    6.9726    2.8996    6.9393 C   0  0  0  0  0  0  0  0  0  0  0  0
    5.7694    3.4260    7.4560 C   0  0  0  0  0  0  0  0  0  0  0  0
    4.8432    3.9100    7.9329 N   0  0  0  0  0  0  0  0  0  0  0  0
    8.0590    3.2446    7.7692 C   0  0  0  0  0  0  0  0  0  0  0  0
    8.8950    3.5528    8.4938 N   0  0  0  0  0  0  0  0  0  0  0  0
   12.0527    0.9472    4.6725 C   0  0  0  0  0  0  0  0  0  0  0  0
   12.6023   -0.3025    5.4038 C   0  0  0  0  0  0  0  0  0  0  0  0
   11.4490   -1.2660    5.5346 C   0  0  0  0  0  0  0  0  0  0  0  0
   11.1718   -1.7327    4.3244 C   0  0  0  0  0  0  0  0  0  0  0  0
   12.1328   -1.0927    3.3532 C   0  0  0  0  0  0  0  0  0  0  0  0
   13.3747   -0.9603    4.2490 C   0  0  0  0  0  0  0  0  0  0  0  0
   11.7256    0.3979    3.2481 C   0  0  0  0  0  0  0  0  0  0  0  0
    3.5235    1.4426    4.5019 C   0  0  0  0  0  0  0  0  0  0  0  0
    2.4284    0.8611    5.1873 C   0  0  0  0  0  0  0  0  0  0  0  0
    1.2979    0.4484    4.5349 C   0  0  0  0  0  0  0  0  0  0  0  0
    1.2045    0.6299    3.1493 C   0  0  0  0  0  0  0  0  0  0  0  0
    0.2642    0.3435    2.1390 C   0  0  0  0  0  0  0  0  0  0  0  0
    0.7789    0.8297    0.9292 C   0  0  0  0  0  0  0  0  0  0  0  0
    1.9946    1.4071    1.1266 N   0  0  0  0  0  0  0  0  0  0  0  0
    2.2795    1.2951    2.4667 C   0  0  0  0  0  0  0  0  0  0  0  0
    3.4176    1.6985    3.1324 C   0  0  0  0  0  0  0  0  0  0  0  0
    2.8053    2.0583    0.1303 C   0  0  0  0  0  0  0  0  0  0  0  0
    2.6294    3.5753    0.1734 C   0  0  0  0  0  0  0  0  0  0  0  0
   -0.1272    0.4804   -0.0823 C   0  0  0  0  0  0  0  0  0  0  0  0
   -0.0748    0.5820   -1.4866 C   0  0  0  0  0  0  0  0  0  0  0  0
   -1.0907   -0.0208   -2.2742 C   0  0  0  0  0  0  0  0  0  0  0  0
   -0.7699    0.1616   -3.5580 N   0  0  0  0  0  0  0  0  0  0  0  0
    0.3562    0.8345   -3.5158 N   0  0  0  0  0  0  0  0  0  0  0  0
    1.0610    1.2050   -4.7079 C   0  0  0  0  0  0  0  0  0  0  0  0
    2.0875    0.1400   -5.0841 C   0  0  0  0  0  0  0  0  0  0  0  0
    0.8241    1.1108   -2.3212 N   0  0  0  0  0  0  0  0  0  0  0  0
   -2.2006   -0.6186   -1.6450 C   0  0  0  0  0  0  0  0  0  0  0  0
   -2.3102   -0.6338   -0.2214 C   0  0  0  0  0  0  0  0  0  0  0  0
   -1.2121   -0.1903    0.5599 C   0  0  0  0  0  0  0  0  0  0  0  0
   -0.9472   -0.2698    1.9216 N   0  0  0  0  0  0  0  0  0  0  0  0
   -1.4606   -1.2138    2.8893 C   0  0  0  0  0  0  0  0  0  0  0  0
   -1.3939   -2.6515    2.3795 C   0  0  0  0  0  0  0  0  0  0  0  0
   -3.5400   -1.1783    0.1302 N   0  0  0  0  0  0  0  0  0  0  0  0
   -4.3172   -0.9539    1.3303 C   0  0  0  0  0  0  0  0  0  0  0  0
   -4.3300    0.5170    1.7386 C   0  0  0  0  0  0  0  0  0  0  0  0
   -4.1739   -1.5383   -1.0367 C   0  0  0  0  0  0  0  0  0  0  0  0
   -3.3699   -1.2140   -2.1401 C   0  0  0  0  0  0  0  0  0  0  0  0
   -3.9730   -1.5946   -3.2971 N   0  0  0  0  0  0  0  0  0  0  0  0
   -3.4944   -1.3382   -4.6321 C   0  0  0  0  0  0  0  0  0  0  0  0
   -4.2651   -0.2001   -5.2983 C   0  0  0  0  0  0  0  0  0  0  0  0
   -5.1815   -2.1566   -2.9535 C   0  0  0  0  0  0  0  0  0  0  0  0
   -5.3442   -2.1461   -1.5242 C   0  0  0  0  0  0  0  0  0  0  0  0
   -6.4945   -2.7272   -0.9729 C   0  0  0  0  0  0  0  0  0  0  0  0
   -7.4355   -3.2638   -1.8073 C   0  0  0  0  0  0  0  0  0  0  0  0
   -7.2985   -3.2387   -3.2203 C   0  0  0  0  0  0  0  0  0  0  0  0
   -6.1343   -2.7008   -3.7841 C   0  0  0  0  0  0  0  0  0  0  0  0
   -8.3410   -3.8267   -3.9903 C   0  0  0  0  0  0  0  0  0  0  0  0
   -8.6891   -3.6663   -5.3062 C   0  0  0  0  0  0  0  0  0  0  0  0
   -8.2799   -2.5892   -6.2334 C   0  0  0  0  0  0  0  0  0  0  0  0
   -7.4332   -1.7302   -6.0932 O   0  0  0  0  0  0  0  0  0  0  0  0
   -9.1836   -2.7082   -7.4013 C   0  0  0  0  0  0  0  0  0  0  0  0
   -9.2303   -1.9052   -8.5218 C   0  0  0  0  0  0  0  0  0  0  0  0
  -10.1774   -2.2121   -9.4912 C   0  0  0  0  0  0  0  0  0  0  0  0
  -10.2780   -1.2455  -10.9155 Cl  0  0  0  0  0  0  0  0  0  0  0  0
  -11.0475   -3.2845   -9.3338 C   0  0  0  0  0  0  0  0  0  0  0  0
  -10.9911   -4.0863   -8.2038 C   0  0  0  0  0  0  0  0  0  0  0  0
  -10.0490   -3.7996   -7.2265 C   0  0  0  0  0  0  0  0  0  0  0  0
   -9.7340   -4.4407   -5.9541 C   0  0  0  0  0  0  0  0  0  0  0  0
  -10.2799   -5.6171   -5.5072 C   0  0  0  0  0  0  0  0  0  0  0  0
  -11.2880   -6.3278   -6.1906 C   0  0  0  0  0  0  0  0  0  0  0  0
  -12.1135   -6.9493   -6.6916 N   0  0  0  0  0  0  0  0  0  0  0  0
   -9.9016   -6.3095   -4.3376 C   0  0  0  0  0  0  0  0  0  0  0  0
   -9.6451   -6.9556   -3.4227 N   0  0  0  0  0  0  0  0  0  0  0  0
    4.4959    1.8969    6.3266 H   0  0  0  0  0  0  0  0  0  0  0  0
    8.7418    0.3544    2.0437 H   0  0  0  0  0  0  0  0  0  0  0  0
    9.8784    2.1376    6.6463 H   0  0  0  0  0  0  0  0  0  0  0  0
   12.7240    1.8003    4.7487 H   0  0  0  0  0  0  0  0  0  0  0  0
   13.1524   -0.0860    6.3156 H   0  0  0  0  0  0  0  0  0  0  0  0
   10.9320   -1.4596    6.4562 H   0  0  0  0  0  0  0  0  0  0  0  0
   10.3766   -2.3938    4.0329 H   0  0  0  0  0  0  0  0  0  0  0  0
   12.2560   -1.5961    2.3977 H   0  0  0  0  0  0  0  0  0  0  0  0
   14.1490   -0.3219    3.8257 H   0  0  0  0  0  0  0  0  0  0  0  0
   13.8015   -1.9241    4.5226 H   0  0  0  0  0  0  0  0  0  0  0  0
   12.1827    0.8938    2.3939 H   0  0  0  0  0  0  0  0  0  0  0  0
    2.5097    0.7166    6.2546 H   0  0  0  0  0  0  0  0  0  0  0  0
    0.4894   -0.0022    5.0918 H   0  0  0  0  0  0  0  0  0  0  0  0
    4.2066    2.2123    2.6132 H   0  0  0  0  0  0  0  0  0  0  0  0
    3.8516    1.7921    0.3050 H   0  0  0  0  0  0  0  0  0  0  0  0
    2.4917    1.6810   -0.8460 H   0  0  0  0  0  0  0  0  0  0  0  0
    1.5942    3.8368   -0.0332 H   0  0  0  0  0  0  0  0  0  0  0  0
    3.2622    4.0428   -0.5756 H   0  0  0  0  0  0  0  0  0  0  0  0
    2.8976    3.9665    1.1521 H   0  0  0  0  0  0  0  0  0  0  0  0
    0.3207    1.3207   -5.5019 H   0  0  0  0  0  0  0  0  0  0  0  0
    1.5565    2.1592   -4.5165 H   0  0  0  0  0  0  0  0  0  0  0  0
    2.6144    0.4363   -5.9865 H   0  0  0  0  0  0  0  0  0  0  0  0
    2.8091    0.0155   -4.2803 H   0  0  0  0  0  0  0  0  0  0  0  0
    1.5930   -0.8118   -5.2627 H   0  0  0  0  0  0  0  0  0  0  0  0
   -0.8240   -1.1220    3.7702 H   0  0  0  0  0  0  0  0  0  0  0  0
   -2.4744   -0.9468    3.1940 H   0  0  0  0  0  0  0  0  0  0  0  0
   -0.3636   -2.9139    2.1498 H   0  0  0  0  0  0  0  0  0  0  0  0
   -1.7630   -3.3317    3.1428 H   0  0  0  0  0  0  0  0  0  0  0  0
   -1.9869   -2.7814    1.4781 H   0  0  0  0  0  0  0  0  0  0  0  0
   -3.9682   -1.5901    2.1468 H   0  0  0  0  0  0  0  0  0  0  0  0
   -5.3368   -1.2624    1.0938 H   0  0  0  0  0  0  0  0  0  0  0  0
   -4.9435    0.6482    2.6263 H   0  0  0  0  0  0  0  0  0  0  0  0
   -4.7483    1.1200    0.9357 H   0  0  0  0  0  0  0  0  0  0  0  0
   -3.3277    0.8804    1.9490 H   0  0  0  0  0  0  0  0  0  0  0  0
   -3.5897   -2.2530   -5.2257 H   0  0  0  0  0  0  0  0  0  0  0  0
   -2.4384   -1.0701   -4.5486 H   0  0  0  0  0  0  0  0  0  0  0  0
   -4.1811    0.7049   -4.7013 H   0  0  0  0  0  0  0  0  0  0  0  0
   -3.8493   -0.0057   -6.2830 H   0  0  0  0  0  0  0  0  0  0  0  0
   -5.3164   -0.4532   -5.4083 H   0  0  0  0  0  0  0  0  0  0  0  0
   -6.6334   -2.7701    0.0974 H   0  0  0  0  0  0  0  0  0  0  0  0
   -8.3231   -3.7139   -1.3880 H   0  0  0  0  0  0  0  0  0  0  0  0
   -5.9787   -2.7381   -4.8469 H   0  0  0  0  0  0  0  0  0  0  0  0
   -8.9843   -4.4840   -3.4155 H   0  0  0  0  0  0  0  0  0  0  0  0
   -8.5522   -1.0738   -8.6329 H   0  0  0  0  0  0  0  0  0  0  0  0
  -11.7755   -3.4927  -10.1020 H   0  0  0  0  0  0  0  0  0  0  0  0
  -11.6797   -4.9088   -8.1023 H   0  0  0  0  0  0  0  0  0  0  0  0
  1  2  2  0  0  0  0
  2  3  1  0  0  0  0
  3  4  2  0  0  0  0
  3  5  1  0  0  0  0
  5  6  2  0  0  0  0
  6  7  1  0  0  0  0
  7  8  2  0  0  0  0
  8  9  1  0  0  0  0
  9 10  2  0  0  0  0
 10 11  1  0  0  0  0
 11 12  2  0  0  0  0
 12 13  1  0  0  0  0
 13 14  3  0  0  0  0
 12 15  1  0  0  0  0
 15 16  3  0  0  0  0
  8 17  1  0  0  0  0
 17 18  1  0  0  0  0
 18 19  1  0  0  0  0
 19 20  2  0  0  0  0
 20 21  1  0  0  0  0
 21 22  1  0  0  0  0
 21 23  1  0  0  0  0
  1 24  1  0  0  0  0
 24 25  2  0  0  0  0
 25 26  1  0  0  0  0
 26 27  2  0  0  0  0
 27 28  1  0  0  0  0
 28 29  2  0  0  0  0
 29 30  1  0  0  0  0
 30 31  1  0  0  0  0
 31 32  2  0  0  0  0
 30 33  1  0  0  0  0
 33 34  1  0  0  0  0
 29 35  1  0  0  0  0
 35 36  1  0  0  0  0
 36 37  1  0  0  0  0
 37 38  2  0  0  0  0
 38 39  1  0  0  0  0
 39 40  1  0  0  0  0
 40 41  1  0  0  0  0
 39 42  1  0  0  0  0
 37 43  1  0  0  0  0
 43 44  2  0  0  0  0
 44 45  1  0  0  0  0
 45 46  1  0  0  0  0
 46 47  1  0  0  0  0
 47 48  1  0  0  0  0
 44 49  1  0  0  0  0
 49 50  1  0  0  0  0
 50 51  1  0  0  0  0
 49 52  1  0  0  0  0
 52 53  2  0  0  0  0
 53 54  1  0  0  0  0
 54 55  1  0  0  0  0
 55 56  1  0  0  0  0
 54 57  1  0  0  0  0
 57 58  2  0  0  0  0
 58 59  1  0  0  0  0
 59 60  2  0  0  0  0
 60 61  1  0  0  0  0
 61 62  2  0  0  0  0
 61 63  1  0  0  0  0
 63 64  2  0  0  0  0
 64 65  1  0  0  0  0
 65 66  2  0  0  0  0
 65 67  1  0  0  0  0
 67 68  2  0  0  0  0
 68 69  1  0  0  0  0
 69 70  1  0  0  0  0
 69 71  2  0  0  0  0
 71 72  1  0  0  0  0
 72 73  2  0  0  0  0
 73 74  1  0  0  0  0
 74 75  2  0  0  0  0
 75 76  1  0  0  0  0
 76 77  3  0  0  0  0
 75 78  1  0  0  0  0
 78 79  3  0  0  0  0
 11  2  1  0  0  0  0
 23 17  1  0  0  0  0
 32 24  1  0  0  0  0
 45 35  2  0  0  0  0
 58 52  1  0  0  0  0
 74 64  1  0  0  0  0
 10  5  1  0  0  0  0
 22 18  1  0  0  0  0
 31 27  1  0  0  0  0
 42 36  2  0  0  0  0
 53 43  1  0  0  0  0
 62 57  1  0  0  0  0
 73 67  1  0  0  0  0
 23  7  1  0  0  0  0
 46 28  1  0  0  0  0
  1 80  1  0  0  0  0
  6 81  1  0  0  0  0
  9 82  1  0  0  0  0
 17 83  1  0  0  0  0
 18 84  1  0  0  0  0
 19 85  1  0  0  0  0
 20 86  1  0  0  0  0
 21 87  1  0  0  0  0
 22 88  1  0  0  0  0
 22 89  1  0  0  0  0
 23 90  1  0  0  0  0
 25 91  1  0  0  0  0
 26 92  1  0  0  0  0
 32 93  1  0  0  0  0
 33 94  1  0  0  0  0
 33 95  1  0  0  0  0
 34 96  1  0  0  0  0
 34 97  1  0  0  0  0
 34 98  1  0  0  0  0
 40 99  1  0  0  0  0
 40100  1  0  0  0  0
 41101  1  0  0  0  0
 41102  1  0  0  0  0
 41103  1  0  0  0  0
 47104  1  0  0  0  0
 47105  1  0  0  0  0
 48106  1  0  0  0  0
 48107  1  0  0  0  0
 48108  1  0  0  0  0
 50109  1  0  0  0  0
 50110  1  0  0  0  0
 51111  1  0  0  0  0
 51112  1  0  0  0  0
 51113  1  0  0  0  0
 55114  1  0  0  0  0
 55115  1  0  0  0  0
 56116  1  0  0  0  0
 56117  1  0  0  0  0
 56118  1  0  0  0  0
 59119  1  0  0  0  0
 60120  1  0  0  0  0
 62121  1  0  0  0  0
 63122  1  0  0  0  0
 68123  1  0  0  0  0
 71124  1  0  0  0  0
 72125  1  0  0  0  0
M  END
