
  xtb     02102221273D
 energy: -181.979060022336 gnorm: 0.000329013275 xtb: 6.4.1 (unknown)
101114  0     0  0            999 V2000
    5.4717    2.0279    0.8646 C   0  0  0  0  0  0  0  0  0  0  0  0
    6.1506    0.8507    1.0311 C   0  0  0  0  0  0  0  0  0  0  0  0
    5.7043   -0.5093    0.6523 C   0  0  0  0  0  0  0  0  0  0  0  0
    4.5903   -0.8863    0.3413 O   0  0  0  0  0  0  0  0  0  0  0  0
    6.9174   -1.3470    0.6663 C   0  0  0  0  0  0  0  0  0  0  0  0
    7.0045   -2.6891    0.3027 C   0  0  0  0  0  0  0  0  0  0  0  0
    8.2707   -3.2136    0.3975 C   0  0  0  0  0  0  0  0  0  0  0  0
    9.3724   -2.4586    0.8225 C   0  0  0  0  0  0  0  0  0  0  0  0
    9.2993   -1.1363    1.1906 C   0  0  0  0  0  0  0  0  0  0  0  0
    8.0188   -0.5836    1.1006 C   0  0  0  0  0  0  0  0  0  0  0  0
    7.5540    0.7676    1.3958 C   0  0  0  0  0  0  0  0  0  0  0  0
    8.2940    1.7536    1.9945 C   0  0  0  0  0  0  0  0  0  0  0  0
    7.8000    3.0169    2.3847 C   0  0  0  0  0  0  0  0  0  0  0  0
    7.4721    4.0524    2.7580 N   0  0  0  0  0  0  0  0  0  0  0  0
    9.6514    1.6236    2.3547 C   0  0  0  0  0  0  0  0  0  0  0  0
   10.7553    1.5890    2.6686 N   0  0  0  0  0  0  0  0  0  0  0  0
   10.3290   -3.6116    0.6535 C   0  0  0  0  0  0  0  0  0  0  0  0
   11.2430   -3.6113   -0.5970 C   0  0  0  0  0  0  0  0  0  0  0  0
   10.5191   -2.8218   -1.6593 C   0  0  0  0  0  0  0  0  0  0  0  0
    9.4773   -3.5393   -2.0579 C   0  0  0  0  0  0  0  0  0  0  0  0
    9.4777   -4.8271   -1.2718 C   0  0  0  0  0  0  0  0  0  0  0  0
   10.9904   -5.0405   -1.1030 C   0  0  0  0  0  0  0  0  0  0  0  0
    9.1015   -4.4543    0.1838 C   0  0  0  0  0  0  0  0  0  0  0  0
    4.1144    2.2430    0.5537 C   0  0  0  0  0  0  0  0  0  0  0  0
    3.6261    3.9466   -0.1909 Se  0  0  0  0  0  2  0  0  0  0  0  0
    1.9219    3.2543   -0.2909 C   0  0  0  0  0  0  0  0  0  0  0  0
    0.6421    3.5955   -0.7487 C   0  0  0  0  0  0  0  0  0  0  0  0
    0.1778    4.7223   -1.4604 C   0  0  0  0  0  0  0  0  0  0  0  0
   -1.1868    4.7557   -1.9008 C   0  0  0  0  0  0  0  0  0  0  0  0
   -1.4606    5.8409   -2.6071 N   0  0  0  0  0  0  0  0  0  0  0  0
   -0.1203    6.7437   -2.7055 S   0  0  0  0  0  0  0  0  0  0  0  0
    0.8650    5.7838   -1.8495 N   0  0  0  0  0  0  0  0  0  0  0  0
   -2.0599    3.7229   -1.4858 C   0  0  0  0  0  0  0  0  0  0  0  0
   -3.4493    3.5867   -1.5848 C   0  0  0  0  0  0  0  0  0  0  0  0
   -4.7857    4.4180   -2.2975 S   0  0  0  0  0  0  0  0  0  0  0  0
   -5.8633    3.2610   -1.5403 C   0  0  0  0  0  0  0  0  0  0  0  0
   -7.2437    3.1353   -1.5527 C   0  0  0  0  0  0  0  0  0  0  0  0
   -8.1364    4.0936   -2.2702 C   0  0  0  0  0  0  0  0  0  0  0  0
   -8.6248    5.1940   -1.3240 C   0  0  0  0  0  0  0  0  0  0  0  0
   -7.6658    2.0451   -0.7676 C   0  0  0  0  0  0  0  0  0  0  0  0
   -6.3053    1.1896   -0.0366 S   0  0  0  0  0  0  0  0  0  0  0  0
   -5.1979    2.2824   -0.7770 C   0  0  0  0  0  0  0  0  0  0  0  0
   -3.8136    2.4673   -0.8201 C   0  0  0  0  0  0  0  0  0  0  0  0
   -2.6917    1.8901   -0.2834 N   0  0  0  0  0  0  0  0  0  0  0  0
   -1.6004    2.6290   -0.6944 C   0  0  0  0  0  0  0  0  0  0  0  0
   -0.2106    2.4980   -0.4511 C   0  0  0  0  0  0  0  0  0  0  0  0
    0.5464    1.4897    0.1140 N   0  0  0  0  0  0  0  0  0  0  0  0
    1.8375    1.9478    0.2266 C   0  0  0  0  0  0  0  0  0  0  0  0
    3.0270    1.3988    0.6991 C   0  0  0  0  0  0  0  0  0  0  0  0
    0.2813    0.0662    0.0638 C   0  0  0  0  0  0  0  0  0  0  0  0
    1.1342   -0.6336   -0.9949 C   0  0  0  0  0  0  0  0  0  0  0  0
   -2.7979    0.9500    0.8131 C   0  0  0  0  0  0  0  0  0  0  0  0
   -3.2415   -0.4395    0.3572 C   0  0  0  0  0  0  0  0  0  0  0  0
   -9.0085    1.7031   -0.6054 C   0  0  0  0  0  0  0  0  0  0  0  0
   -9.6058    0.6964    0.1193 C   0  0  0  0  0  0  0  0  0  0  0  0
   -8.9200   -0.3053    0.9334 C   0  0  0  0  0  0  0  0  0  0  0  0
   -7.7210   -0.4404    1.1074 O   0  0  0  0  0  0  0  0  0  0  0  0
   -9.9820   -1.1511    1.5177 C   0  0  0  0  0  0  0  0  0  0  0  0
   -9.8486   -2.2311    2.3643 C   0  0  0  0  0  0  0  0  0  0  0  0
  -11.0148   -2.8621    2.7768 C   0  0  0  0  0  0  0  0  0  0  0  0
  -10.8973   -4.3567    3.9447 Br  0  0  0  0  0  0  0  0  0  0  0  0
  -12.2645   -2.4278    2.3575 C   0  0  0  0  0  0  0  0  0  0  0  0
  -12.3860   -1.3402    1.5046 C   0  0  0  0  0  0  0  0  0  0  0  0
  -11.2359   -0.6929    1.0780 C   0  0  0  0  0  0  0  0  0  0  0  0
  -11.0323    0.4581    0.1976 C   0  0  0  0  0  0  0  0  0  0  0  0
  -12.0352    1.1556   -0.4277 C   0  0  0  0  0  0  0  0  0  0  0  0
  -11.8633    2.2639   -1.2823 C   0  0  0  0  0  0  0  0  0  0  0  0
  -11.8098    3.1698   -1.9877 N   0  0  0  0  0  0  0  0  0  0  0  0
  -13.4068    0.8506   -0.3024 C   0  0  0  0  0  0  0  0  0  0  0  0
  -14.5371    0.6572   -0.2451 N   0  0  0  0  0  0  0  0  0  0  0  0
    6.0605    2.9385    0.9177 H   0  0  0  0  0  0  0  0  0  0  0  0
    6.1309   -3.2335   -0.0208 H   0  0  0  0  0  0  0  0  0  0  0  0
   10.1561   -0.5680    1.5117 H   0  0  0  0  0  0  0  0  0  0  0  0
   10.8549   -3.9312    1.5509 H   0  0  0  0  0  0  0  0  0  0  0  0
   12.2724   -3.3226   -0.4028 H   0  0  0  0  0  0  0  0  0  0  0  0
   10.7974   -1.8292   -1.9616 H   0  0  0  0  0  0  0  0  0  0  0  0
    8.7113   -3.2658   -2.7598 H   0  0  0  0  0  0  0  0  0  0  0  0
    8.9004   -5.6466   -1.6920 H   0  0  0  0  0  0  0  0  0  0  0  0
   11.4939   -5.2486   -2.0458 H   0  0  0  0  0  0  0  0  0  0  0  0
   11.2417   -5.8097   -0.3740 H   0  0  0  0  0  0  0  0  0  0  0  0
    8.8237   -5.3236    0.7768 H   0  0  0  0  0  0  0  0  0  0  0  0
   -7.5646    4.5498   -3.0808 H   0  0  0  0  0  0  0  0  0  0  0  0
   -8.9963    3.5816   -2.7043 H   0  0  0  0  0  0  0  0  0  0  0  0
   -7.7798    5.7392   -0.9098 H   0  0  0  0  0  0  0  0  0  0  0  0
   -9.2013    4.7705   -0.5049 H   0  0  0  0  0  0  0  0  0  0  0  0
   -9.2582    5.8898   -1.8664 H   0  0  0  0  0  0  0  0  0  0  0  0
    3.1111    0.4305    1.1552 H   0  0  0  0  0  0  0  0  0  0  0  0
    0.4784   -0.3693    1.0486 H   0  0  0  0  0  0  0  0  0  0  0  0
   -0.7629   -0.0785   -0.1926 H   0  0  0  0  0  0  0  0  0  0  0  0
    0.8207   -1.6712   -1.0755 H   0  0  0  0  0  0  0  0  0  0  0  0
    2.1895   -0.6140   -0.7405 H   0  0  0  0  0  0  0  0  0  0  0  0
    0.9990   -0.1536   -1.9621 H   0  0  0  0  0  0  0  0  0  0  0  0
   -3.5472    1.3381    1.5121 H   0  0  0  0  0  0  0  0  0  0  0  0
   -1.8418    0.9161    1.3364 H   0  0  0  0  0  0  0  0  0  0  0  0
   -2.6415   -0.8044   -0.4734 H   0  0  0  0  0  0  0  0  0  0  0  0
   -3.1536   -1.1369    1.1852 H   0  0  0  0  0  0  0  0  0  0  0  0
   -4.2798   -0.4199    0.0392 H   0  0  0  0  0  0  0  0  0  0  0  0
   -9.6819    2.3533   -1.1466 H   0  0  0  0  0  0  0  0  0  0  0  0
   -8.8746   -2.5641    2.6875 H   0  0  0  0  0  0  0  0  0  0  0  0
  -13.1501   -2.9417    2.6983 H   0  0  0  0  0  0  0  0  0  0  0  0
  -13.3668   -1.0216    1.1929 H   0  0  0  0  0  0  0  0  0  0  0  0
  1  2  2  0  0  0  0
  2  3  1  0  0  0  0
  3  4  2  0  0  0  0
  3  5  1  0  0  0  0
  5  6  2  0  0  0  0
  6  7  1  0  0  0  0
  7  8  2  0  0  0  0
  8  9  1  0  0  0  0
  9 10  2  0  0  0  0
 10 11  1  0  0  0  0
 11 12  2  0  0  0  0
 12 13  1  0  0  0  0
 13 14  3  0  0  0  0
 12 15  1  0  0  0  0
 15 16  3  0  0  0  0
  8 17  1  0  0  0  0
 17 18  1  0  0  0  0
 18 19  1  0  0  0  0
 19 20  2  0  0  0  0
 20 21  1  0  0  0  0
 21 22  1  0  0  0  0
 21 23  1  0  0  0  0
  1 24  1  0  0  0  0
 24 25  1  0  0  0  0
 25 26  1  0  0  0  0
 26 27  1  0  0  0  0
 27 28  1  0  0  0  0
 28 29  1  0  0  0  0
 29 30  2  0  0  0  0
 30 31  1  0  0  0  0
 31 32  1  0  0  0  0
 29 33  1  0  0  0  0
 33 34  1  0  0  0  0
 34 35  1  0  0  0  0
 35 36  1  0  0  0  0
 36 37  1  0  0  0  0
 37 38  1  0  0  0  0
 38 39  1  0  0  0  0
 37 40  2  0  0  0  0
 40 41  1  0  0  0  0
 41 42  1  0  0  0  0
 42 43  1  0  0  0  0
 43 44  1  0  0  0  0
 44 45  1  0  0  0  0
 45 46  1  0  0  0  0
 46 47  1  0  0  0  0
 47 48  1  0  0  0  0
 48 49  1  0  0  0  0
 47 50  1  0  0  0  0
 50 51  1  0  0  0  0
 44 52  1  0  0  0  0
 52 53  1  0  0  0  0
 40 54  1  0  0  0  0
 54 55  2  0  0  0  0
 55 56  1  0  0  0  0
 56 57  2  0  0  0  0
 56 58  1  0  0  0  0
 58 59  2  0  0  0  0
 59 60  1  0  0  0  0
 60 61  1  0  0  0  0
 60 62  2  0  0  0  0
 62 63  1  0  0  0  0
 63 64  2  0  0  0  0
 64 65  1  0  0  0  0
 65 66  2  0  0  0  0
 66 67  1  0  0  0  0
 67 68  3  0  0  0  0
 66 69  1  0  0  0  0
 69 70  3  0  0  0  0
 11  2  1  0  0  0  0
 23 17  1  0  0  0  0
 49 24  2  0  0  0  0
 65 55  1  0  0  0  0
 10  5  1  0  0  0  0
 22 18  1  0  0  0  0
 48 26  2  0  0  0  0
 64 58  1  0  0  0  0
 23  7  1  0  0  0  0
 46 27  2  0  0  0  0
 32 28  2  0  0  0  0
 45 33  2  0  0  0  0
 43 34  2  0  0  0  0
 42 36  2  0  0  0  0
  1 71  1  0  0  0  0
  6 72  1  0  0  0  0
  9 73  1  0  0  0  0
 17 74  1  0  0  0  0
 18 75  1  0  0  0  0
 19 76  1  0  0  0  0
 20 77  1  0  0  0  0
 21 78  1  0  0  0  0
 22 79  1  0  0  0  0
 22 80  1  0  0  0  0
 23 81  1  0  0  0  0
 38 82  1  0  0  0  0
 38 83  1  0  0  0  0
 39 84  1  0  0  0  0
 39 85  1  0  0  0  0
 39 86  1  0  0  0  0
 49 87  1  0  0  0  0
 50 88  1  0  0  0  0
 50 89  1  0  0  0  0
 51 90  1  0  0  0  0
 51 91  1  0  0  0  0
 51 92  1  0  0  0  0
 52 93  1  0  0  0  0
 52 94  1  0  0  0  0
 53 95  1  0  0  0  0
 53 96  1  0  0  0  0
 53 97  1  0  0  0  0
 54 98  1  0  0  0  0
 59 99  1  0  0  0  0
 62100  1  0  0  0  0
 63101  1  0  0  0  0
M  END
