
  xtb     02012223273D
 energy: -247.531349477873 gnorm: 0.001001350232 xtb: 6.4.1 (unknown)
145161  0     0  0            999 V2000
   -0.1762   -1.3392    7.5735 C   0  0  0  0  0  0  0  0  0  0  0  0
   -0.1845   -2.6832    7.7943 C   0  0  0  0  0  0  0  0  0  0  0  0
   -0.9184   -3.2364    8.9611 C   0  0  0  0  0  0  0  0  0  0  0  0
   -1.3125   -2.6237    9.9286 O   0  0  0  0  0  0  0  0  0  0  0  0
   -1.1181   -4.6662    8.6483 C   0  0  0  0  0  0  0  0  0  0  0  0
   -1.8720   -5.5906    9.3685 C   0  0  0  0  0  0  0  0  0  0  0  0
   -1.9028   -6.8455    8.8089 C   0  0  0  0  0  0  0  0  0  0  0  0
   -1.2342   -7.1649    7.6191 C   0  0  0  0  0  0  0  0  0  0  0  0
   -0.4757   -6.2686    6.9041 C   0  0  0  0  0  0  0  0  0  0  0  0
   -0.4324   -4.9864    7.4572 C   0  0  0  0  0  0  0  0  0  0  0  0
    0.2891   -3.7990    7.0086 C   0  0  0  0  0  0  0  0  0  0  0  0
    1.4003   -3.7906    6.2045 C   0  0  0  0  0  0  0  0  0  0  0  0
    2.2379   -2.6611    6.0934 C   0  0  0  0  0  0  0  0  0  0  0  0
    2.9641   -1.7744    6.0278 N   0  0  0  0  0  0  0  0  0  0  0  0
    1.8720   -4.9065    5.4892 C   0  0  0  0  0  0  0  0  0  0  0  0
    2.2792   -5.7777    4.8611 N   0  0  0  0  0  0  0  0  0  0  0  0
   -1.7209   -8.5927    7.6347 C   0  0  0  0  0  0  0  0  0  0  0  0
   -2.8810   -8.9367    6.6765 C   0  0  0  0  0  0  0  0  0  0  0  0
   -3.4493  -10.2185    7.2415 C   0  0  0  0  0  0  0  0  0  0  0  0
   -4.0796   -9.9175    8.3698 C   0  0  0  0  0  0  0  0  0  0  0  0
   -3.9480   -8.4272    8.5861 C   0  0  0  0  0  0  0  0  0  0  0  0
   -3.9625   -7.9469    7.1291 C   0  0  0  0  0  0  0  0  0  0  0  0
   -2.4631   -8.2379    8.9630 C   0  0  0  0  0  0  0  0  0  0  0  0
    0.0284   -0.6295    6.3729 C   0  0  0  0  0  0  0  0  0  0  0  0
    0.2227    0.7428    6.2534 C   0  0  0  0  0  0  0  0  0  0  0  0
    0.4405    1.6725    7.3986 C   0  0  0  0  0  0  0  0  0  0  0  0
    1.8813    1.5632    7.9045 C   0  0  0  0  0  0  0  0  0  0  0  0
    0.2920    1.1365    4.9145 C   0  0  0  0  0  0  0  0  0  0  0  0
    0.5125    2.6964    4.1534 S   0  0  0  0  0  0  0  0  0  0  0  0
    0.3967    1.9285    2.6119 C   0  0  0  0  0  0  0  0  0  0  0  0
    0.4927    2.2629    1.2535 C   0  0  0  0  0  0  0  0  0  0  0  0
    0.7946    3.5131    0.6621 C   0  0  0  0  0  0  0  0  0  0  0  0
    1.0624    4.5831    1.4048 N   0  0  0  0  0  0  0  0  0  0  0  0
    1.3620    5.7247    0.8043 C   0  0  0  0  0  0  0  0  0  0  0  0
    1.8305    6.7519    1.6986 C   0  0  0  0  0  0  0  0  0  0  0  0
    1.4542    6.5437    3.3843 S   0  0  0  0  0  0  0  0  0  0  0  0
    2.3653    7.9457    3.8206 C   0  0  0  0  0  0  0  0  0  0  0  0
    2.4599    8.4292    5.2264 C   0  0  0  0  0  0  0  0  0  0  0  0
    1.0905    8.8330    5.7735 C   0  0  0  0  0  0  0  0  0  0  0  0
    2.9280    8.4958    2.7030 C   0  0  0  0  0  0  0  0  0  0  0  0
    2.6427    7.8352    1.4961 C   0  0  0  0  0  0  0  0  0  0  0  0
    3.7068    9.5930    2.7504 F   0  0  0  0  0  0  0  0  0  0  0  0
    1.2595    5.8317   -0.6166 C   0  0  0  0  0  0  0  0  0  0  0  0
    1.2488    7.0611   -1.3673 C   0  0  0  0  0  0  0  0  0  0  0  0
    0.8910    8.3339   -1.0118 C   0  0  0  0  0  0  0  0  0  0  0  0
    0.9233    9.2033   -2.1149 C   0  0  0  0  0  0  0  0  0  0  0  0
    0.6124   10.5089   -2.0053 F   0  0  0  0  0  0  0  0  0  0  0  0
    1.2884    8.6321   -3.3019 C   0  0  0  0  0  0  0  0  0  0  0  0
    1.4311    9.2940   -4.6289 C   0  0  0  0  0  0  0  0  0  0  0  0
    2.8344    9.1092   -5.2047 C   0  0  0  0  0  0  0  0  0  0  0  0
    1.5902    6.9465   -3.0687 S   0  0  0  0  0  0  0  0  0  0  0  0
    1.1033    4.7428   -1.3538 N   0  0  0  0  0  0  0  0  0  0  0  0
    0.9124    3.5739   -0.7482 C   0  0  0  0  0  0  0  0  0  0  0  0
    0.7099    2.3825   -1.4869 C   0  0  0  0  0  0  0  0  0  0  0  0
    0.7149    2.1912   -2.8761 C   0  0  0  0  0  0  0  0  0  0  0  0
    1.0072    3.0970   -4.3182 S   0  0  0  0  0  0  0  0  0  0  0  0
    0.6166    1.6646   -5.2547 C   0  0  0  0  0  0  0  0  0  0  0  0
    0.5761    1.4211   -6.6217 C   0  0  0  0  0  0  0  0  0  0  0  0
    0.9388    2.4564   -7.6357 C   0  0  0  0  0  0  0  0  0  0  0  0
    2.4164    2.3432   -8.0209 C   0  0  0  0  0  0  0  0  0  0  0  0
    0.2186    0.0899   -6.8951 C   0  0  0  0  0  0  0  0  0  0  0  0
   -0.0844   -0.8346   -5.4229 S   0  0  0  0  0  0  0  0  0  0  0  0
    0.2783    0.5516   -4.4664 C   0  0  0  0  0  0  0  0  0  0  0  0
    0.3415    0.8639   -3.1056 C   0  0  0  0  0  0  0  0  0  0  0  0
    0.1265    0.2191   -1.9137 N   0  0  0  0  0  0  0  0  0  0  0  0
   -0.6812   -0.9809   -1.9424 C   0  0  0  0  0  0  0  0  0  0  0  0
   -2.1682   -0.6325   -1.9761 C   0  0  0  0  0  0  0  0  0  0  0  0
    0.3518    1.1327   -0.8984 C   0  0  0  0  0  0  0  0  0  0  0  0
    0.3300    1.0540    0.5159 C   0  0  0  0  0  0  0  0  0  0  0  0
    0.1766    0.0150    1.4146 N   0  0  0  0  0  0  0  0  0  0  0  0
    0.2015    0.5448    2.6778 C   0  0  0  0  0  0  0  0  0  0  0  0
    0.1353    0.0889    3.9956 C   0  0  0  0  0  0  0  0  0  0  0  0
   -0.1059   -1.4158    4.7991 S   0  0  0  0  0  0  0  0  0  0  0  0
    0.3104   -1.4144    1.2493 C   0  0  0  0  0  0  0  0  0  0  0  0
   -1.0304   -2.1354    1.3778 C   0  0  0  0  0  0  0  0  0  0  0  0
    0.1316   -0.4235   -8.1942 C   0  0  0  0  0  0  0  0  0  0  0  0
   -0.1481   -1.6891   -8.6452 C   0  0  0  0  0  0  0  0  0  0  0  0
   -0.4293   -2.8659   -7.8153 C   0  0  0  0  0  0  0  0  0  0  0  0
   -0.5247   -2.9130   -6.5995 O   0  0  0  0  0  0  0  0  0  0  0  0
   -0.5811   -3.9938   -8.7462 C   0  0  0  0  0  0  0  0  0  0  0  0
   -0.8260   -5.3233   -8.4722 C   0  0  0  0  0  0  0  0  0  0  0  0
   -0.9220   -6.2308   -9.5224 C   0  0  0  0  0  0  0  0  0  0  0  0
   -1.1825   -7.6756   -9.2388 C   0  0  0  0  0  0  0  0  0  0  0  0
   -0.7711   -5.7811  -10.8428 C   0  0  0  0  0  0  0  0  0  0  0  0
   -0.8684   -6.7467  -11.9806 C   0  0  0  0  0  0  0  0  0  0  0  0
   -0.5271   -4.4362  -11.1098 C   0  0  0  0  0  0  0  0  0  0  0  0
   -0.4300   -3.5336  -10.0649 C   0  0  0  0  0  0  0  0  0  0  0  0
   -0.1799   -2.0946  -10.0373 C   0  0  0  0  0  0  0  0  0  0  0  0
   -0.0242   -1.2978  -11.1436 C   0  0  0  0  0  0  0  0  0  0  0  0
    0.1997    0.0938  -11.1355 C   0  0  0  0  0  0  0  0  0  0  0  0
    0.3786    1.2265  -11.2180 N   0  0  0  0  0  0  0  0  0  0  0  0
   -0.0786   -1.7719  -12.4707 C   0  0  0  0  0  0  0  0  0  0  0  0
   -0.1116   -2.0884  -13.5742 N   0  0  0  0  0  0  0  0  0  0  0  0
   -0.4719   -0.7364    8.4272 H   0  0  0  0  0  0  0  0  0  0  0  0
   -2.3703   -5.3081   10.2825 H   0  0  0  0  0  0  0  0  0  0  0  0
    0.0360   -6.5197    5.9892 H   0  0  0  0  0  0  0  0  0  0  0  0
   -0.9469   -9.3575    7.6579 H   0  0  0  0  0  0  0  0  0  0  0  0
   -2.6149   -8.9418    5.6229 H   0  0  0  0  0  0  0  0  0  0  0  0
   -3.2915  -11.1878    6.8063 H   0  0  0  0  0  0  0  0  0  0  0  0
   -4.5535  -10.5852    9.0651 H   0  0  0  0  0  0  0  0  0  0  0  0
   -4.6546   -7.9680    9.2722 H   0  0  0  0  0  0  0  0  0  0  0  0
   -3.6880   -6.9010    7.0038 H   0  0  0  0  0  0  0  0  0  0  0  0
   -4.9195   -8.1328    6.6442 H   0  0  0  0  0  0  0  0  0  0  0  0
   -2.1836   -8.7661    9.8726 H   0  0  0  0  0  0  0  0  0  0  0  0
   -0.2496    1.4395    8.2121 H   0  0  0  0  0  0  0  0  0  0  0  0
    0.2490    2.6925    7.0599 H   0  0  0  0  0  0  0  0  0  0  0  0
    2.5788    1.8172    7.1105 H   0  0  0  0  0  0  0  0  0  0  0  0
    2.0371    2.2435    8.7376 H   0  0  0  0  0  0  0  0  0  0  0  0
    2.0935    0.5487    8.2332 H   0  0  0  0  0  0  0  0  0  0  0  0
    3.1393    9.2836    5.2527 H   0  0  0  0  0  0  0  0  0  0  0  0
    2.8777    7.6382    5.8548 H   0  0  0  0  0  0  0  0  0  0  0  0
    1.1839    9.1764    6.8004 H   0  0  0  0  0  0  0  0  0  0  0  0
    0.4114    7.9840    5.7477 H   0  0  0  0  0  0  0  0  0  0  0  0
    0.6651    9.6362    5.1764 H   0  0  0  0  0  0  0  0  0  0  0  0
    3.0400    8.1416    0.5468 H   0  0  0  0  0  0  0  0  0  0  0  0
    0.5966    8.6405   -0.0257 H   0  0  0  0  0  0  0  0  0  0  0  0
    1.2117   10.3571   -4.5081 H   0  0  0  0  0  0  0  0  0  0  0  0
    0.7003    8.8722   -5.3247 H   0  0  0  0  0  0  0  0  0  0  0  0
    3.5785    9.5365   -4.5367 H   0  0  0  0  0  0  0  0  0  0  0  0
    3.0506    8.0512   -5.3335 H   0  0  0  0  0  0  0  0  0  0  0  0
    2.9110    9.6026   -6.1701 H   0  0  0  0  0  0  0  0  0  0  0  0
    0.3224    2.3647   -8.5310 H   0  0  0  0  0  0  0  0  0  0  0  0
    0.7606    3.4397   -7.1959 H   0  0  0  0  0  0  0  0  0  0  0  0
    2.6265    1.3695   -8.4576 H   0  0  0  0  0  0  0  0  0  0  0  0
    2.6671    3.1087   -8.7496 H   0  0  0  0  0  0  0  0  0  0  0  0
    3.0462    2.4742   -7.1440 H   0  0  0  0  0  0  0  0  0  0  0  0
   -0.4669   -1.6203   -1.0939 H   0  0  0  0  0  0  0  0  0  0  0  0
   -0.4119   -1.5220   -2.8534 H   0  0  0  0  0  0  0  0  0  0  0  0
   -2.7604   -1.5428   -2.0050 H   0  0  0  0  0  0  0  0  0  0  0  0
   -2.3969   -0.0437   -2.8612 H   0  0  0  0  0  0  0  0  0  0  0  0
   -2.4468   -0.0545   -1.0967 H   0  0  0  0  0  0  0  0  0  0  0  0
    0.8041   -1.6187    0.2985 H   0  0  0  0  0  0  0  0  0  0  0  0
    0.9760   -1.7736    2.0423 H   0  0  0  0  0  0  0  0  0  0  0  0
   -1.7679   -1.7327    0.6888 H   0  0  0  0  0  0  0  0  0  0  0  0
   -1.4135   -2.0231    2.3889 H   0  0  0  0  0  0  0  0  0  0  0  0
   -0.8993   -3.1952    1.1777 H   0  0  0  0  0  0  0  0  0  0  0  0
    0.3410    0.3135   -8.9574 H   0  0  0  0  0  0  0  0  0  0  0  0
   -0.9379   -5.6465   -7.4479 H   0  0  0  0  0  0  0  0  0  0  0  0
   -0.3773   -8.2948   -9.6328 H   0  0  0  0  0  0  0  0  0  0  0  0
   -2.1080   -7.9988   -9.7145 H   0  0  0  0  0  0  0  0  0  0  0  0
   -1.2630   -7.8494   -8.1692 H   0  0  0  0  0  0  0  0  0  0  0  0
   -0.1021   -7.5166  -11.8947 H   0  0  0  0  0  0  0  0  0  0  0  0
   -0.7423   -6.2363  -12.9314 H   0  0  0  0  0  0  0  0  0  0  0  0
   -1.8370   -7.2454  -11.9784 H   0  0  0  0  0  0  0  0  0  0  0  0
   -0.4137   -4.1182  -12.1337 H   0  0  0  0  0  0  0  0  0  0  0  0
  1  2  2  0  0  0  0
  2  3  1  0  0  0  0
  3  4  2  0  0  0  0
  3  5  1  0  0  0  0
  5  6  2  0  0  0  0
  6  7  1  0  0  0  0
  7  8  2  0  0  0  0
  8  9  1  0  0  0  0
  9 10  2  0  0  0  0
 10 11  1  0  0  0  0
 11 12  2  0  0  0  0
 12 13  1  0  0  0  0
 13 14  3  0  0  0  0
 12 15  1  0  0  0  0
 15 16  3  0  0  0  0
  8 17  1  0  0  0  0
 17 18  1  0  0  0  0
 18 19  1  0  0  0  0
 19 20  2  0  0  0  0
 20 21  1  0  0  0  0
 21 22  1  0  0  0  0
 21 23  1  0  0  0  0
  1 24  1  0  0  0  0
 24 25  2  0  0  0  0
 25 26  1  0  0  0  0
 26 27  1  0  0  0  0
 25 28  1  0  0  0  0
 28 29  1  0  0  0  0
 29 30  1  0  0  0  0
 30 31  1  0  0  0  0
 31 32  2  0  0  0  0
 32 33  1  0  0  0  0
 33 34  2  0  0  0  0
 34 35  1  0  0  0  0
 35 36  1  0  0  0  0
 36 37  1  0  0  0  0
 37 38  1  0  0  0  0
 38 39  1  0  0  0  0
 37 40  2  0  0  0  0
 40 41  1  0  0  0  0
 40 42  1  0  0  0  0
 34 43  1  0  0  0  0
 43 44  1  0  0  0  0
 44 45  2  0  0  0  0
 45 46  1  0  0  0  0
 46 47  1  0  0  0  0
 46 48  2  0  0  0  0
 48 49  1  0  0  0  0
 49 50  1  0  0  0  0
 48 51  1  0  0  0  0
 43 52  2  0  0  0  0
 52 53  1  0  0  0  0
 53 54  2  0  0  0  0
 54 55  1  0  0  0  0
 55 56  1  0  0  0  0
 56 57  1  0  0  0  0
 57 58  1  0  0  0  0
 58 59  1  0  0  0  0
 59 60  1  0  0  0  0
 58 61  2  0  0  0  0
 61 62  1  0  0  0  0
 62 63  1  0  0  0  0
 63 64  1  0  0  0  0
 64 65  1  0  0  0  0
 65 66  1  0  0  0  0
 66 67  1  0  0  0  0
 65 68  1  0  0  0  0
 68 69  2  0  0  0  0
 69 70  1  0  0  0  0
 70 71  1  0  0  0  0
 71 72  1  0  0  0  0
 72 73  1  0  0  0  0
 70 74  1  0  0  0  0
 74 75  1  0  0  0  0
 61 76  1  0  0  0  0
 76 77  2  0  0  0  0
 77 78  1  0  0  0  0
 78 79  2  0  0  0  0
 78 80  1  0  0  0  0
 80 81  2  0  0  0  0
 81 82  1  0  0  0  0
 82 83  1  0  0  0  0
 82 84  2  0  0  0  0
 84 85  1  0  0  0  0
 84 86  1  0  0  0  0
 86 87  2  0  0  0  0
 87 88  1  0  0  0  0
 88 89  2  0  0  0  0
 89 90  1  0  0  0  0
 90 91  3  0  0  0  0
 89 92  1  0  0  0  0
 92 93  3  0  0  0  0
 11  2  1  0  0  0  0
 23 17  1  0  0  0  0
 73 24  1  0  0  0  0
 88 77  1  0  0  0  0
 10  5  1  0  0  0  0
 22 18  1  0  0  0  0
 72 28  2  0  0  0  0
 87 80  1  0  0  0  0
 23  7  1  0  0  0  0
 71 30  2  0  0  0  0
 69 31  1  0  0  0  0
 53 32  1  0  0  0  0
 68 54  1  0  0  0  0
 41 35  2  0  0  0  0
 51 44  1  0  0  0  0
 64 55  2  0  0  0  0
 63 57  2  0  0  0  0
  1 94  1  0  0  0  0
  6 95  1  0  0  0  0
  9 96  1  0  0  0  0
 17 97  1  0  0  0  0
 18 98  1  0  0  0  0
 19 99  1  0  0  0  0
 20100  1  0  0  0  0
 21101  1  0  0  0  0
 22102  1  0  0  0  0
 22103  1  0  0  0  0
 23104  1  0  0  0  0
 26105  1  0  0  0  0
 26106  1  0  0  0  0
 27107  1  0  0  0  0
 27108  1  0  0  0  0
 27109  1  0  0  0  0
 38110  1  0  0  0  0
 38111  1  0  0  0  0
 39112  1  0  0  0  0
 39113  1  0  0  0  0
 39114  1  0  0  0  0
 41115  1  0  0  0  0
 45116  1  0  0  0  0
 49117  1  0  0  0  0
 49118  1  0  0  0  0
 50119  1  0  0  0  0
 50120  1  0  0  0  0
 50121  1  0  0  0  0
 59122  1  0  0  0  0
 59123  1  0  0  0  0
 60124  1  0  0  0  0
 60125  1  0  0  0  0
 60126  1  0  0  0  0
 66127  1  0  0  0  0
 66128  1  0  0  0  0
 67129  1  0  0  0  0
 67130  1  0  0  0  0
 67131  1  0  0  0  0
 74132  1  0  0  0  0
 74133  1  0  0  0  0
 75134  1  0  0  0  0
 75135  1  0  0  0  0
 75136  1  0  0  0  0
 76137  1  0  0  0  0
 81138  1  0  0  0  0
 83139  1  0  0  0  0
 83140  1  0  0  0  0
 83141  1  0  0  0  0
 85142  1  0  0  0  0
 85143  1  0  0  0  0
 85144  1  0  0  0  0
 86145  1  0  0  0  0
M  END
