101

C          3.13350       -2.29200       -5.09730
C          4.37670       -1.71420       -5.10190
C          4.89790       -0.61020       -4.26650
O          4.43490       -0.13220       -3.24680
C          6.13320       -0.15200       -4.92740
C          6.92360        0.93160       -4.55070
C          8.01120        1.13980       -5.36350
C          8.29010        0.33270       -6.47480
C          7.52020       -0.74050       -6.85560
C          6.41260       -0.97390       -6.03580
C          5.38180       -2.00450       -6.11250
C          5.41900       -3.09880       -6.93690
C          4.49110       -4.16270       -6.93590
N          3.80560       -5.08300       -6.98820
C          6.44020       -3.35160       -7.87680
N          7.23280       -3.62380       -8.66190
C          9.52830        1.11540       -6.83250
C         10.90090        0.49460       -6.47350
C         10.66450       -0.41550       -5.29370
C         10.40280        0.34690       -4.24050
C         10.45680        1.78640       -4.68930
C         11.55090        1.69380       -5.76500
C          9.21940        2.01290       -5.59280
C          2.04570       -2.15100       -4.21590
Se         0.36890       -2.93530       -4.74260
C         -0.28470       -2.25590       -3.15970
C         -1.45910       -2.22570       -2.39690
C         -2.69630       -2.87790       -2.58390
C         -3.67880       -2.82400       -1.54070
N         -4.75260       -3.54480       -1.82350
S         -4.54750       -4.22550       -3.27760
N         -3.07680       -3.62980       -3.60410
C         -3.42820       -2.00720       -0.41460
C         -4.22490       -1.67610        0.69230
S         -5.76650       -2.07230        1.36600
C         -5.48200       -0.91880        2.65140
C         -6.24790       -0.52410        3.75800
C         -7.52460       -1.20420        4.13410
C         -8.60320       -1.05300        3.06160
C         -5.57570        0.43000        4.51170
S         -3.97500        0.79490        3.86320
C         -4.23800       -0.28210        2.54720
C         -3.52300       -0.71510        1.42800
N         -2.31280       -0.45560        0.83790
C         -2.22330       -1.25650       -0.28940
C         -1.17670       -1.47850       -1.21900
N          0.15380       -1.11620       -1.24350
C          0.69960       -1.57560       -2.41710
C          1.97100       -1.53200       -2.97820
C          1.02050       -0.69030       -0.16620
C          1.59100        0.70960       -0.39920
C         -1.68980        0.82550        1.09460
C         -2.51260        1.96510        0.49400
C         -5.90460        1.03380        5.74890
C         -7.13990        1.46930        6.13580
C         -8.21950        1.84310        5.18900
O         -8.20130        1.76250        3.97960
C         -9.25820        2.48790        6.01620
C        -10.46770        3.02160        5.61710
C        -11.28170        3.59590        6.58330
C        -10.87680        3.63930        7.90970
C         -9.65870        3.10930        8.31440
C         -8.84220        2.52470        7.35890
C         -7.53280        1.88570        7.46470
C         -6.84470        1.64320        8.62500
C         -5.62490        0.93840        8.69800
N         -4.64380        0.35660        8.83150
C         -7.28070        2.04450        9.90450
N         -7.57860        2.34940       10.97050
H          2.91820       -2.94630       -5.93650
H          6.66880        1.53090       -3.69050
H          7.74370       -1.34640       -7.71760
H          9.52910        1.58460       -7.81430
H         11.43340        0.06020       -7.31510
H         10.65530       -1.48770       -5.35750
H         10.13120        0.03890       -3.24770
H         10.58630        2.52930       -3.90640
H         12.52990        1.45810       -5.35060
H         11.62040        2.58240       -6.39100
H          9.01920        3.06880       -5.76520
H         -7.30470       -2.26880        4.26630
H         -7.88730       -0.81210        5.08490
H         -8.28460       -1.51280        2.13000
H         -9.51920       -1.53570        3.39260
H         -8.80420       -0.00090        2.88190
H          2.83010       -1.06570       -2.53280
H          1.85230       -1.40190       -0.11090
H          0.47400       -0.75780        0.77580
H          2.29480        0.70050       -1.22640
H          0.80850        1.42650       -0.63870
H          2.11420        1.04470        0.49240
H         -1.62090        0.94830        2.17980
H         -0.69390        0.85050        0.67040
H         -2.60600        1.83610       -0.58260
H         -3.50880        1.99460        0.92750
H         -2.02180        2.91380        0.69210
H         -5.06730        1.19290        6.41910
H        -10.76110        2.98100        4.57930
H        -12.23650        4.01400        6.30220
H        -11.51980        4.09640        8.64680
H         -9.36490        3.16370        9.35000
