98

C          1.79240       -1.51730        6.26900
C          3.15370       -1.36480        6.37800
C          4.03540       -0.88740        5.32120
O          3.71490       -0.54850        4.18590
C          5.39690       -0.88330        5.86880
C          6.56600       -0.49540        5.21720
C          7.69750       -0.60860        5.98850
C          7.66840       -1.07270        7.31010
C          6.52030       -1.45170        7.96640
C          5.35570       -1.34510        7.20100
C          3.96540       -1.64580        7.54730
C          3.53560       -2.10760        8.76420
C          4.38010       -2.37060        9.86370
N          5.00240       -2.60850       10.79870
C          2.19830       -2.39070        9.11400
N          1.14160       -2.64430        9.48640
C          9.16180       -0.93710        7.47480
C          9.98670       -2.23930        7.39500
C         11.39130       -1.75980        7.10690
C         11.41850       -1.31810        5.85600
C         10.03270       -1.49130        5.27740
C          9.59950       -2.76890        6.00810
C          9.19350       -0.41720        6.00160
C          0.93530       -1.29750        5.18210
C         -0.43920       -1.52490        5.29550
C         -1.17090       -1.29120        4.14650
S         -2.89550       -1.41580        3.83960
C         -2.61330       -0.89980        2.21370
C         -3.33170       -0.59300        1.05050
C         -4.72290       -0.53090        0.81340
C         -5.18910       -0.04570       -0.45210
N         -6.50970        0.01890       -0.51440
S         -7.11480       -0.49460        0.89620
N         -5.71510       -0.81490        1.64220
C         -4.24360        0.23890       -1.46230
C         -4.41670        0.59000       -2.80770
C         -3.14560        0.60610       -3.39380
N         -2.19760        0.29500       -2.45590
C         -0.86810       -0.06000       -2.89430
C          0.00020        1.17260       -3.14770
C         -2.84130        0.08700       -1.24930
C         -2.37730       -0.21490        0.05750
N         -1.11680       -0.26420        0.62790
C         -1.26350       -0.66500        1.93050
C         -0.42370       -0.86880        3.02740
Se         1.39060       -0.71340        3.43250
C          0.11420        0.40720        0.27770
C          0.11120        1.85090        0.77600
C         -3.18950        0.88430       -4.76350
C         -4.51590        1.07430       -5.19830
S         -5.69660        0.93070       -3.91680
C         -4.68250        1.30890       -6.55850
C         -3.50510        1.33930       -7.28260
Se        -1.99650        1.05070       -6.17940
C         -3.33900        1.54510       -8.66890
C         -4.23780        1.25860       -9.65400
C         -4.14490        1.92710      -10.97680
O         -3.22220        2.58850      -11.39460
C         -5.44020        1.65230      -11.63590
C         -5.92460        2.14030      -12.83490
C         -7.19590        1.76250      -13.23800
C         -7.93830        0.91270      -12.43100
F         -9.17290        0.57080      -12.83110
C         -7.47100        0.39980      -11.22820
C         -6.20040        0.78050      -10.83340
C         -5.40690        0.40970       -9.66140
C         -5.59870       -0.70960       -8.89220
C         -4.64420       -1.17370       -7.96460
N         -3.86190       -1.60540       -7.24260
C         -6.71510       -1.56180       -9.00680
N         -7.61450       -2.27310       -9.05180
H          1.27170       -1.86960        7.15230
H          6.54150       -0.14140        4.19850
H          6.51780       -1.80000        8.98550
H          9.49260       -0.27200        8.27010
H          9.86200       -2.90960        8.24090
H         12.17990       -1.74080        7.83580
H         12.23410       -0.85630        5.33120
H          9.94960       -1.48060        4.19400
H          8.54220       -3.00460        5.90200
H         10.19580       -3.63170        5.71630
H          9.54470        0.59570        5.81420
H         -0.88260       -1.85690        6.21930
H         -0.97240       -0.61090       -3.83870
H         -0.42270       -0.74310       -2.16960
H         -0.37140        1.71510       -4.01690
H          1.02470        0.87030       -3.34680
H         -0.01230        1.85390       -2.30050
H          0.92920       -0.14480        0.76390
H          0.28110        0.38650       -0.79150
H         -0.72850        2.39860        0.35240
H          0.03110        1.87720        1.86070
H          1.03660        2.34210        0.48830
H         -5.64360        1.49450       -7.00700
H         -2.42560        2.03680       -8.99250
H         -5.31860        2.80020      -13.43560
H         -7.62160        2.11640      -14.16350
H         -8.09730       -0.25470      -10.64420
