
  xtb     02022223003D
 energy: -184.163145869589 gnorm: 0.000835933059 xtb: 6.4.1 (unknown)
106120  0     0  0            999 V2000
    3.2968   -1.8678    4.6798 C   0  0  0  0  0  0  0  0  0  0  0  0
    2.9027   -0.7764    5.4135 C   0  0  0  0  0  0  0  0  0  0  0  0
    2.0805    0.3388    4.9388 C   0  0  0  0  0  0  0  0  0  0  0  0
    1.5515    0.4618    3.8457 O   0  0  0  0  0  0  0  0  0  0  0  0
    2.0077    1.3036    6.0487 C   0  0  0  0  0  0  0  0  0  0  0  0
    1.3526    2.5332    6.0495 C   0  0  0  0  0  0  0  0  0  0  0  0
    1.4574    3.2211    7.2345 C   0  0  0  0  0  0  0  0  0  0  0  0
    2.1555    2.7183    8.3402 C   0  0  0  0  0  0  0  0  0  0  0  0
    2.8038    1.5060    8.3530 C   0  0  0  0  0  0  0  0  0  0  0  0
    2.7170    0.7923    7.1539 C   0  0  0  0  0  0  0  0  0  0  0  0
    3.2703   -0.5120    6.7900 C   0  0  0  0  0  0  0  0  0  0  0  0
    3.9854   -1.3297    7.6290 C   0  0  0  0  0  0  0  0  0  0  0  0
    4.4934   -2.6043    7.3044 C   0  0  0  0  0  0  0  0  0  0  0  0
    4.9375   -3.6500    7.1296 N   0  0  0  0  0  0  0  0  0  0  0  0
    4.3128   -1.0154    8.9643 C   0  0  0  0  0  0  0  0  0  0  0  0
    4.6178   -0.8302   10.0559 N   0  0  0  0  0  0  0  0  0  0  0  0
    1.8520    3.9306    9.1850 C   0  0  0  0  0  0  0  0  0  0  0  0
    2.9971    4.9494    9.3644 C   0  0  0  0  0  0  0  0  0  0  0  0
    2.2920    6.2131    9.8013 C   0  0  0  0  0  0  0  0  0  0  0  0
    1.6344    6.6912    8.7527 C   0  0  0  0  0  0  0  0  0  0  0  0
    1.8838    5.7584    7.5893 C   0  0  0  0  0  0  0  0  0  0  0  0
    3.3174    5.3157    7.9094 C   0  0  0  0  0  0  0  0  0  0  0  0
    1.0765    4.4932    7.9507 C   0  0  0  0  0  0  0  0  0  0  0  0
    3.0091   -2.2407    3.3628 C   0  0  0  0  0  0  0  0  0  0  0  0
    3.5393   -3.3957    2.7619 C   0  0  0  0  0  0  0  0  0  0  0  0
    4.5106   -4.3403    3.3911 C   0  0  0  0  0  0  0  0  0  0  0  0
    5.9428   -3.8153    3.2593 C   0  0  0  0  0  0  0  0  0  0  0  0
    3.0877   -3.5397    1.4568 C   0  0  0  0  0  0  0  0  0  0  0  0
    3.3913   -4.7552    0.2271 S   0  0  0  0  0  0  0  0  0  0  0  0
    2.3290   -3.9001   -0.8352 C   0  0  0  0  0  0  0  0  0  0  0  0
    1.7874   -4.0256   -2.1225 C   0  0  0  0  0  0  0  0  0  0  0  0
    1.8930   -5.0767   -3.0656 C   0  0  0  0  0  0  0  0  0  0  0  0
    1.0896   -5.0120   -4.2587 C   0  0  0  0  0  0  0  0  0  0  0  0
    1.1919   -6.0574   -5.0555 N   0  0  0  0  0  0  0  0  0  0  0  0
    2.3309   -7.2009   -4.3441 Se  0  0  0  0  0  2  0  0  0  0  0  0
    2.6226   -6.1681   -2.9446 N   0  0  0  0  0  0  0  0  0  0  0  0
    0.3324   -3.8399   -4.4980 C   0  0  0  0  0  0  0  0  0  0  0  0
   -0.4064   -3.4444   -5.6221 C   0  0  0  0  0  0  0  0  0  0  0  0
   -0.8900   -4.0727   -7.1591 S   0  0  0  0  0  0  0  0  0  0  0  0
   -1.6384   -2.5273   -7.5214 C   0  0  0  0  0  0  0  0  0  0  0  0
   -2.3266   -2.0553   -8.6340 C   0  0  0  0  0  0  0  0  0  0  0  0
   -2.6181   -2.9036   -9.8286 C   0  0  0  0  0  0  0  0  0  0  0  0
   -3.9967   -3.5577   -9.7024 C   0  0  0  0  0  0  0  0  0  0  0  0
   -2.7450   -0.7308   -8.4517 C   0  0  0  0  0  0  0  0  0  0  0  0
   -2.2579   -0.0864   -6.8837 S   0  0  0  0  0  0  0  0  0  0  0  0
   -1.5103   -1.5860   -6.4873 C   0  0  0  0  0  0  0  0  0  0  0  0
   -0.8125   -2.1231   -5.4009 C   0  0  0  0  0  0  0  0  0  0  0  0
   -0.3681   -1.6990   -4.1780 N   0  0  0  0  0  0  0  0  0  0  0  0
    0.3140   -2.7423   -3.5886 C   0  0  0  0  0  0  0  0  0  0  0  0
    0.9460   -2.8943   -2.3264 C   0  0  0  0  0  0  0  0  0  0  0  0
    0.9524   -2.1254   -1.1760 N   0  0  0  0  0  0  0  0  0  0  0  0
    1.7835   -2.7394   -0.2743 C   0  0  0  0  0  0  0  0  0  0  0  0
    2.2065   -2.5273    1.0404 C   0  0  0  0  0  0  0  0  0  0  0  0
    1.9418   -1.3532    2.2732 S   0  0  0  0  0  0  0  0  0  0  0  0
   -0.0588   -1.2248   -0.6632 C   0  0  0  0  0  0  0  0  0  0  0  0
   -1.3267   -1.9909   -0.2916 C   0  0  0  0  0  0  0  0  0  0  0  0
   -0.3861   -0.2889   -3.8602 C   0  0  0  0  0  0  0  0  0  0  0  0
   -1.7601    0.1808   -3.3846 C   0  0  0  0  0  0  0  0  0  0  0  0
   -3.4705    0.0125   -9.3935 C   0  0  0  0  0  0  0  0  0  0  0  0
   -3.9542    1.2891   -9.3277 C   0  0  0  0  0  0  0  0  0  0  0  0
   -4.7066    1.8766  -10.4534 C   0  0  0  0  0  0  0  0  0  0  0  0
   -4.9744    1.3413  -11.5080 O   0  0  0  0  0  0  0  0  0  0  0  0
   -5.0657    3.2511  -10.0224 C   0  0  0  0  0  0  0  0  0  0  0  0
   -5.7670    4.2346  -10.6924 C   0  0  0  0  0  0  0  0  0  0  0  0
   -5.9670    5.4507  -10.0497 C   0  0  0  0  0  0  0  0  0  0  0  0
   -5.4766    5.6729   -8.7709 C   0  0  0  0  0  0  0  0  0  0  0  0
   -4.7703    4.6860   -8.0944 C   0  0  0  0  0  0  0  0  0  0  0  0
   -4.5706    3.4763   -8.7315 C   0  0  0  0  0  0  0  0  0  0  0  0
   -3.8602    2.2673   -8.2500 C   0  0  0  0  0  0  0  0  0  0  0  0
   -3.3142    2.1405   -7.1668 O   0  0  0  0  0  0  0  0  0  0  0  0
    3.9481   -2.5665    5.1866 H   0  0  0  0  0  0  0  0  0  0  0  0
    0.8199    2.8773    5.1767 H   0  0  0  0  0  0  0  0  0  0  0  0
    3.3336    1.1356    9.2143 H   0  0  0  0  0  0  0  0  0  0  0  0
    1.3013    3.7422   10.1045 H   0  0  0  0  0  0  0  0  0  0  0  0
    3.8180    4.6059    9.9877 H   0  0  0  0  0  0  0  0  0  0  0  0
    2.2984    6.5860   10.8086 H   0  0  0  0  0  0  0  0  0  0  0  0
    0.9818    7.5434    8.7092 H   0  0  0  0  0  0  0  0  0  0  0  0
    1.6914    6.1538    6.5955 H   0  0  0  0  0  0  0  0  0  0  0  0
    3.6683    4.4790    7.3081 H   0  0  0  0  0  0  0  0  0  0  0  0
    4.0275    6.1379    7.8389 H   0  0  0  0  0  0  0  0  0  0  0  0
    0.0091    4.6831    8.0480 H   0  0  0  0  0  0  0  0  0  0  0  0
    4.2781   -4.4994    4.4451 H   0  0  0  0  0  0  0  0  0  0  0  0
    4.4347   -5.2998    2.8756 H   0  0  0  0  0  0  0  0  0  0  0  0
    6.2036   -3.6873    2.2113 H   0  0  0  0  0  0  0  0  0  0  0  0
    6.6363   -4.5205    3.7084 H   0  0  0  0  0  0  0  0  0  0  0  0
    6.0500   -2.8573    3.7632 H   0  0  0  0  0  0  0  0  0  0  0  0
   -2.5752   -2.3097  -10.7427 H   0  0  0  0  0  0  0  0  0  0  0  0
   -1.8564   -3.6835   -9.8891 H   0  0  0  0  0  0  0  0  0  0  0  0
   -4.0406   -4.1717   -8.8060 H   0  0  0  0  0  0  0  0  0  0  0  0
   -4.1895   -4.1896  -10.5653 H   0  0  0  0  0  0  0  0  0  0  0  0
   -4.7763   -2.8016   -9.6431 H   0  0  0  0  0  0  0  0  0  0  0  0
   -0.2896   -0.4413   -1.3771 H   0  0  0  0  0  0  0  0  0  0  0  0
    0.3622   -0.7554    0.2293 H   0  0  0  0  0  0  0  0  0  0  0  0
   -2.0691   -1.3055    0.1075 H   0  0  0  0  0  0  0  0  0  0  0  0
   -1.1061   -2.7406    0.4646 H   0  0  0  0  0  0  0  0  0  0  0  0
   -1.7405   -2.4941   -1.1636 H   0  0  0  0  0  0  0  0  0  0  0  0
    0.4000   -0.0840   -3.1321 H   0  0  0  0  0  0  0  0  0  0  0  0
   -0.1347    0.2563   -4.7766 H   0  0  0  0  0  0  0  0  0  0  0  0
   -1.6955    1.2062   -3.0317 H   0  0  0  0  0  0  0  0  0  0  0  0
   -2.1424   -0.4472   -2.5845 H   0  0  0  0  0  0  0  0  0  0  0  0
   -2.4668    0.1523   -4.2092 H   0  0  0  0  0  0  0  0  0  0  0  0
   -3.6927   -0.5003  -10.3246 H   0  0  0  0  0  0  0  0  0  0  0  0
   -6.1455    4.0544  -11.6868 H   0  0  0  0  0  0  0  0  0  0  0  0
   -6.5119    6.2358  -10.5529 H   0  0  0  0  0  0  0  0  0  0  0  0
   -5.6457    6.6280   -8.2954 H   0  0  0  0  0  0  0  0  0  0  0  0
   -4.3846    4.8498   -7.0997 H   0  0  0  0  0  0  0  0  0  0  0  0
  1  2  2  0  0  0  0
  2  3  1  0  0  0  0
  3  4  2  0  0  0  0
  3  5  1  0  0  0  0
  5  6  2  0  0  0  0
  6  7  1  0  0  0  0
  7  8  2  0  0  0  0
  8  9  1  0  0  0  0
  9 10  2  0  0  0  0
 10 11  1  0  0  0  0
 11 12  2  0  0  0  0
 12 13  1  0  0  0  0
 13 14  3  0  0  0  0
 12 15  1  0  0  0  0
 15 16  3  0  0  0  0
  8 17  1  0  0  0  0
 17 18  1  0  0  0  0
 18 19  1  0  0  0  0
 19 20  2  0  0  0  0
 20 21  1  0  0  0  0
 21 22  1  0  0  0  0
 21 23  1  0  0  0  0
  1 24  1  0  0  0  0
 24 25  2  0  0  0  0
 25 26  1  0  0  0  0
 26 27  1  0  0  0  0
 25 28  1  0  0  0  0
 28 29  1  0  0  0  0
 29 30  1  0  0  0  0
 30 31  1  0  0  0  0
 31 32  1  0  0  0  0
 32 33  1  0  0  0  0
 33 34  2  0  0  0  0
 34 35  1  0  0  0  0
 35 36  1  0  0  0  0
 33 37  1  0  0  0  0
 37 38  1  0  0  0  0
 38 39  1  0  0  0  0
 39 40  1  0  0  0  0
 40 41  1  0  0  0  0
 41 42  1  0  0  0  0
 42 43  1  0  0  0  0
 41 44  2  0  0  0  0
 44 45  1  0  0  0  0
 45 46  1  0  0  0  0
 46 47  1  0  0  0  0
 47 48  1  0  0  0  0
 48 49  1  0  0  0  0
 49 50  1  0  0  0  0
 50 51  1  0  0  0  0
 51 52  1  0  0  0  0
 52 53  1  0  0  0  0
 53 54  1  0  0  0  0
 51 55  1  0  0  0  0
 55 56  1  0  0  0  0
 48 57  1  0  0  0  0
 57 58  1  0  0  0  0
 44 59  1  0  0  0  0
 59 60  2  0  0  0  0
 60 61  1  0  0  0  0
 61 62  2  0  0  0  0
 61 63  1  0  0  0  0
 63 64  2  0  0  0  0
 64 65  1  0  0  0  0
 65 66  2  0  0  0  0
 66 67  1  0  0  0  0
 67 68  2  0  0  0  0
 68 69  1  0  0  0  0
 69 70  2  0  0  0  0
 11  2  1  0  0  0  0
 23 17  1  0  0  0  0
 54 24  1  0  0  0  0
 69 60  1  0  0  0  0
 10  5  1  0  0  0  0
 22 18  1  0  0  0  0
 53 28  2  0  0  0  0
 68 63  1  0  0  0  0
 23  7  1  0  0  0  0
 52 30  2  0  0  0  0
 50 31  2  0  0  0  0
 36 32  2  0  0  0  0
 49 37  2  0  0  0  0
 47 38  2  0  0  0  0
 46 40  2  0  0  0  0
  1 71  1  0  0  0  0
  6 72  1  0  0  0  0
  9 73  1  0  0  0  0
 17 74  1  0  0  0  0
 18 75  1  0  0  0  0
 19 76  1  0  0  0  0
 20 77  1  0  0  0  0
 21 78  1  0  0  0  0
 22 79  1  0  0  0  0
 22 80  1  0  0  0  0
 23 81  1  0  0  0  0
 26 82  1  0  0  0  0
 26 83  1  0  0  0  0
 27 84  1  0  0  0  0
 27 85  1  0  0  0  0
 27 86  1  0  0  0  0
 42 87  1  0  0  0  0
 42 88  1  0  0  0  0
 43 89  1  0  0  0  0
 43 90  1  0  0  0  0
 43 91  1  0  0  0  0
 55 92  1  0  0  0  0
 55 93  1  0  0  0  0
 56 94  1  0  0  0  0
 56 95  1  0  0  0  0
 56 96  1  0  0  0  0
 57 97  1  0  0  0  0
 57 98  1  0  0  0  0
 58 99  1  0  0  0  0
 58100  1  0  0  0  0
 58101  1  0  0  0  0
 59102  1  0  0  0  0
 64103  1  0  0  0  0
 65104  1  0  0  0  0
 66105  1  0  0  0  0
 67106  1  0  0  0  0
M  END
