
  xtb     02102221393D
 energy: -194.882454665853 gnorm: 0.000593114626 xtb: 6.4.1 (unknown)
114127  0     0  0            999 V2000
    5.2488   -1.9657    3.1188 C   0  0  0  0  0  0  0  0  0  0  0  0
    5.0812   -2.7681    4.2204 C   0  0  0  0  0  0  0  0  0  0  0  0
    3.8273   -3.3208    4.7709 C   0  0  0  0  0  0  0  0  0  0  0  0
    2.6784   -3.0824    4.4501 O   0  0  0  0  0  0  0  0  0  0  0  0
    4.2338   -4.3007    5.7973 C   0  0  0  0  0  0  0  0  0  0  0  0
    3.3876   -5.1135    6.5480 C   0  0  0  0  0  0  0  0  0  0  0  0
    4.0431   -5.9448    7.4236 C   0  0  0  0  0  0  0  0  0  0  0  0
    5.4389   -5.9694    7.5403 C   0  0  0  0  0  0  0  0  0  0  0  0
    6.2847   -5.1755    6.8026 C   0  0  0  0  0  0  0  0  0  0  0  0
    5.6367   -4.3181    5.9076 C   0  0  0  0  0  0  0  0  0  0  0  0
    6.1845   -3.3491    4.9608 C   0  0  0  0  0  0  0  0  0  0  0  0
    7.5150   -3.0245    4.8488 C   0  0  0  0  0  0  0  0  0  0  0  0
    8.0613   -2.0613    3.9766 C   0  0  0  0  0  0  0  0  0  0  0  0
    8.5913   -1.2938    3.3038 N   0  0  0  0  0  0  0  0  0  0  0  0
    8.5456   -3.6015    5.6186 C   0  0  0  0  0  0  0  0  0  0  0  0
    9.4391   -4.0222    6.2052 N   0  0  0  0  0  0  0  0  0  0  0  0
    5.4108   -7.0371    8.6061 C   0  0  0  0  0  0  0  0  0  0  0  0
    5.6403   -6.5684   10.0585 C   0  0  0  0  0  0  0  0  0  0  0  0
    5.0895   -7.7007   10.8949 C   0  0  0  0  0  0  0  0  0  0  0  0
    3.7674   -7.6778   10.7844 C   0  0  0  0  0  0  0  0  0  0  0  0
    3.4025   -6.5297    9.8714 C   0  0  0  0  0  0  0  0  0  0  0  0
    4.5162   -5.5392   10.2346 C   0  0  0  0  0  0  0  0  0  0  0  0
    3.8540   -7.0093    8.4757 C   0  0  0  0  0  0  0  0  0  0  0  0
    4.3153   -1.2702    2.3360 C   0  0  0  0  0  0  0  0  0  0  0  0
    2.9601   -0.9689    2.5830 C   0  0  0  0  0  0  0  0  0  0  0  0
    2.5245   -0.2449    1.4907 C   0  0  0  0  0  0  0  0  0  0  0  0
    3.6093   -0.1112    0.5922 C   0  0  0  0  0  0  0  0  0  0  0  0
    4.6947   -0.7079    1.1172 N   0  0  0  0  0  0  0  0  0  0  0  0
    5.9713   -0.8218    0.4536 C   0  0  0  0  0  0  0  0  0  0  0  0
    6.1553   -2.2000   -0.1780 C   0  0  0  0  0  0  0  0  0  0  0  0
    3.1318    0.5721   -0.5434 C   0  0  0  0  0  0  0  0  0  0  0  0
    3.6738    0.8524   -1.8181 C   0  0  0  0  0  0  0  0  0  0  0  0
    2.8228    1.3974   -2.8462 C   0  0  0  0  0  0  0  0  0  0  0  0
    3.4493    1.5239   -4.0046 N   0  0  0  0  0  0  0  0  0  0  0  0
    4.9754    1.0195   -3.8301 S   0  0  0  0  0  0  0  0  0  0  0  0
    4.8995    0.6124   -2.2611 N   0  0  0  0  0  0  0  0  0  0  0  0
    1.5048    1.7856   -2.5152 C   0  0  0  0  0  0  0  0  0  0  0  0
    0.4771    2.4290   -3.2276 C   0  0  0  0  0  0  0  0  0  0  0  0
    0.1209    2.9443   -4.8392 S   0  0  0  0  0  0  0  0  0  0  0  0
   -1.4374    3.5220   -4.2958 C   0  0  0  0  0  0  0  0  0  0  0  0
   -2.5218    4.1160   -4.9660 C   0  0  0  0  0  0  0  0  0  0  0  0
   -2.4694    4.5103   -6.4074 C   0  0  0  0  0  0  0  0  0  0  0  0
   -2.2438    3.3115   -7.3281 C   0  0  0  0  0  0  0  0  0  0  0  0
   -3.5474    4.4043   -4.0860 C   0  0  0  0  0  0  0  0  0  0  0  0
   -3.1550    3.9776   -2.4206 S   0  0  0  0  0  0  0  0  0  0  0  0
   -1.6326    3.3453   -2.9223 C   0  0  0  0  0  0  0  0  0  0  0  0
   -0.5497    2.7035   -2.3154 C   0  0  0  0  0  0  0  0  0  0  0  0
   -0.2142    2.2336   -1.0704 N   0  0  0  0  0  0  0  0  0  0  0  0
    1.0258    1.6328   -1.1877 C   0  0  0  0  0  0  0  0  0  0  0  0
    1.7711    0.8773   -0.2603 C   0  0  0  0  0  0  0  0  0  0  0  0
    1.4012    0.3585    0.9671 N   0  0  0  0  0  0  0  0  0  0  0  0
    0.0737   -0.0957    1.3332 C   0  0  0  0  0  0  0  0  0  0  0  0
   -0.0411   -1.6180    1.2603 C   0  0  0  0  0  0  0  0  0  0  0  0
   -0.7616    2.8429    0.1248 C   0  0  0  0  0  0  0  0  0  0  0  0
   -0.4723    4.3432    0.1613 C   0  0  0  0  0  0  0  0  0  0  0  0
   -4.7995    5.0564   -4.2903 C   0  0  0  0  0  0  0  0  0  0  0  0
   -5.6870    4.7968   -5.2798 C   0  0  0  0  0  0  0  0  0  0  0  0
   -7.1146    5.7880   -5.5461 S   0  0  0  0  0  0  0  0  0  0  0  0
   -7.6763    4.7081   -6.8039 C   0  0  0  0  0  0  0  0  0  0  0  0
   -8.8125    4.9980   -7.5128 C   0  0  0  0  0  0  0  0  0  0  0  0
   -9.3186    4.2748   -8.6057 C   0  0  0  0  0  0  0  0  0  0  0  0
   -9.7633    3.7541   -9.5275 N   0  0  0  0  0  0  0  0  0  0  0  0
   -9.5568    6.1506   -7.1847 C   0  0  0  0  0  0  0  0  0  0  0  0
  -10.1677    7.0856   -6.9243 N   0  0  0  0  0  0  0  0  0  0  0  0
   -6.8510    3.6366   -6.9451 N   0  0  0  0  0  0  0  0  0  0  0  0
   -7.1859    2.4592   -7.7218 C   0  0  0  0  0  0  0  0  0  0  0  0
   -8.3887    1.7348   -7.1658 C   0  0  0  0  0  0  0  0  0  0  0  0
   -8.6295    1.7042   -5.7984 C   0  0  0  0  0  0  0  0  0  0  0  0
   -9.7325    1.0362   -5.2967 C   0  0  0  0  0  0  0  0  0  0  0  0
  -10.5988    0.3842   -6.1564 C   0  0  0  0  0  0  0  0  0  0  0  0
  -10.3544    0.3980   -7.5192 C   0  0  0  0  0  0  0  0  0  0  0  0
   -9.2563    1.0714   -8.0225 C   0  0  0  0  0  0  0  0  0  0  0  0
   -5.7252    3.6100   -6.1307 C   0  0  0  0  0  0  0  0  0  0  0  0
   -4.9579    2.6742   -6.1090 O   0  0  0  0  0  0  0  0  0  0  0  0
    6.2691   -1.8660    2.7753 H   0  0  0  0  0  0  0  0  0  0  0  0
    2.3174   -5.0657    6.4199 H   0  0  0  0  0  0  0  0  0  0  0  0
    7.3566   -5.2165    6.8973 H   0  0  0  0  0  0  0  0  0  0  0  0
    5.9371   -7.9596    8.3683 H   0  0  0  0  0  0  0  0  0  0  0  0
    6.6545   -6.2457   10.2775 H   0  0  0  0  0  0  0  0  0  0  0  0
    5.7006   -8.4126   11.4180 H   0  0  0  0  0  0  0  0  0  0  0  0
    3.0535   -8.3669   11.1966 H   0  0  0  0  0  0  0  0  0  0  0  0
    2.3774   -6.1719    9.9208 H   0  0  0  0  0  0  0  0  0  0  0  0
    4.5873   -4.6857    9.5630 H   0  0  0  0  0  0  0  0  0  0  0  0
    4.4364   -5.1886   11.2622 H   0  0  0  0  0  0  0  0  0  0  0  0
    3.3426   -7.9134    8.1501 H   0  0  0  0  0  0  0  0  0  0  0  0
    2.4190   -1.2548    3.4596 H   0  0  0  0  0  0  0  0  0  0  0  0
    5.9893   -0.0647   -0.3339 H   0  0  0  0  0  0  0  0  0  0  0  0
    6.7784   -0.6151    1.1623 H   0  0  0  0  0  0  0  0  0  0  0  0
    6.0867   -2.9868    0.5700 H   0  0  0  0  0  0  0  0  0  0  0  0
    7.1299   -2.2550   -0.6538 H   0  0  0  0  0  0  0  0  0  0  0  0
    5.3901   -2.3684   -0.9319 H   0  0  0  0  0  0  0  0  0  0  0  0
   -1.6407    5.2148   -6.5318 H   0  0  0  0  0  0  0  0  0  0  0  0
   -3.3931    5.0218   -6.6809 H   0  0  0  0  0  0  0  0  0  0  0  0
   -2.2639    3.6353   -8.3656 H   0  0  0  0  0  0  0  0  0  0  0  0
   -1.2805    2.8511   -7.1272 H   0  0  0  0  0  0  0  0  0  0  0  0
   -3.0235    2.5720   -7.1726 H   0  0  0  0  0  0  0  0  0  0  0  0
   -0.1494    0.2413    2.3512 H   0  0  0  0  0  0  0  0  0  0  0  0
   -0.6484    0.3363    0.6413 H   0  0  0  0  0  0  0  0  0  0  0  0
    0.2127   -1.9659    0.2611 H   0  0  0  0  0  0  0  0  0  0  0  0
   -1.0632   -1.9127    1.4824 H   0  0  0  0  0  0  0  0  0  0  0  0
    0.6218   -2.0964    1.9748 H   0  0  0  0  0  0  0  0  0  0  0  0
   -1.8429    2.6731    0.1412 H   0  0  0  0  0  0  0  0  0  0  0  0
   -0.3056    2.3815    0.9986 H   0  0  0  0  0  0  0  0  0  0  0  0
   -0.9521    4.8535   -0.6691 H   0  0  0  0  0  0  0  0  0  0  0  0
   -0.8508    4.7632    1.0889 H   0  0  0  0  0  0  0  0  0  0  0  0
    0.5998    4.5201    0.1090 H   0  0  0  0  0  0  0  0  0  0  0  0
   -5.0698    5.8084   -3.5573 H   0  0  0  0  0  0  0  0  0  0  0  0
   -7.3496    2.7338   -8.7666 H   0  0  0  0  0  0  0  0  0  0  0  0
   -6.3019    1.8121   -7.6603 H   0  0  0  0  0  0  0  0  0  0  0  0
   -7.9523    2.1977   -5.1142 H   0  0  0  0  0  0  0  0  0  0  0  0
   -9.9126    1.0261   -4.2320 H   0  0  0  0  0  0  0  0  0  0  0  0
  -11.4613   -0.1336   -5.7647 H   0  0  0  0  0  0  0  0  0  0  0  0
  -11.0250   -0.1103   -8.1950 H   0  0  0  0  0  0  0  0  0  0  0  0
   -9.0775    1.0936   -9.0866 H   0  0  0  0  0  0  0  0  0  0  0  0
  1  2  2  0  0  0  0
  2  3  1  0  0  0  0
  3  4  2  0  0  0  0
  3  5  1  0  0  0  0
  5  6  2  0  0  0  0
  6  7  1  0  0  0  0
  7  8  2  0  0  0  0
  8  9  1  0  0  0  0
  9 10  2  0  0  0  0
 10 11  1  0  0  0  0
 11 12  2  0  0  0  0
 12 13  1  0  0  0  0
 13 14  3  0  0  0  0
 12 15  1  0  0  0  0
 15 16  3  0  0  0  0
  8 17  1  0  0  0  0
 17 18  1  0  0  0  0
 18 19  1  0  0  0  0
 19 20  2  0  0  0  0
 20 21  1  0  0  0  0
 21 22  1  0  0  0  0
 21 23  1  0  0  0  0
  1 24  1  0  0  0  0
 24 25  2  0  0  0  0
 25 26  1  0  0  0  0
 26 27  2  0  0  0  0
 27 28  1  0  0  0  0
 28 29  1  0  0  0  0
 29 30  1  0  0  0  0
 27 31  1  0  0  0  0
 31 32  1  0  0  0  0
 32 33  1  0  0  0  0
 33 34  2  0  0  0  0
 34 35  1  0  0  0  0
 35 36  1  0  0  0  0
 33 37  1  0  0  0  0
 37 38  1  0  0  0  0
 38 39  1  0  0  0  0
 39 40  1  0  0  0  0
 40 41  1  0  0  0  0
 41 42  1  0  0  0  0
 42 43  1  0  0  0  0
 41 44  2  0  0  0  0
 44 45  1  0  0  0  0
 45 46  1  0  0  0  0
 46 47  1  0  0  0  0
 47 48  1  0  0  0  0
 48 49  1  0  0  0  0
 49 50  1  0  0  0  0
 50 51  1  0  0  0  0
 51 52  1  0  0  0  0
 52 53  1  0  0  0  0
 48 54  1  0  0  0  0
 54 55  1  0  0  0  0
 44 56  1  0  0  0  0
 56 57  2  0  0  0  0
 57 58  1  0  0  0  0
 58 59  1  0  0  0  0
 59 60  2  0  0  0  0
 60 61  1  0  0  0  0
 61 62  3  0  0  0  0
 60 63  1  0  0  0  0
 63 64  3  0  0  0  0
 59 65  1  0  0  0  0
 65 66  1  0  0  0  0
 66 67  1  0  0  0  0
 67 68  2  0  0  0  0
 68 69  1  0  0  0  0
 69 70  2  0  0  0  0
 70 71  1  0  0  0  0
 71 72  2  0  0  0  0
 65 73  1  0  0  0  0
 73 74  2  0  0  0  0
 11  2  1  0  0  0  0
 23 17  1  0  0  0  0
 28 24  1  0  0  0  0
 50 31  2  0  0  0  0
 73 57  1  0  0  0  0
 10  5  1  0  0  0  0
 22 18  1  0  0  0  0
 51 26  1  0  0  0  0
 72 67  1  0  0  0  0
 23  7  1  0  0  0  0
 36 32  2  0  0  0  0
 49 37  2  0  0  0  0
 47 38  2  0  0  0  0
 46 40  2  0  0  0  0
  1 75  1  0  0  0  0
  6 76  1  0  0  0  0
  9 77  1  0  0  0  0
 17 78  1  0  0  0  0
 18 79  1  0  0  0  0
 19 80  1  0  0  0  0
 20 81  1  0  0  0  0
 21 82  1  0  0  0  0
 22 83  1  0  0  0  0
 22 84  1  0  0  0  0
 23 85  1  0  0  0  0
 25 86  1  0  0  0  0
 29 87  1  0  0  0  0
 29 88  1  0  0  0  0
 30 89  1  0  0  0  0
 30 90  1  0  0  0  0
 30 91  1  0  0  0  0
 42 92  1  0  0  0  0
 42 93  1  0  0  0  0
 43 94  1  0  0  0  0
 43 95  1  0  0  0  0
 43 96  1  0  0  0  0
 52 97  1  0  0  0  0
 52 98  1  0  0  0  0
 53 99  1  0  0  0  0
 53100  1  0  0  0  0
 53101  1  0  0  0  0
 54102  1  0  0  0  0
 54103  1  0  0  0  0
 55104  1  0  0  0  0
 55105  1  0  0  0  0
 55106  1  0  0  0  0
 56107  1  0  0  0  0
 66108  1  0  0  0  0
 66109  1  0  0  0  0
 68110  1  0  0  0  0
 69111  1  0  0  0  0
 70112  1  0  0  0  0
 71113  1  0  0  0  0
 72114  1  0  0  0  0
M  END
