
  xtb     02112202223D
 energy: -207.419682085503 gnorm: 0.000240030465 xtb: 6.4.1 (unknown)
125139  0     0  0            999 V2000
   -3.8434    5.4266   -0.2776 C   0  0  0  0  0  0  0  0  0  0  0  0
   -5.1715    5.1597   -0.2312 C   0  0  0  0  0  0  0  0  0  0  0  0
   -6.1779    6.2420   -0.3910 C   0  0  0  0  0  0  0  0  0  0  0  0
   -5.9742    7.3699   -0.7828 O   0  0  0  0  0  0  0  0  0  0  0  0
   -7.4537    5.6634    0.0760 C   0  0  0  0  0  0  0  0  0  0  0  0
   -8.6757    6.3181    0.2167 C   0  0  0  0  0  0  0  0  0  0  0  0
   -9.6901    5.5193    0.6869 C   0  0  0  0  0  0  0  0  0  0  0  0
   -9.5062    4.1658    1.0014 C   0  0  0  0  0  0  0  0  0  0  0  0
   -8.3100    3.5045    0.8634 C   0  0  0  0  0  0  0  0  0  0  0  0
   -7.2663    4.2981    0.3797 C   0  0  0  0  0  0  0  0  0  0  0  0
   -5.8912    3.9322    0.0527 C   0  0  0  0  0  0  0  0  0  0  0  0
   -5.4485    2.6582   -0.1885 C   0  0  0  0  0  0  0  0  0  0  0  0
   -6.2062    1.4954    0.0549 C   0  0  0  0  0  0  0  0  0  0  0  0
   -6.7603    0.5099    0.2577 N   0  0  0  0  0  0  0  0  0  0  0  0
   -4.2181    2.3423   -0.8033 C   0  0  0  0  0  0  0  0  0  0  0  0
   -3.2848    2.0012   -1.3789 N   0  0  0  0  0  0  0  0  0  0  0  0
  -10.9423    3.9854    1.4237 C   0  0  0  0  0  0  0  0  0  0  0  0
  -11.2514    3.9404    2.9404 C   0  0  0  0  0  0  0  0  0  0  0  0
  -10.1599    4.7259    3.6238 C   0  0  0  0  0  0  0  0  0  0  0  0
  -10.3350    6.0063    3.3257 C   0  0  0  0  0  0  0  0  0  0  0  0
  -11.5483    6.1099    2.4351 C   0  0  0  0  0  0  0  0  0  0  0  0
  -12.3987    4.9613    3.0014 C   0  0  0  0  0  0  0  0  0  0  0  0
  -11.1486    5.4925    1.0722 C   0  0  0  0  0  0  0  0  0  0  0  0
   -2.7825    4.5709    0.1802 C   0  0  0  0  0  0  0  0  0  0  0  0
   -2.9594    3.7629    1.3230 C   0  0  0  0  0  0  0  0  0  0  0  0
   -1.9990    2.8760    1.7345 C   0  0  0  0  0  0  0  0  0  0  0  0
   -0.8374    2.7291    0.9717 C   0  0  0  0  0  0  0  0  0  0  0  0
    0.2892    1.8798    0.9839 C   0  0  0  0  0  0  0  0  0  0  0  0
    1.0982    2.2334   -0.1028 C   0  0  0  0  0  0  0  0  0  0  0  0
    0.5464    3.2739   -0.7882 N   0  0  0  0  0  0  0  0  0  0  0  0
   -0.6335    3.5886   -0.1615 C   0  0  0  0  0  0  0  0  0  0  0  0
   -1.5787    4.5283   -0.5231 C   0  0  0  0  0  0  0  0  0  0  0  0
    1.1254    3.9393   -1.9257 C   0  0  0  0  0  0  0  0  0  0  0  0
    1.7991    5.2507   -1.5240 C   0  0  0  0  0  0  0  0  0  0  0  0
    2.1514    1.3089   -0.1606 C   0  0  0  0  0  0  0  0  0  0  0  0
    3.1455    1.0516   -1.1265 C   0  0  0  0  0  0  0  0  0  0  0  0
    3.9320   -0.1274   -1.0301 C   0  0  0  0  0  0  0  0  0  0  0  0
    4.7228   -0.1763   -2.1052 N   0  0  0  0  0  0  0  0  0  0  0  0
    4.4195    0.9095   -2.7779 N   0  0  0  0  0  0  0  0  0  0  0  0
    5.0257    1.2103   -4.0415 C   0  0  0  0  0  0  0  0  0  0  0  0
    4.2074    0.6215   -5.1877 C   0  0  0  0  0  0  0  0  0  0  0  0
    3.4906    1.6764   -2.2554 N   0  0  0  0  0  0  0  0  0  0  0  0
    3.8056   -0.9630    0.0978 C   0  0  0  0  0  0  0  0  0  0  0  0
    2.8953   -0.6318    1.1469 C   0  0  0  0  0  0  0  0  0  0  0  0
    1.9721    0.4265    0.9468 C   0  0  0  0  0  0  0  0  0  0  0  0
    0.8246    0.7956    1.6358 N   0  0  0  0  0  0  0  0  0  0  0  0
   -0.0052   -0.0143    2.4999 C   0  0  0  0  0  0  0  0  0  0  0  0
   -0.3478   -1.3618    1.8699 C   0  0  0  0  0  0  0  0  0  0  0  0
    3.0556   -1.5384    2.1858 N   0  0  0  0  0  0  0  0  0  0  0  0
    2.7666   -1.3631    3.5924 C   0  0  0  0  0  0  0  0  0  0  0  0
    3.1680    0.0223    4.0922 C   0  0  0  0  0  0  0  0  0  0  0  0
    3.9921   -2.4597    1.7808 C   0  0  0  0  0  0  0  0  0  0  0  0
    4.4584   -2.1361    0.5001 C   0  0  0  0  0  0  0  0  0  0  0  0
    5.3446   -3.0757    0.0651 N   0  0  0  0  0  0  0  0  0  0  0  0
    6.0363   -3.0653   -1.1974 C   0  0  0  0  0  0  0  0  0  0  0  0
    7.4896   -2.6230   -1.0359 C   0  0  0  0  0  0  0  0  0  0  0  0
    5.4383   -4.0262    1.0533 C   0  0  0  0  0  0  0  0  0  0  0  0
    4.6068   -3.6649    2.1708 C   0  0  0  0  0  0  0  0  0  0  0  0
    4.5643   -4.5061    3.2868 C   0  0  0  0  0  0  0  0  0  0  0  0
    5.2909   -5.6676    3.2776 C   0  0  0  0  0  0  0  0  0  0  0  0
    6.0347   -6.0688    2.1466 C   0  0  0  0  0  0  0  0  0  0  0  0
    6.1292   -5.2173    1.0398 C   0  0  0  0  0  0  0  0  0  0  0  0
    6.6773   -7.3466    2.1609 C   0  0  0  0  0  0  0  0  0  0  0  0
    6.9619   -8.1614    1.1080 C   0  0  0  0  0  0  0  0  0  0  0  0
    7.9538   -9.2560    1.2634 C   0  0  0  0  0  0  0  0  0  0  0  0
    8.4351   -9.6619    2.2977 O   0  0  0  0  0  0  0  0  0  0  0  0
    8.2598   -9.7019   -0.1128 C   0  0  0  0  0  0  0  0  0  0  0  0
    9.1898  -10.6281   -0.5449 C   0  0  0  0  0  0  0  0  0  0  0  0
    9.3108  -10.8636   -1.9054 C   0  0  0  0  0  0  0  0  0  0  0  0
    8.5075  -10.1687   -2.8022 C   0  0  0  0  0  0  0  0  0  0  0  0
    8.6849  -10.4649   -4.4910 Cl  0  0  0  0  0  0  0  0  0  0  0  0
    7.5605   -9.2403   -2.3821 C   0  0  0  0  0  0  0  0  0  0  0  0
    7.4373   -9.0127   -1.0224 C   0  0  0  0  0  0  0  0  0  0  0  0
    6.5188   -8.1565   -0.2697 C   0  0  0  0  0  0  0  0  0  0  0  0
    5.3274   -7.6769   -0.7492 C   0  0  0  0  0  0  0  0  0  0  0  0
    4.9387   -7.7418   -2.1017 C   0  0  0  0  0  0  0  0  0  0  0  0
    4.5888   -7.7274   -3.1955 N   0  0  0  0  0  0  0  0  0  0  0  0
    4.3061   -7.1299    0.0566 C   0  0  0  0  0  0  0  0  0  0  0  0
    3.3984   -6.7486    0.6469 N   0  0  0  0  0  0  0  0  0  0  0  0
   -3.5685    6.3994   -0.6718 H   0  0  0  0  0  0  0  0  0  0  0  0
   -8.7774    7.3614   -0.0383 H   0  0  0  0  0  0  0  0  0  0  0  0
   -8.1783    2.4643    1.1121 H   0  0  0  0  0  0  0  0  0  0  0  0
  -11.5129    3.2481    0.8624 H   0  0  0  0  0  0  0  0  0  0  0  0
  -11.4444    2.9453    3.3322 H   0  0  0  0  0  0  0  0  0  0  0  0
   -9.3637    4.2777    4.1890 H   0  0  0  0  0  0  0  0  0  0  0  0
   -9.7140    6.8418    3.5915 H   0  0  0  0  0  0  0  0  0  0  0  0
  -12.0125    7.0904    2.3683 H   0  0  0  0  0  0  0  0  0  0  0  0
  -12.7403    5.1513    4.0178 H   0  0  0  0  0  0  0  0  0  0  0  0
  -13.2471    4.6981    2.3712 H   0  0  0  0  0  0  0  0  0  0  0  0
  -11.8554    5.7386    0.2820 H   0  0  0  0  0  0  0  0  0  0  0  0
   -3.8662    3.8756    1.8999 H   0  0  0  0  0  0  0  0  0  0  0  0
   -2.1583    2.2910    2.6284 H   0  0  0  0  0  0  0  0  0  0  0  0
   -1.4423    5.1591   -1.3880 H   0  0  0  0  0  0  0  0  0  0  0  0
    1.8665    3.2621   -2.3575 H   0  0  0  0  0  0  0  0  0  0  0  0
    0.3384    4.1277   -2.6620 H   0  0  0  0  0  0  0  0  0  0  0  0
    2.2164    5.7374   -2.4011 H   0  0  0  0  0  0  0  0  0  0  0  0
    2.6036    5.0553   -0.8190 H   0  0  0  0  0  0  0  0  0  0  0  0
    1.0843    5.9239   -1.0560 H   0  0  0  0  0  0  0  0  0  0  0  0
    6.0313    0.7850   -4.0319 H   0  0  0  0  0  0  0  0  0  0  0  0
    5.0801    2.2973   -4.1316 H   0  0  0  0  0  0  0  0  0  0  0  0
    4.6760    0.8599   -6.1382 H   0  0  0  0  0  0  0  0  0  0  0  0
    4.1455   -0.4594   -5.0877 H   0  0  0  0  0  0  0  0  0  0  0  0
    3.2009    1.0324   -5.1786 H   0  0  0  0  0  0  0  0  0  0  0  0
   -0.9269    0.5484    2.6502 H   0  0  0  0  0  0  0  0  0  0  0  0
    0.4614   -0.1391    3.4790 H   0  0  0  0  0  0  0  0  0  0  0  0
    0.5450   -1.9497    1.6750 H   0  0  0  0  0  0  0  0  0  0  0  0
   -0.9990   -1.9245    2.5338 H   0  0  0  0  0  0  0  0  0  0  0  0
   -0.8667   -1.2049    0.9270 H   0  0  0  0  0  0  0  0  0  0  0  0
    3.3586   -2.1131    4.1199 H   0  0  0  0  0  0  0  0  0  0  0  0
    1.7155   -1.5729    3.8051 H   0  0  0  0  0  0  0  0  0  0  0  0
    4.2325    0.1796    3.9328 H   0  0  0  0  0  0  0  0  0  0  0  0
    2.6273    0.8062    3.5689 H   0  0  0  0  0  0  0  0  0  0  0  0
    2.9609    0.1048    5.1562 H   0  0  0  0  0  0  0  0  0  0  0  0
    5.5140   -2.3614   -1.8492 H   0  0  0  0  0  0  0  0  0  0  0  0
    5.9894   -4.0657   -1.6401 H   0  0  0  0  0  0  0  0  0  0  0  0
    8.0200   -3.2775   -0.3477 H   0  0  0  0  0  0  0  0  0  0  0  0
    7.9923   -2.6451   -1.9987 H   0  0  0  0  0  0  0  0  0  0  0  0
    7.5257   -1.6083   -0.6475 H   0  0  0  0  0  0  0  0  0  0  0  0
    3.9550   -4.2581    4.1429 H   0  0  0  0  0  0  0  0  0  0  0  0
    5.2519   -6.3333    4.1265 H   0  0  0  0  0  0  0  0  0  0  0  0
    6.7526   -5.4898    0.2011 H   0  0  0  0  0  0  0  0  0  0  0  0
    7.0189   -7.7095    3.1254 H   0  0  0  0  0  0  0  0  0  0  0  0
    9.8028  -11.1542    0.1702 H   0  0  0  0  0  0  0  0  0  0  0  0
   10.0246  -11.5815   -2.2773 H   0  0  0  0  0  0  0  0  0  0  0  0
    6.9567   -8.7205   -3.1079 H   0  0  0  0  0  0  0  0  0  0  0  0
  1  2  2  0  0  0  0
  2  3  1  0  0  0  0
  3  4  2  0  0  0  0
  3  5  1  0  0  0  0
  5  6  2  0  0  0  0
  6  7  1  0  0  0  0
  7  8  2  0  0  0  0
  8  9  1  0  0  0  0
  9 10  2  0  0  0  0
 10 11  1  0  0  0  0
 11 12  2  0  0  0  0
 12 13  1  0  0  0  0
 13 14  3  0  0  0  0
 12 15  1  0  0  0  0
 15 16  3  0  0  0  0
  8 17  1  0  0  0  0
 17 18  1  0  0  0  0
 18 19  1  0  0  0  0
 19 20  2  0  0  0  0
 20 21  1  0  0  0  0
 21 22  1  0  0  0  0
 21 23  1  0  0  0  0
  1 24  1  0  0  0  0
 24 25  2  0  0  0  0
 25 26  1  0  0  0  0
 26 27  2  0  0  0  0
 27 28  1  0  0  0  0
 28 29  2  0  0  0  0
 29 30  1  0  0  0  0
 30 31  1  0  0  0  0
 31 32  2  0  0  0  0
 30 33  1  0  0  0  0
 33 34  1  0  0  0  0
 29 35  1  0  0  0  0
 35 36  1  0  0  0  0
 36 37  1  0  0  0  0
 37 38  2  0  0  0  0
 38 39  1  0  0  0  0
 39 40  1  0  0  0  0
 40 41  1  0  0  0  0
 39 42  1  0  0  0  0
 37 43  1  0  0  0  0
 43 44  2  0  0  0  0
 44 45  1  0  0  0  0
 45 46  1  0  0  0  0
 46 47  1  0  0  0  0
 47 48  1  0  0  0  0
 44 49  1  0  0  0  0
 49 50  1  0  0  0  0
 50 51  1  0  0  0  0
 49 52  1  0  0  0  0
 52 53  2  0  0  0  0
 53 54  1  0  0  0  0
 54 55  1  0  0  0  0
 55 56  1  0  0  0  0
 54 57  1  0  0  0  0
 57 58  2  0  0  0  0
 58 59  1  0  0  0  0
 59 60  2  0  0  0  0
 60 61  1  0  0  0  0
 61 62  2  0  0  0  0
 61 63  1  0  0  0  0
 63 64  2  0  0  0  0
 64 65  1  0  0  0  0
 65 66  2  0  0  0  0
 65 67  1  0  0  0  0
 67 68  2  0  0  0  0
 68 69  1  0  0  0  0
 69 70  2  0  0  0  0
 70 71  1  0  0  0  0
 70 72  1  0  0  0  0
 72 73  2  0  0  0  0
 73 74  1  0  0  0  0
 74 75  2  0  0  0  0
 75 76  1  0  0  0  0
 76 77  3  0  0  0  0
 75 78  1  0  0  0  0
 78 79  3  0  0  0  0
 11  2  1  0  0  0  0
 23 17  1  0  0  0  0
 32 24  1  0  0  0  0
 45 35  2  0  0  0  0
 58 52  1  0  0  0  0
 74 64  1  0  0  0  0
 10  5  1  0  0  0  0
 22 18  1  0  0  0  0
 31 27  1  0  0  0  0
 42 36  2  0  0  0  0
 53 43  1  0  0  0  0
 62 57  1  0  0  0  0
 73 67  1  0  0  0  0
 23  7  1  0  0  0  0
 46 28  1  0  0  0  0
  1 80  1  0  0  0  0
  6 81  1  0  0  0  0
  9 82  1  0  0  0  0
 17 83  1  0  0  0  0
 18 84  1  0  0  0  0
 19 85  1  0  0  0  0
 20 86  1  0  0  0  0
 21 87  1  0  0  0  0
 22 88  1  0  0  0  0
 22 89  1  0  0  0  0
 23 90  1  0  0  0  0
 25 91  1  0  0  0  0
 26 92  1  0  0  0  0
 32 93  1  0  0  0  0
 33 94  1  0  0  0  0
 33 95  1  0  0  0  0
 34 96  1  0  0  0  0
 34 97  1  0  0  0  0
 34 98  1  0  0  0  0
 40 99  1  0  0  0  0
 40100  1  0  0  0  0
 41101  1  0  0  0  0
 41102  1  0  0  0  0
 41103  1  0  0  0  0
 47104  1  0  0  0  0
 47105  1  0  0  0  0
 48106  1  0  0  0  0
 48107  1  0  0  0  0
 48108  1  0  0  0  0
 50109  1  0  0  0  0
 50110  1  0  0  0  0
 51111  1  0  0  0  0
 51112  1  0  0  0  0
 51113  1  0  0  0  0
 55114  1  0  0  0  0
 55115  1  0  0  0  0
 56116  1  0  0  0  0
 56117  1  0  0  0  0
 56118  1  0  0  0  0
 59119  1  0  0  0  0
 60120  1  0  0  0  0
 62121  1  0  0  0  0
 63122  1  0  0  0  0
 68123  1  0  0  0  0
 69124  1  0  0  0  0
 72125  1  0  0  0  0
M  END
