130

C         -1.01530       -4.07510       -5.48340
C         -1.81810       -5.11770       -5.09270
C         -2.35460       -5.33840       -3.74820
O         -2.21050       -4.62960       -2.76450
C         -3.12050       -6.59390       -3.80650
C         -3.80910       -7.20540       -2.76190
C         -4.43240       -8.37820       -3.11450
C         -4.37690       -8.90200       -4.41260
C         -3.70570       -8.30470       -5.45340
C         -3.06130       -7.11150       -5.11630
C         -2.26040       -6.20590       -5.94070
C         -1.99100       -6.38370       -7.27430
C         -2.43990       -7.48060       -8.03970
N         -2.76100       -8.33880       -8.73210
C         -1.23580       -5.52650       -8.10190
N         -0.64200       -4.90730       -8.86710
C         -5.21110      -10.10440       -4.04910
C         -4.47870      -11.45330       -3.84170
C         -3.07080      -11.11710       -3.41700
C         -3.12580      -10.62150       -2.18800
C         -4.57250      -10.61300       -1.75960
C         -5.07790      -11.86840       -2.48840
C         -5.27480       -9.51990       -2.60270
C         -0.52090       -2.98430       -4.75910
C          0.32610       -2.01930       -5.33910
C          0.90190       -2.12610       -6.67580
C          0.83780       -1.04670       -7.55420
C          1.34970       -1.15830       -8.83090
C          1.95190       -2.33530       -9.25950
C          2.42330       -2.48770      -10.67400
C          1.27940       -3.02550      -11.53770
C          2.05260       -3.39460       -8.36580
C          1.53690       -3.29600       -7.09050
C          0.56670       -0.96030       -4.46730
S          1.52240        0.50280       -4.60900
C          1.10690        0.89350       -2.97550
C          1.33570        1.90630       -2.03260
C          1.99400        3.15180       -2.13810
C          1.99980        4.03230       -1.00520
N          2.60090        5.18310       -1.26190
S          3.11950        5.16000       -2.79540
N          2.59700        3.68020       -3.19110
C          1.46560        3.57150        0.21910
C          1.51840        4.11430        1.50990
S          2.08710        5.54170        2.30160
C          1.66210        4.82510        3.83880
C          1.76690        5.29140        5.15370
C          2.22760        6.62620        5.51620
C          1.52990        7.39060        6.44900
C          2.04010        8.59810        6.87900
C          3.25490        9.07340        6.39420
C          3.81620       10.37870        6.87590
C          3.41250       11.51710        5.93660
C          3.91860        8.33240        5.42560
C          3.41460        7.12430        4.98480
C          1.30780        4.33950        6.06900
S          0.66540        2.90760        5.26000
C          1.08920        3.54870        3.71800
C          1.00200        3.14700        2.38270
N          0.60680        2.04400        1.67270
C          0.86380        2.28530        0.33720
C          0.67490        1.50780       -0.83390
N          0.01490        0.31380       -1.06830
C          0.28330       -0.05680       -2.36150
C         -0.04230       -1.11710       -3.21220
S         -0.95220       -2.57870       -3.09960
C         -1.18720       -0.20760       -0.45240
C         -2.43570        0.35160       -1.13420
C          0.32460        0.80370        2.36010
C         -1.06880        0.80100        2.98960
C          1.23940        4.35120        7.47370
C          2.01480        5.07600        8.34430
C          3.33270        5.66560        8.02130
O          4.00410        5.46460        7.03340
C          3.72870        6.42090        9.22920
C          4.80400        7.25950        9.45000
F          5.68410        7.52520        8.47730
C          4.97110        7.86280       10.69040
C          4.06160        7.60660       11.70160
C          2.96980        6.77060       11.50140
C          2.80040        6.18300       10.25850
C          1.73980        5.31410        9.74060
C          0.65140        4.88420       10.45860
C          0.43500        5.16330       11.82350
N          0.19670        5.34310       12.93240
C         -0.40790        4.10590        9.94850
N         -1.31550        3.48960        9.60730
H         -0.70360       -4.07000       -6.52090
H         -3.82670       -6.76530       -1.77710
H         -3.67790       -8.72150       -6.44590
H         -6.14540      -10.21980       -4.59480
H         -4.57650      -12.15130       -4.66870
H         -2.21280      -11.21750       -4.05570
H         -2.32300      -10.22490       -1.59440
H         -4.75650      -10.54670       -0.69040
H         -6.16350      -11.95440       -2.50270
H         -4.64110      -12.78640       -2.09810
H         -6.25150       -9.25170       -2.20440
H          0.35710       -0.13230       -7.23920
H          1.27460       -0.32060       -9.50920
H          2.75630       -1.52480      -11.06680
H          3.26280       -3.18460      -10.71290
H          0.90550       -3.95890      -11.12490
H          1.61960       -3.19950      -12.55590
H          0.45790       -2.31340      -11.56100
H          2.53390       -4.31010       -8.67610
H          1.64340       -4.12020       -6.39940
H          0.58670        7.03190        6.83710
H          1.49520        9.17660        7.61230
H          3.44670       10.59200        7.88140
H          4.90510       10.31380        6.91740
H          3.78260       11.32780        4.93180
H          2.32900       11.60390        5.89110
H          3.82240       12.46160        6.28640
H          4.85680        8.69250        5.03070
H          3.96470        6.53730        4.26650
H         -1.16700       -1.29620       -0.55730
H         -1.21570        0.04960        0.59880
H         -2.45930        0.07130       -2.18370
H         -2.45270        1.43750       -1.06240
H         -3.32380       -0.04670       -0.65170
H          1.06640        0.69190        3.15890
H          0.46430       -0.02560        1.66560
H         -1.10870        1.51010        3.81170
H         -1.83540        1.08100        2.27030
H         -1.29440       -0.18750        3.37960
H          0.48550        3.69430        7.89210
H          5.81000        8.52250       10.84670
H          4.19980        8.07060       12.66610
H          2.27670        6.59560       12.30700
