
  xtb     02022200133D
 energy: -230.402800334210 gnorm: 0.000212092689 xtb: 6.4.1 (unknown)
130146  0     0  0            999 V2000
    2.1930    6.5956    2.5855 C   0  0  0  0  0  0  0  0  0  0  0  0
    2.4567    6.3064    3.8896 C   0  0  0  0  0  0  0  0  0  0  0  0
    3.5630    7.0179    4.5828 C   0  0  0  0  0  0  0  0  0  0  0  0
    4.0905    8.0519    4.2403 O   0  0  0  0  0  0  0  0  0  0  0  0
    3.9230    6.1486    5.7217 C   0  0  0  0  0  0  0  0  0  0  0  0
    5.0021    6.3005    6.5899 C   0  0  0  0  0  0  0  0  0  0  0  0
    5.1106    5.3021    7.5281 C   0  0  0  0  0  0  0  0  0  0  0  0
    4.2133    4.2280    7.6043 C   0  0  0  0  0  0  0  0  0  0  0  0
    3.1347    4.0725    6.7659 C   0  0  0  0  0  0  0  0  0  0  0  0
    3.0089    5.0767    5.8028 C   0  0  0  0  0  0  0  0  0  0  0  0
    1.9897    5.2637    4.7737 C   0  0  0  0  0  0  0  0  0  0  0  0
    0.7184    4.7503    4.8024 C   0  0  0  0  0  0  0  0  0  0  0  0
   -0.3166    5.2385    3.9775 C   0  0  0  0  0  0  0  0  0  0  0  0
   -1.1946    5.6484    3.3615 N   0  0  0  0  0  0  0  0  0  0  0  0
    0.2823    3.7563    5.6980 C   0  0  0  0  0  0  0  0  0  0  0  0
   -0.1162    2.9187    6.3753 N   0  0  0  0  0  0  0  0  0  0  0  0
    4.9449    3.5950    8.7618 C   0  0  0  0  0  0  0  0  0  0  0  0
    5.8417    2.3830    8.4307 C   0  0  0  0  0  0  0  0  0  0  0  0
    6.7738    2.2872    9.6170 C   0  0  0  0  0  0  0  0  0  0  0  0
    7.6207    3.3063    9.5480 C   0  0  0  0  0  0  0  0  0  0  0  0
    7.2753    4.1079    8.3139 C   0  0  0  0  0  0  0  0  0  0  0  0
    6.7997    2.9786    7.3907 C   0  0  0  0  0  0  0  0  0  0  0  0
    5.9422    4.7948    8.6800 C   0  0  0  0  0  0  0  0  0  0  0  0
    1.5810    5.8096    1.5882 C   0  0  0  0  0  0  0  0  0  0  0  0
    1.3243    6.2422    0.2899 C   0  0  0  0  0  0  0  0  0  0  0  0
    1.5065    7.6344   -0.1558 C   0  0  0  0  0  0  0  0  0  0  0  0
    0.4030    8.4799   -0.1300 C   0  0  0  0  0  0  0  0  0  0  0  0
    0.5221    9.7944   -0.5389 C   0  0  0  0  0  0  0  0  0  0  0  0
    1.7477   10.2691   -0.9742 C   0  0  0  0  0  0  0  0  0  0  0  0
    2.8442    9.4275   -1.0005 C   0  0  0  0  0  0  0  0  0  0  0  0
    2.7451    8.1033   -0.5933 C   0  0  0  0  0  0  0  0  0  0  0  0
    3.9402    7.1970   -0.6844 C   0  0  0  0  0  0  0  0  0  0  0  0
    4.0375    6.5831   -2.0826 C   0  0  0  0  0  0  0  0  0  0  0  0
    0.8140    5.2161   -0.5086 C   0  0  0  0  0  0  0  0  0  0  0  0
    0.3492    5.1418   -2.1938 S   0  0  0  0  0  0  0  0  0  0  0  0
   -0.0394    3.4691   -1.9822 C   0  0  0  0  0  0  0  0  0  0  0  0
   -0.4757    2.3746   -2.7397 C   0  0  0  0  0  0  0  0  0  0  0  0
   -0.6570    2.2434   -4.1344 C   0  0  0  0  0  0  0  0  0  0  0  0
   -0.9439    0.9481   -4.6732 C   0  0  0  0  0  0  0  0  0  0  0  0
   -1.0216    0.9545   -5.9943 N   0  0  0  0  0  0  0  0  0  0  0  0
   -0.7603    2.4651   -6.5151 S   0  0  0  0  0  0  0  0  0  0  0  0
   -0.5350    3.1675   -5.0740 N   0  0  0  0  0  0  0  0  0  0  0  0
   -1.1610   -0.1261   -3.7819 C   0  0  0  0  0  0  0  0  0  0  0  0
   -1.5847   -1.4368   -4.0272 C   0  0  0  0  0  0  0  0  0  0  0  0
   -1.9441   -2.4638   -5.3723 S   0  0  0  0  0  0  0  0  0  0  0  0
   -2.4344   -3.7083   -4.2395 C   0  0  0  0  0  0  0  0  0  0  0  0
   -2.9140   -4.9971   -4.4171 C   0  0  0  0  0  0  0  0  0  0  0  0
   -3.1064   -5.6279   -5.7309 C   0  0  0  0  0  0  0  0  0  0  0  0
   -2.3013   -6.6860   -6.1614 C   0  0  0  0  0  0  0  0  0  0  0  0
   -1.1383   -7.1765   -5.3463 C   0  0  0  0  0  0  0  0  0  0  0  0
    0.0891   -6.2976   -5.5974 C   0  0  0  0  0  0  0  0  0  0  0  0
   -2.5401   -7.2290   -7.4164 C   0  0  0  0  0  0  0  0  0  0  0  0
   -3.5485   -6.7456   -8.2288 C   0  0  0  0  0  0  0  0  0  0  0  0
   -4.3314   -5.6865   -7.8023 C   0  0  0  0  0  0  0  0  0  0  0  0
   -4.1063   -5.1277   -6.5594 C   0  0  0  0  0  0  0  0  0  0  0  0
   -3.2240   -5.6109   -3.1881 C   0  0  0  0  0  0  0  0  0  0  0  0
   -2.8567   -4.5674   -1.8158 S   0  0  0  0  0  0  0  0  0  0  0  0
   -2.3121   -3.3308   -2.8879 C   0  0  0  0  0  0  0  0  0  0  0  0
   -1.8035   -2.0344   -2.7788 C   0  0  0  0  0  0  0  0  0  0  0  0
   -1.4979   -1.1491   -1.7808 N   0  0  0  0  0  0  0  0  0  0  0  0
   -1.0758    0.0292   -2.3639 C   0  0  0  0  0  0  0  0  0  0  0  0
   -0.6070    1.2688   -1.8457 C   0  0  0  0  0  0  0  0  0  0  0  0
   -0.1959    1.6851   -0.5933 N   0  0  0  0  0  0  0  0  0  0  0  0
    0.1502    3.0043   -0.6756 C   0  0  0  0  0  0  0  0  0  0  0  0
    0.6727    3.9923    0.1618 C   0  0  0  0  0  0  0  0  0  0  0  0
    1.2191    4.0983    1.7920 S   0  0  0  0  0  0  0  0  0  0  0  0
    0.0235    0.9851    0.6510 C   0  0  0  0  0  0  0  0  0  0  0  0
   -1.0414    1.3293    1.6928 C   0  0  0  0  0  0  0  0  0  0  0  0
   -1.8436   -1.4825   -0.4178 C   0  0  0  0  0  0  0  0  0  0  0  0
   -0.8460   -2.4571    0.2077 C   0  0  0  0  0  0  0  0  0  0  0  0
   -3.7911   -6.8848   -3.1264 C   0  0  0  0  0  0  0  0  0  0  0  0
   -4.2232   -7.6208   -2.0471 C   0  0  0  0  0  0  0  0  0  0  0  0
   -4.2431   -7.1735   -0.6554 C   0  0  0  0  0  0  0  0  0  0  0  0
   -3.7781   -6.1475   -0.1900 O   0  0  0  0  0  0  0  0  0  0  0  0
   -4.9602   -8.2247    0.0980 C   0  0  0  0  0  0  0  0  0  0  0  0
   -5.2827   -8.2511    1.4389 C   0  0  0  0  0  0  0  0  0  0  0  0
   -5.9855   -9.3474    1.9251 C   0  0  0  0  0  0  0  0  0  0  0  0
   -6.4249   -9.4424    3.5855 Cl  0  0  0  0  0  0  0  0  0  0  0  0
   -6.3373  -10.3772    1.0504 C   0  0  0  0  0  0  0  0  0  0  0  0
   -7.0190  -11.4273    1.5241 F   0  0  0  0  0  0  0  0  0  0  0  0
   -6.0110  -10.3589   -0.2974 C   0  0  0  0  0  0  0  0  0  0  0  0
   -5.3115   -9.2647   -0.7800 C   0  0  0  0  0  0  0  0  0  0  0  0
   -4.8191   -8.9379   -2.1179 C   0  0  0  0  0  0  0  0  0  0  0  0
   -4.8733   -9.7710   -3.2059 C   0  0  0  0  0  0  0  0  0  0  0  0
   -4.3060   -9.5120   -4.4712 C   0  0  0  0  0  0  0  0  0  0  0  0
   -3.8509   -9.3996   -5.5201 N   0  0  0  0  0  0  0  0  0  0  0  0
   -5.4771  -11.0460   -3.1898 C   0  0  0  0  0  0  0  0  0  0  0  0
   -5.9566  -12.0876   -3.2422 N   0  0  0  0  0  0  0  0  0  0  0  0
    2.6158    7.5298    2.2262 H   0  0  0  0  0  0  0  0  0  0  0  0
    5.6706    7.1425    6.5018 H   0  0  0  0  0  0  0  0  0  0  0  0
    2.4474    3.2444    6.8286 H   0  0  0  0  0  0  0  0  0  0  0  0
    4.3653    3.4593    9.6727 H   0  0  0  0  0  0  0  0  0  0  0  0
    5.3033    1.4794    8.1574 H   0  0  0  0  0  0  0  0  0  0  0  0
    6.6885    1.5448   10.3886 H   0  0  0  0  0  0  0  0  0  0  0  0
    8.3842    3.5852   10.2502 H   0  0  0  0  0  0  0  0  0  0  0  0
    8.0430    4.7763    7.9335 H   0  0  0  0  0  0  0  0  0  0  0  0
    6.3100    3.3245    6.4822 H   0  0  0  0  0  0  0  0  0  0  0  0
    7.6045    2.2924    7.1320 H   0  0  0  0  0  0  0  0  0  0  0  0
    6.0270    5.4607    9.5365 H   0  0  0  0  0  0  0  0  0  0  0  0
   -0.5450    8.0983    0.2196 H   0  0  0  0  0  0  0  0  0  0  0  0
   -0.3383   10.4456   -0.5142 H   0  0  0  0  0  0  0  0  0  0  0  0
    1.8491   11.2961   -1.2919 H   0  0  0  0  0  0  0  0  0  0  0  0
    3.8001    9.8006   -1.3390 H   0  0  0  0  0  0  0  0  0  0  0  0
    4.8468    7.7699   -0.4793 H   0  0  0  0  0  0  0  0  0  0  0  0
    3.8702    6.3979    0.0561 H   0  0  0  0  0  0  0  0  0  0  0  0
    3.1465    6.0013   -2.3070 H   0  0  0  0  0  0  0  0  0  0  0  0
    4.1298    7.3648   -2.8328 H   0  0  0  0  0  0  0  0  0  0  0  0
    4.9054    5.9312   -2.1509 H   0  0  0  0  0  0  0  0  0  0  0  0
   -1.3741   -7.1640   -4.2811 H   0  0  0  0  0  0  0  0  0  0  0  0
   -0.9130   -8.2060   -5.6279 H   0  0  0  0  0  0  0  0  0  0  0  0
    0.3537   -6.3095   -6.6520 H   0  0  0  0  0  0  0  0  0  0  0  0
    0.9381   -6.6585   -5.0213 H   0  0  0  0  0  0  0  0  0  0  0  0
   -0.1136   -5.2684   -5.3089 H   0  0  0  0  0  0  0  0  0  0  0  0
   -1.9268   -8.0506   -7.7542 H   0  0  0  0  0  0  0  0  0  0  0  0
   -3.7213   -7.1919   -9.1964 H   0  0  0  0  0  0  0  0  0  0  0  0
   -5.1158   -5.2968   -8.4333 H   0  0  0  0  0  0  0  0  0  0  0  0
   -4.7137   -4.3041   -6.2128 H   0  0  0  0  0  0  0  0  0  0  0  0
    0.9996    1.3034    1.0341 H   0  0  0  0  0  0  0  0  0  0  0  0
    0.0746   -0.0833    0.4640 H   0  0  0  0  0  0  0  0  0  0  0  0
   -0.8767    0.7455    2.5939 H   0  0  0  0  0  0  0  0  0  0  0  0
   -2.0449    1.1299    1.3231 H   0  0  0  0  0  0  0  0  0  0  0  0
   -0.9892    2.3827    1.9548 H   0  0  0  0  0  0  0  0  0  0  0  0
   -1.9357   -0.5686    0.1625 H   0  0  0  0  0  0  0  0  0  0  0  0
   -2.8270   -1.9646   -0.4387 H   0  0  0  0  0  0  0  0  0  0  0  0
   -0.9257   -3.4307   -0.2673 H   0  0  0  0  0  0  0  0  0  0  0  0
   -1.0655   -2.5753    1.2647 H   0  0  0  0  0  0  0  0  0  0  0  0
    0.1795   -2.1107    0.0956 H   0  0  0  0  0  0  0  0  0  0  0  0
   -3.9260   -7.3323   -4.1048 H   0  0  0  0  0  0  0  0  0  0  0  0
   -4.9981   -7.4402    2.0902 H   0  0  0  0  0  0  0  0  0  0  0  0
   -6.3147  -11.1861   -0.9177 H   0  0  0  0  0  0  0  0  0  0  0  0
  1  2  2  0  0  0  0
  2  3  1  0  0  0  0
  3  4  2  0  0  0  0
  3  5  1  0  0  0  0
  5  6  2  0  0  0  0
  6  7  1  0  0  0  0
  7  8  2  0  0  0  0
  8  9  1  0  0  0  0
  9 10  2  0  0  0  0
 10 11  1  0  0  0  0
 11 12  2  0  0  0  0
 12 13  1  0  0  0  0
 13 14  3  0  0  0  0
 12 15  1  0  0  0  0
 15 16  3  0  0  0  0
  8 17  1  0  0  0  0
 17 18  1  0  0  0  0
 18 19  1  0  0  0  0
 19 20  2  0  0  0  0
 20 21  1  0  0  0  0
 21 22  1  0  0  0  0
 21 23  1  0  0  0  0
  1 24  1  0  0  0  0
 24 25  2  0  0  0  0
 25 26  1  0  0  0  0
 26 27  2  0  0  0  0
 27 28  1  0  0  0  0
 28 29  2  0  0  0  0
 29 30  1  0  0  0  0
 30 31  2  0  0  0  0
 31 32  1  0  0  0  0
 32 33  1  0  0  0  0
 25 34  1  0  0  0  0
 34 35  1  0  0  0  0
 35 36  1  0  0  0  0
 36 37  1  0  0  0  0
 37 38  1  0  0  0  0
 38 39  1  0  0  0  0
 39 40  2  0  0  0  0
 40 41  1  0  0  0  0
 41 42  1  0  0  0  0
 39 43  1  0  0  0  0
 43 44  1  0  0  0  0
 44 45  1  0  0  0  0
 45 46  1  0  0  0  0
 46 47  1  0  0  0  0
 47 48  1  0  0  0  0
 48 49  2  0  0  0  0
 49 50  1  0  0  0  0
 50 51  1  0  0  0  0
 49 52  1  0  0  0  0
 52 53  2  0  0  0  0
 53 54  1  0  0  0  0
 54 55  2  0  0  0  0
 47 56  2  0  0  0  0
 56 57  1  0  0  0  0
 57 58  1  0  0  0  0
 58 59  1  0  0  0  0
 59 60  1  0  0  0  0
 60 61  1  0  0  0  0
 61 62  1  0  0  0  0
 62 63  1  0  0  0  0
 63 64  1  0  0  0  0
 64 65  1  0  0  0  0
 65 66  1  0  0  0  0
 63 67  1  0  0  0  0
 67 68  1  0  0  0  0
 60 69  1  0  0  0  0
 69 70  1  0  0  0  0
 56 71  1  0  0  0  0
 71 72  2  0  0  0  0
 72 73  1  0  0  0  0
 73 74  2  0  0  0  0
 73 75  1  0  0  0  0
 75 76  2  0  0  0  0
 76 77  1  0  0  0  0
 77 78  1  0  0  0  0
 77 79  2  0  0  0  0
 79 80  1  0  0  0  0
 79 81  1  0  0  0  0
 81 82  2  0  0  0  0
 82 83  1  0  0  0  0
 83 84  2  0  0  0  0
 84 85  1  0  0  0  0
 85 86  3  0  0  0  0
 84 87  1  0  0  0  0
 87 88  3  0  0  0  0
 11  2  1  0  0  0  0
 23 17  1  0  0  0  0
 66 24  1  0  0  0  0
 83 72  1  0  0  0  0
 10  5  1  0  0  0  0
 22 18  1  0  0  0  0
 31 26  1  0  0  0  0
 65 34  2  0  0  0  0
 82 75  1  0  0  0  0
 23  7  1  0  0  0  0
 64 36  2  0  0  0  0
 62 37  2  0  0  0  0
 42 38  2  0  0  0  0
 61 43  2  0  0  0  0
 59 44  2  0  0  0  0
 58 46  2  0  0  0  0
 55 48  1  0  0  0  0
  1 89  1  0  0  0  0
  6 90  1  0  0  0  0
  9 91  1  0  0  0  0
 17 92  1  0  0  0  0
 18 93  1  0  0  0  0
 19 94  1  0  0  0  0
 20 95  1  0  0  0  0
 21 96  1  0  0  0  0
 22 97  1  0  0  0  0
 22 98  1  0  0  0  0
 23 99  1  0  0  0  0
 27100  1  0  0  0  0
 28101  1  0  0  0  0
 29102  1  0  0  0  0
 30103  1  0  0  0  0
 32104  1  0  0  0  0
 32105  1  0  0  0  0
 33106  1  0  0  0  0
 33107  1  0  0  0  0
 33108  1  0  0  0  0
 50109  1  0  0  0  0
 50110  1  0  0  0  0
 51111  1  0  0  0  0
 51112  1  0  0  0  0
 51113  1  0  0  0  0
 52114  1  0  0  0  0
 53115  1  0  0  0  0
 54116  1  0  0  0  0
 55117  1  0  0  0  0
 67118  1  0  0  0  0
 67119  1  0  0  0  0
 68120  1  0  0  0  0
 68121  1  0  0  0  0
 68122  1  0  0  0  0
 69123  1  0  0  0  0
 69124  1  0  0  0  0
 70125  1  0  0  0  0
 70126  1  0  0  0  0
 70127  1  0  0  0  0
 71128  1  0  0  0  0
 76129  1  0  0  0  0
 81130  1  0  0  0  0
M  END
