110

C         -1.57760       -4.53560       -5.14720
C         -1.79970       -3.50500       -6.02570
C         -1.63210       -2.07660       -5.74800
O         -1.25950       -1.56050       -4.70620
C         -2.00670       -1.36600       -6.98120
C         -2.01360        0.01130       -7.18650
C         -2.42420        0.38720       -8.44280
C         -2.79450       -0.54050       -9.42520
C         -2.78710       -1.90240       -9.23660
C         -2.37920       -2.30670       -7.96270
C         -2.25580       -3.64860       -7.39410
C         -2.53170       -4.81700       -8.05890
C         -2.97780       -4.89140       -9.39510
N         -3.34880       -5.03630      -10.47220
C         -2.41580       -6.11810       -7.52800
N         -2.34720       -7.21100       -7.17780
C         -3.10800        0.53400      -10.43560
C         -4.59810        0.87310      -10.68650
C         -5.33760        0.51980       -9.41990
C         -4.98890        1.39800       -8.48920
C         -4.00720        2.36110       -9.10970
C         -4.54270        2.40310      -10.54980
C         -2.69680        1.56800       -9.34040
C         -1.15760       -4.52970       -3.81230
C         -0.98940       -5.70250       -3.05790
C         -1.15880       -7.09910       -3.56020
C          0.10660       -7.57450       -4.27790
C         -0.57650       -5.42500       -1.76130
Se        -0.19410       -6.54080       -0.27180
C          0.15230       -4.93980        0.60930
C          0.51350       -4.49840        1.88420
C          0.70730       -5.24890        3.06280
C          0.98070       -4.55270        4.27790
N          1.10650       -5.36360        5.31610
S          0.89630       -6.88640        4.79670
N          0.63750       -6.56000        3.22900
C          1.11930       -3.14960        4.23510
C          1.47450       -2.26990        5.25890
Se         1.87440       -2.32640        7.07390
C          2.18560       -0.46190        6.87480
C          2.59190        0.51870        7.76570
C          2.82090        0.23900        9.21480
C          1.57470        0.57490       10.03740
C          2.69710        1.77800        7.14380
S          2.27790        1.69950        5.43220
C          1.97280        0.00850        5.56450
C          1.57320       -0.99820        4.67970
N          1.28400       -1.07670        3.34330
C          0.97810       -2.38770        3.03500
C          0.59590       -3.07330        1.84450
N          0.24750       -2.67820        0.56690
C         -0.00940       -3.79530       -0.18050
C         -0.42100       -4.05400       -1.49420
S         -0.79250       -3.08550       -2.87210
C          0.04310       -1.37980       -0.03150
C          1.23750       -0.95300       -0.88510
C          1.42450        0.11020        2.53230
C          0.20060        1.01980        2.63860
C          3.09890        2.92940        7.81990
C          3.26140        4.22540        7.38170
C          3.02940        4.71350        6.02290
O          2.64360        4.08090        5.05340
C          3.36180        6.15060        6.04160
C          3.31780        7.06460        5.00710
C          3.69070        8.37430        5.26580
C          4.09490        8.73000        6.54510
Br         4.60500       10.53090        6.87560
C          4.14270        7.82210        7.59720
C          3.76930        6.51490        7.33640
C          3.70770        5.33190        8.19960
C          4.02080        5.31790        9.53550
C          4.45300        6.44910       10.25920
N          4.81010        7.32770       10.90590
C          3.95680        4.19570       10.38690
N          3.92990        3.33420       11.14710
H         -1.75540       -5.53070       -5.53080
H         -1.71760        0.69010       -6.40180
H         -3.07450       -2.59990      -10.00510
H         -2.52790        0.50750      -11.35580
H         -5.00430        0.46630      -11.60850
H         -5.97430       -0.33950       -9.31830
H         -5.27610        1.41890       -7.45410
H         -3.87610        3.31030       -8.59650
H         -5.52490        2.86790      -10.62040
H         -3.85970        2.87720      -11.25330
H         -1.84880        2.21860       -9.54600
H         -1.34290       -7.74640       -2.69670
H         -2.01200       -7.17880       -4.23530
H          0.95930       -7.53370       -3.60310
H          0.31640       -6.94960       -5.14280
H         -0.02370       -8.59800       -4.61710
H          3.03950       -0.82850        9.31980
H          3.67300        0.80190        9.59840
H          1.75150        0.34560       11.08420
H          0.72530       -0.00870        9.68830
H          1.33040        1.63120        9.95350
H         -0.83460       -1.45720       -0.68130
H         -0.18470       -0.65300        0.74290
H          1.31160       -1.58760       -1.76360
H          1.10430        0.07250       -1.21720
H          2.17260       -1.03000       -0.33300
H          2.29500        0.65790        2.90770
H          1.63270       -0.17260        1.50460
H          0.12790        1.43000        3.64200
H         -0.72010        0.47910        2.42710
H          0.29580        1.84590        1.93990
H          3.32060        2.75580        8.86380
H          3.00070        6.75680        4.02290
H          3.67090        9.11720        4.48380
H          4.46330        8.14680        8.57330
