
  xtb     02102221183D
 energy: -186.662741182691 gnorm: 0.000780858530 xtb: 6.4.1 (unknown)
101114  0     0  0            999 V2000
   -2.8054   -3.3642    4.3411 C   0  0  0  0  0  0  0  0  0  0  0  0
   -3.9455   -3.9102    3.8121 C   0  0  0  0  0  0  0  0  0  0  0  0
   -4.4340   -3.8656    2.4159 C   0  0  0  0  0  0  0  0  0  0  0  0
   -4.0605   -3.1642    1.4937 O   0  0  0  0  0  0  0  0  0  0  0  0
   -5.4890   -4.8906    2.3248 C   0  0  0  0  0  0  0  0  0  0  0  0
   -6.1878   -5.2616    1.1781 C   0  0  0  0  0  0  0  0  0  0  0  0
   -7.1215   -6.2472    1.3867 C   0  0  0  0  0  0  0  0  0  0  0  0
   -7.3399   -6.8284    2.6433 C   0  0  0  0  0  0  0  0  0  0  0  0
   -6.6548   -6.4744    3.7811 C   0  0  0  0  0  0  0  0  0  0  0  0
   -5.7055   -5.4659    3.5917 C   0  0  0  0  0  0  0  0  0  0  0  0
   -4.8085   -4.8221    4.5462 C   0  0  0  0  0  0  0  0  0  0  0  0
   -4.8496   -4.9864    5.9063 C   0  0  0  0  0  0  0  0  0  0  0  0
   -5.7279   -5.8642    6.5758 C   0  0  0  0  0  0  0  0  0  0  0  0
   -6.4079   -6.5589    7.1869 N   0  0  0  0  0  0  0  0  0  0  0  0
   -4.0728   -4.2717    6.8438 C   0  0  0  0  0  0  0  0  0  0  0  0
   -3.5068   -3.7181    7.6759 N   0  0  0  0  0  0  0  0  0  0  0  0
   -8.4242   -7.7377    2.1224 C   0  0  0  0  0  0  0  0  0  0  0  0
   -9.8929   -7.3528    2.4287 C   0  0  0  0  0  0  0  0  0  0  0  0
   -9.9162   -5.8545    2.6044 C   0  0  0  0  0  0  0  0  0  0  0  0
   -9.7108   -5.3042    1.4153 C   0  0  0  0  0  0  0  0  0  0  0  0
   -9.5442   -6.4206    0.4140 C   0  0  0  0  0  0  0  0  0  0  0  0
  -10.4917   -7.4694    1.0179 C   0  0  0  0  0  0  0  0  0  0  0  0
   -8.1816   -7.0896    0.7228 C   0  0  0  0  0  0  0  0  0  0  0  0
   -1.8879   -2.4404    3.8051 C   0  0  0  0  0  0  0  0  0  0  0  0
   -0.2340   -2.1765    4.7532 Se  0  0  0  0  0  2  0  0  0  0  0  0
    0.1737   -0.9770    3.4159 C   0  0  0  0  0  0  0  0  0  0  0  0
    1.1859   -0.0939    3.0255 C   0  0  0  0  0  0  0  0  0  0  0  0
    2.3915    0.2334    3.6789 C   0  0  0  0  0  0  0  0  0  0  0  0
    3.2282    1.2497    3.1213 C   0  0  0  0  0  0  0  0  0  0  0  0
    4.3014    1.4827    3.8612 N   0  0  0  0  0  0  0  0  0  0  0  0
    4.2588    0.5015    5.1482 S   0  0  0  0  0  0  0  0  0  0  0  0
    2.8682   -0.2590    4.8111 N   0  0  0  0  0  0  0  0  0  0  0  0
    2.8559    1.8246    1.8855 C   0  0  0  0  0  0  0  0  0  0  0  0
    3.5365    2.7390    1.0731 C   0  0  0  0  0  0  0  0  0  0  0  0
    4.9972    3.6598    1.0767 S   0  0  0  0  0  0  0  0  0  0  0  0
    4.6174    4.2407   -0.5319 C   0  0  0  0  0  0  0  0  0  0  0  0
    5.3045    5.0624   -1.4350 C   0  0  0  0  0  0  0  0  0  0  0  0
    6.5438    5.8251   -1.1121 C   0  0  0  0  0  0  0  0  0  0  0  0
    6.4797    6.5145    0.2489 C   0  0  0  0  0  0  0  0  0  0  0  0
    4.6076    5.1710   -2.6377 C   0  0  0  0  0  0  0  0  0  0  0  0
    3.0603    4.3222   -2.5976 S   0  0  0  0  0  0  0  0  0  0  0  0
    3.3992    3.7360   -1.0157 C   0  0  0  0  0  0  0  0  0  0  0  0
    2.7817    2.8855   -0.0958 C   0  0  0  0  0  0  0  0  0  0  0  0
    1.6601    2.1060   -0.0270 N   0  0  0  0  0  0  0  0  0  0  0  0
    1.6628    1.4512    1.1918 C   0  0  0  0  0  0  0  0  0  0  0  0
    0.7677    0.5381    1.8170 C   0  0  0  0  0  0  0  0  0  0  0  0
   -0.4972    0.0702    1.5185 N   0  0  0  0  0  0  0  0  0  0  0  0
   -0.8562   -0.8524    2.4676 C   0  0  0  0  0  0  0  0  0  0  0  0
   -1.9864   -1.6358    2.6818 C   0  0  0  0  0  0  0  0  0  0  0  0
   -1.4903    0.4965    0.5593 C   0  0  0  0  0  0  0  0  0  0  0  0
   -1.6838   -0.5264   -0.5609 C   0  0  0  0  0  0  0  0  0  0  0  0
    0.8309    1.9716   -1.2021 C   0  0  0  0  0  0  0  0  0  0  0  0
   -0.1003    3.1708   -1.3825 C   0  0  0  0  0  0  0  0  0  0  0  0
    4.8974    5.8707   -3.8233 C   0  0  0  0  0  0  0  0  0  0  0  0
    6.1332    6.0718   -4.3834 C   0  0  0  0  0  0  0  0  0  0  0  0
    7.3194    5.2331   -4.1166 C   0  0  0  0  0  0  0  0  0  0  0  0
    7.4432    4.3496   -3.2954 O   0  0  0  0  0  0  0  0  0  0  0  0
    8.3028    5.6068   -5.1603 C   0  0  0  0  0  0  0  0  0  0  0  0
    9.5658    5.0906   -5.3641 C   0  0  0  0  0  0  0  0  0  0  0  0
   10.3149    5.5817   -6.4272 C   0  0  0  0  0  0  0  0  0  0  0  0
   11.8988    4.9862   -6.7335 Cl  0  0  0  0  0  0  0  0  0  0  0  0
    9.7691    6.5680   -7.2520 C   0  0  0  0  0  0  0  0  0  0  0  0
   10.4932    7.0304   -8.2782 F   0  0  0  0  0  0  0  0  0  0  0  0
    8.4998    7.0891   -7.0549 C   0  0  0  0  0  0  0  0  0  0  0  0
    7.7575    6.5999   -5.9917 C   0  0  0  0  0  0  0  0  0  0  0  0
    6.4173    6.9279   -5.5149 C   0  0  0  0  0  0  0  0  0  0  0  0
    5.6119    7.9254   -5.9999 C   0  0  0  0  0  0  0  0  0  0  0  0
    4.3690    8.2901   -5.4404 C   0  0  0  0  0  0  0  0  0  0  0  0
    3.3645    8.6551   -5.0205 N   0  0  0  0  0  0  0  0  0  0  0  0
    5.9429    8.7409   -7.1019 C   0  0  0  0  0  0  0  0  0  0  0  0
    6.1566    9.4226   -8.0001 N   0  0  0  0  0  0  0  0  0  0  0  0
   -2.5274   -3.7174    5.3293 H   0  0  0  0  0  0  0  0  0  0  0  0
   -5.9848   -4.7905    0.2288 H   0  0  0  0  0  0  0  0  0  0  0  0
   -6.8286   -6.9372    4.7381 H   0  0  0  0  0  0  0  0  0  0  0  0
   -8.2443   -8.8057    2.2287 H   0  0  0  0  0  0  0  0  0  0  0  0
  -10.3563   -7.9358    3.2200 H   0  0  0  0  0  0  0  0  0  0  0  0
  -10.0189   -5.3651    3.5551 H   0  0  0  0  0  0  0  0  0  0  0  0
   -9.6077   -4.2624    1.1736 H   0  0  0  0  0  0  0  0  0  0  0  0
   -9.6905   -6.1555   -0.6300 H   0  0  0  0  0  0  0  0  0  0  0  0
  -10.3792   -8.4599    0.5790 H   0  0  0  0  0  0  0  0  0  0  0  0
  -11.5366   -7.1654    0.9775 H   0  0  0  0  0  0  0  0  0  0  0  0
   -7.8429   -7.7344   -0.0860 H   0  0  0  0  0  0  0  0  0  0  0  0
    6.7113    6.5732   -1.8896 H   0  0  0  0  0  0  0  0  0  0  0  0
    7.3907    5.1329   -1.1368 H   0  0  0  0  0  0  0  0  0  0  0  0
    7.3612    7.1368    0.3808 H   0  0  0  0  0  0  0  0  0  0  0  0
    5.5977    7.1480    0.3143 H   0  0  0  0  0  0  0  0  0  0  0  0
    6.4500    5.7910    1.0583 H   0  0  0  0  0  0  0  0  0  0  0  0
   -2.8584   -1.6495    2.0550 H   0  0  0  0  0  0  0  0  0  0  0  0
   -1.2232    1.4750    0.1711 H   0  0  0  0  0  0  0  0  0  0  0  0
   -2.4366    0.6066    1.1000 H   0  0  0  0  0  0  0  0  0  0  0  0
   -2.3461   -0.1186   -1.3197 H   0  0  0  0  0  0  0  0  0  0  0  0
   -2.1285   -1.4373   -0.1697 H   0  0  0  0  0  0  0  0  0  0  0  0
   -0.7367   -0.7921   -1.0265 H   0  0  0  0  0  0  0  0  0  0  0  0
    0.2826    1.0352   -1.1539 H   0  0  0  0  0  0  0  0  0  0  0  0
    1.5000    1.9186   -2.0680 H   0  0  0  0  0  0  0  0  0  0  0  0
   -0.7794    2.9879   -2.2104 H   0  0  0  0  0  0  0  0  0  0  0  0
   -0.6826    3.3646   -0.4840 H   0  0  0  0  0  0  0  0  0  0  0  0
    0.4775    4.0639   -1.6044 H   0  0  0  0  0  0  0  0  0  0  0  0
    4.0304    6.2194   -4.3736 H   0  0  0  0  0  0  0  0  0  0  0  0
    9.9595    4.3269   -4.7126 H   0  0  0  0  0  0  0  0  0  0  0  0
    8.1340    7.8448   -7.7310 H   0  0  0  0  0  0  0  0  0  0  0  0
  1  2  2  0  0  0  0
  2  3  1  0  0  0  0
  3  4  2  0  0  0  0
  3  5  1  0  0  0  0
  5  6  2  0  0  0  0
  6  7  1  0  0  0  0
  7  8  2  0  0  0  0
  8  9  1  0  0  0  0
  9 10  2  0  0  0  0
 10 11  1  0  0  0  0
 11 12  2  0  0  0  0
 12 13  1  0  0  0  0
 13 14  3  0  0  0  0
 12 15  1  0  0  0  0
 15 16  3  0  0  0  0
  8 17  1  0  0  0  0
 17 18  1  0  0  0  0
 18 19  1  0  0  0  0
 19 20  2  0  0  0  0
 20 21  1  0  0  0  0
 21 22  1  0  0  0  0
 21 23  1  0  0  0  0
  1 24  1  0  0  0  0
 24 25  1  0  0  0  0
 25 26  1  0  0  0  0
 26 27  1  0  0  0  0
 27 28  1  0  0  0  0
 28 29  1  0  0  0  0
 29 30  2  0  0  0  0
 30 31  1  0  0  0  0
 31 32  1  0  0  0  0
 29 33  1  0  0  0  0
 33 34  1  0  0  0  0
 34 35  1  0  0  0  0
 35 36  1  0  0  0  0
 36 37  1  0  0  0  0
 37 38  1  0  0  0  0
 38 39  1  0  0  0  0
 37 40  2  0  0  0  0
 40 41  1  0  0  0  0
 41 42  1  0  0  0  0
 42 43  1  0  0  0  0
 43 44  1  0  0  0  0
 44 45  1  0  0  0  0
 45 46  1  0  0  0  0
 46 47  1  0  0  0  0
 47 48  1  0  0  0  0
 48 49  1  0  0  0  0
 47 50  1  0  0  0  0
 50 51  1  0  0  0  0
 44 52  1  0  0  0  0
 52 53  1  0  0  0  0
 40 54  1  0  0  0  0
 54 55  2  0  0  0  0
 55 56  1  0  0  0  0
 56 57  2  0  0  0  0
 56 58  1  0  0  0  0
 58 59  2  0  0  0  0
 59 60  1  0  0  0  0
 60 61  1  0  0  0  0
 60 62  2  0  0  0  0
 62 63  1  0  0  0  0
 62 64  1  0  0  0  0
 64 65  2  0  0  0  0
 65 66  1  0  0  0  0
 66 67  2  0  0  0  0
 67 68  1  0  0  0  0
 68 69  3  0  0  0  0
 67 70  1  0  0  0  0
 70 71  3  0  0  0  0
 11  2  1  0  0  0  0
 23 17  1  0  0  0  0
 49 24  2  0  0  0  0
 66 55  1  0  0  0  0
 10  5  1  0  0  0  0
 22 18  1  0  0  0  0
 48 26  2  0  0  0  0
 65 58  1  0  0  0  0
 23  7  1  0  0  0  0
 46 27  2  0  0  0  0
 32 28  2  0  0  0  0
 45 33  2  0  0  0  0
 43 34  2  0  0  0  0
 42 36  2  0  0  0  0
  1 72  1  0  0  0  0
  6 73  1  0  0  0  0
  9 74  1  0  0  0  0
 17 75  1  0  0  0  0
 18 76  1  0  0  0  0
 19 77  1  0  0  0  0
 20 78  1  0  0  0  0
 21 79  1  0  0  0  0
 22 80  1  0  0  0  0
 22 81  1  0  0  0  0
 23 82  1  0  0  0  0
 38 83  1  0  0  0  0
 38 84  1  0  0  0  0
 39 85  1  0  0  0  0
 39 86  1  0  0  0  0
 39 87  1  0  0  0  0
 49 88  1  0  0  0  0
 50 89  1  0  0  0  0
 50 90  1  0  0  0  0
 51 91  1  0  0  0  0
 51 92  1  0  0  0  0
 51 93  1  0  0  0  0
 52 94  1  0  0  0  0
 52 95  1  0  0  0  0
 53 96  1  0  0  0  0
 53 97  1  0  0  0  0
 53 98  1  0  0  0  0
 54 99  1  0  0  0  0
 59100  1  0  0  0  0
 64101  1  0  0  0  0
M  END
