
  xtb     02112203043D
 energy: -176.987588975565 gnorm: 0.000674693264 xtb: 6.4.1 (unknown)
102114  0     0  0            999 V2000
    3.8193    2.9032    1.3029 C   0  0  0  0  0  0  0  0  0  0  0  0
    4.0998    4.1810    0.8883 C   0  0  0  0  0  0  0  0  0  0  0  0
    3.2404    5.1437    0.1695 C   0  0  0  0  0  0  0  0  0  0  0  0
    2.1349    4.9759   -0.3093 O   0  0  0  0  0  0  0  0  0  0  0  0
    3.9867    6.4172    0.1493 C   0  0  0  0  0  0  0  0  0  0  0  0
    3.5474    7.6288   -0.3801 C   0  0  0  0  0  0  0  0  0  0  0  0
    4.4438    8.6602   -0.2364 C   0  0  0  0  0  0  0  0  0  0  0  0
    5.6837    8.5000    0.3960 C   0  0  0  0  0  0  0  0  0  0  0  0
    6.1298    7.3103    0.9199 C   0  0  0  0  0  0  0  0  0  0  0  0
    5.2354    6.2448    0.7751 C   0  0  0  0  0  0  0  0  0  0  0  0
    5.3503    4.8515    1.1983 C   0  0  0  0  0  0  0  0  0  0  0  0
    6.4803    4.2914    1.7433 C   0  0  0  0  0  0  0  0  0  0  0  0
    6.6487    2.9419    2.1145 C   0  0  0  0  0  0  0  0  0  0  0  0
    6.8795    1.8630    2.4400 N   0  0  0  0  0  0  0  0  0  0  0  0
    7.6794    4.9913    1.9917 C   0  0  0  0  0  0  0  0  0  0  0  0
    8.6904    5.4844    2.2249 N   0  0  0  0  0  0  0  0  0  0  0  0
    6.0628    9.9466    0.1972 C   0  0  0  0  0  0  0  0  0  0  0  0
    7.0705   10.2472   -0.9319 C   0  0  0  0  0  0  0  0  0  0  0  0
    6.8794   11.7218   -1.2037 C   0  0  0  0  0  0  0  0  0  0  0  0
    5.7073   11.8723   -1.8073 C   0  0  0  0  0  0  0  0  0  0  0  0
    5.0864   10.5017   -1.9536 C   0  0  0  0  0  0  0  0  0  0  0  0
    6.3524    9.6584   -2.1531 C   0  0  0  0  0  0  0  0  0  0  0  0
    4.6822   10.1242   -0.5125 C   0  0  0  0  0  0  0  0  0  0  0  0
    2.7140    2.0624    1.1003 C   0  0  0  0  0  0  0  0  0  0  0  0
    1.5696    2.2204    0.2915 C   0  0  0  0  0  0  0  0  0  0  0  0
    0.8289    1.0651    0.4527 C   0  0  0  0  0  0  0  0  0  0  0  0
    1.5145    0.2250    1.3565 C   0  0  0  0  0  0  0  0  0  0  0  0
    2.6605    0.8202    1.7343 N   0  0  0  0  0  0  0  0  0  0  0  0
    3.5862    0.2796    2.7019 C   0  0  0  0  0  0  0  0  0  0  0  0
    3.3842    0.9041    4.0810 C   0  0  0  0  0  0  0  0  0  0  0  0
    0.7145   -0.9173    1.5457 C   0  0  0  0  0  0  0  0  0  0  0  0
    0.8210   -2.0113    2.4323 C   0  0  0  0  0  0  0  0  0  0  0  0
   -0.2567   -2.9564    2.5102 C   0  0  0  0  0  0  0  0  0  0  0  0
   -0.0528   -3.8871    3.4286 N   0  0  0  0  0  0  0  0  0  0  0  0
    1.3759   -3.6120    4.1345 S   0  0  0  0  0  0  0  0  0  0  0  0
    1.7905   -2.2888    3.2931 N   0  0  0  0  0  0  0  0  0  0  0  0
   -1.3262   -2.8446    1.5964 C   0  0  0  0  0  0  0  0  0  0  0  0
   -2.4077   -3.6946    1.3287 C   0  0  0  0  0  0  0  0  0  0  0  0
   -3.0953   -5.1576    1.9397 S   0  0  0  0  0  0  0  0  0  0  0  0
   -4.2619   -5.1181    0.6391 C   0  0  0  0  0  0  0  0  0  0  0  0
   -5.3041   -5.9901    0.2964 C   0  0  0  0  0  0  0  0  0  0  0  0
   -5.6270   -7.1963    1.1146 C   0  0  0  0  0  0  0  0  0  0  0  0
   -6.7054   -6.8785    2.1527 C   0  0  0  0  0  0  0  0  0  0  0  0
   -5.9689   -5.5524   -0.8390 C   0  0  0  0  0  0  0  0  0  0  0  0
   -5.2815   -4.0546   -1.4763 S   0  0  0  0  0  0  0  0  0  0  0  0
   -4.1105   -4.0154   -0.2099 C   0  0  0  0  0  0  0  0  0  0  0  0
   -3.0544   -3.1921    0.1925 C   0  0  0  0  0  0  0  0  0  0  0  0
   -2.4288   -2.0490   -0.2305 N   0  0  0  0  0  0  0  0  0  0  0  0
   -1.3753   -1.7994    0.6300 C   0  0  0  0  0  0  0  0  0  0  0  0
   -0.4228   -0.7526    0.6983 C   0  0  0  0  0  0  0  0  0  0  0  0
   -0.3427    0.4692    0.0420 N   0  0  0  0  0  0  0  0  0  0  0  0
   -1.4268    1.3246   -0.3956 C   0  0  0  0  0  0  0  0  0  0  0  0
   -2.3869    1.6321    0.7518 C   0  0  0  0  0  0  0  0  0  0  0  0
   -2.6622   -1.5448   -1.5651 C   0  0  0  0  0  0  0  0  0  0  0  0
   -3.9628   -0.7507   -1.6679 C   0  0  0  0  0  0  0  0  0  0  0  0
   -7.0651   -6.1075   -1.5428 C   0  0  0  0  0  0  0  0  0  0  0  0
   -7.6134   -5.6073   -2.7187 C   0  0  0  0  0  0  0  0  0  0  0  0
   -8.6816   -6.3434   -3.2012 C   0  0  0  0  0  0  0  0  0  0  0  0
   -8.9950   -7.4359   -2.4063 C   0  0  0  0  0  0  0  0  0  0  0  0
  -10.0048   -8.4215   -2.5591 C   0  0  0  0  0  0  0  0  0  0  0  0
  -10.9365   -8.5079   -3.5748 C   0  0  0  0  0  0  0  0  0  0  0  0
  -11.0426   -7.6136   -4.6533 C   0  0  0  0  0  0  0  0  0  0  0  0
  -11.1625   -6.9048   -5.5491 N   0  0  0  0  0  0  0  0  0  0  0  0
  -11.8843   -9.5529   -3.5875 C   0  0  0  0  0  0  0  0  0  0  0  0
  -12.6613  -10.3957   -3.6168 N   0  0  0  0  0  0  0  0  0  0  0  0
  -10.0620   -9.4241   -1.5548 C   0  0  0  0  0  0  0  0  0  0  0  0
  -10.0878  -10.2242   -0.7358 N   0  0  0  0  0  0  0  0  0  0  0  0
   -7.9177   -7.5261   -1.0295 S   0  0  0  0  0  0  0  0  0  0  0  0
    4.5878    2.4550    1.9159 H   0  0  0  0  0  0  0  0  0  0  0  0
    2.5790    7.7088   -0.8488 H   0  0  0  0  0  0  0  0  0  0  0  0
    7.0830    7.2085    1.4103 H   0  0  0  0  0  0  0  0  0  0  0  0
    6.2582   10.5143    1.1050 H   0  0  0  0  0  0  0  0  0  0  0  0
    8.0855    9.9122   -0.7370 H   0  0  0  0  0  0  0  0  0  0  0  0
    7.5678   12.4841   -0.8890 H   0  0  0  0  0  0  0  0  0  0  0  0
    5.2211   12.7853   -2.0973 H   0  0  0  0  0  0  0  0  0  0  0  0
    4.2946   10.3996   -2.6910 H   0  0  0  0  0  0  0  0  0  0  0  0
    6.1845    8.5847   -2.0937 H   0  0  0  0  0  0  0  0  0  0  0  0
    6.8627    9.8963   -3.0849 H   0  0  0  0  0  0  0  0  0  0  0  0
    3.9587   10.8130   -0.0798 H   0  0  0  0  0  0  0  0  0  0  0  0
    1.3658    3.0825   -0.3084 H   0  0  0  0  0  0  0  0  0  0  0  0
    3.3882   -0.7926    2.7671 H   0  0  0  0  0  0  0  0  0  0  0  0
    4.6149    0.4288    2.3629 H   0  0  0  0  0  0  0  0  0  0  0  0
    4.1060    0.4866    4.7762 H   0  0  0  0  0  0  0  0  0  0  0  0
    3.5165    1.9832    4.0482 H   0  0  0  0  0  0  0  0  0  0  0  0
    2.3829    0.6862    4.4449 H   0  0  0  0  0  0  0  0  0  0  0  0
   -5.9601   -8.0155    0.4751 H   0  0  0  0  0  0  0  0  0  0  0  0
   -4.7171   -7.5112    1.6301 H   0  0  0  0  0  0  0  0  0  0  0  0
   -6.9257   -7.7646    2.7408 H   0  0  0  0  0  0  0  0  0  0  0  0
   -6.3622   -6.0922    2.8209 H   0  0  0  0  0  0  0  0  0  0  0  0
   -7.6222   -6.5487    1.6699 H   0  0  0  0  0  0  0  0  0  0  0  0
   -0.9609    2.2498   -0.7409 H   0  0  0  0  0  0  0  0  0  0  0  0
   -1.9646    0.8912   -1.2360 H   0  0  0  0  0  0  0  0  0  0  0  0
   -1.8525    2.1155    1.5664 H   0  0  0  0  0  0  0  0  0  0  0  0
   -3.1738    2.2995    0.4105 H   0  0  0  0  0  0  0  0  0  0  0  0
   -2.8384    0.7184    1.1333 H   0  0  0  0  0  0  0  0  0  0  0  0
   -1.7964   -0.9565   -1.8700 H   0  0  0  0  0  0  0  0  0  0  0  0
   -2.7273   -2.4075   -2.2388 H   0  0  0  0  0  0  0  0  0  0  0  0
   -4.0566   -0.3300   -2.6653 H   0  0  0  0  0  0  0  0  0  0  0  0
   -4.8132   -1.4041   -1.4922 H   0  0  0  0  0  0  0  0  0  0  0  0
   -3.9976    0.0541   -0.9397 H   0  0  0  0  0  0  0  0  0  0  0  0
   -7.2290   -4.7267   -3.2023 H   0  0  0  0  0  0  0  0  0  0  0  0
   -9.2145   -6.0955   -4.1005 H   0  0  0  0  0  0  0  0  0  0  0  0
  1  2  2  0  0  0  0
  2  3  1  0  0  0  0
  3  4  2  0  0  0  0
  3  5  1  0  0  0  0
  5  6  2  0  0  0  0
  6  7  1  0  0  0  0
  7  8  2  0  0  0  0
  8  9  1  0  0  0  0
  9 10  2  0  0  0  0
 10 11  1  0  0  0  0
 11 12  2  0  0  0  0
 12 13  1  0  0  0  0
 13 14  3  0  0  0  0
 12 15  1  0  0  0  0
 15 16  3  0  0  0  0
  8 17  1  0  0  0  0
 17 18  1  0  0  0  0
 18 19  1  0  0  0  0
 19 20  2  0  0  0  0
 20 21  1  0  0  0  0
 21 22  1  0  0  0  0
 21 23  1  0  0  0  0
  1 24  1  0  0  0  0
 24 25  2  0  0  0  0
 25 26  1  0  0  0  0
 26 27  2  0  0  0  0
 27 28  1  0  0  0  0
 28 29  1  0  0  0  0
 29 30  1  0  0  0  0
 27 31  1  0  0  0  0
 31 32  1  0  0  0  0
 32 33  1  0  0  0  0
 33 34  2  0  0  0  0
 34 35  1  0  0  0  0
 35 36  1  0  0  0  0
 33 37  1  0  0  0  0
 37 38  1  0  0  0  0
 38 39  1  0  0  0  0
 39 40  1  0  0  0  0
 40 41  1  0  0  0  0
 41 42  1  0  0  0  0
 42 43  1  0  0  0  0
 41 44  2  0  0  0  0
 44 45  1  0  0  0  0
 45 46  1  0  0  0  0
 46 47  1  0  0  0  0
 47 48  1  0  0  0  0
 48 49  1  0  0  0  0
 49 50  1  0  0  0  0
 50 51  1  0  0  0  0
 51 52  1  0  0  0  0
 52 53  1  0  0  0  0
 48 54  1  0  0  0  0
 54 55  1  0  0  0  0
 44 56  1  0  0  0  0
 56 57  2  0  0  0  0
 57 58  1  0  0  0  0
 58 59  2  0  0  0  0
 59 60  1  0  0  0  0
 60 61  2  0  0  0  0
 61 62  1  0  0  0  0
 62 63  3  0  0  0  0
 61 64  1  0  0  0  0
 64 65  3  0  0  0  0
 60 66  1  0  0  0  0
 66 67  3  0  0  0  0
 59 68  1  0  0  0  0
 11  2  1  0  0  0  0
 23 17  1  0  0  0  0
 28 24  1  0  0  0  0
 50 31  2  0  0  0  0
 68 56  1  0  0  0  0
 10  5  1  0  0  0  0
 22 18  1  0  0  0  0
 51 26  1  0  0  0  0
 23  7  1  0  0  0  0
 36 32  2  0  0  0  0
 49 37  2  0  0  0  0
 47 38  2  0  0  0  0
 46 40  2  0  0  0  0
  1 69  1  0  0  0  0
  6 70  1  0  0  0  0
  9 71  1  0  0  0  0
 17 72  1  0  0  0  0
 18 73  1  0  0  0  0
 19 74  1  0  0  0  0
 20 75  1  0  0  0  0
 21 76  1  0  0  0  0
 22 77  1  0  0  0  0
 22 78  1  0  0  0  0
 23 79  1  0  0  0  0
 25 80  1  0  0  0  0
 29 81  1  0  0  0  0
 29 82  1  0  0  0  0
 30 83  1  0  0  0  0
 30 84  1  0  0  0  0
 30 85  1  0  0  0  0
 42 86  1  0  0  0  0
 42 87  1  0  0  0  0
 43 88  1  0  0  0  0
 43 89  1  0  0  0  0
 43 90  1  0  0  0  0
 52 91  1  0  0  0  0
 52 92  1  0  0  0  0
 53 93  1  0  0  0  0
 53 94  1  0  0  0  0
 53 95  1  0  0  0  0
 54 96  1  0  0  0  0
 54 97  1  0  0  0  0
 55 98  1  0  0  0  0
 55 99  1  0  0  0  0
 55100  1  0  0  0  0
 57101  1  0  0  0  0
 58102  1  0  0  0  0
M  END
