111

C          3.89510       -3.21730       -3.20640
C          5.22950       -2.90730       -3.10460
C          5.89260       -1.87640       -2.28220
O          5.39610       -1.00630       -1.59130
C          7.34310       -2.09840       -2.44300
C          8.36500       -1.38490       -1.82070
C          9.62760       -1.81740       -2.14710
C          9.85650       -2.88100       -3.02950
C          8.85730       -3.58810       -3.65470
C          7.56330       -3.16410       -3.33490
C          6.26560       -3.65800       -3.79100
C          6.09390       -4.63550       -4.74170
C          7.14540       -5.32260       -5.38280
N          7.94000       -5.93030       -5.94740
C          4.86510       -5.09930       -5.25360
N          3.91700       -5.53520       -5.73790
C         11.35520       -2.78140       -2.88800
C         12.03420       -3.83250       -1.98460
C         13.37390       -3.21440       -1.65540
C         13.15850       -2.20500       -0.82150
C         11.66960       -2.12420       -0.57270
C         11.30770       -3.61300       -0.65130
C         11.10000       -1.59370       -1.90540
C          2.74290       -2.63080       -2.66350
C          2.57750       -1.45400       -1.90280
C          1.22180       -1.33910       -1.66740
C          0.57680       -2.44600       -2.26690
N          1.49360       -3.21460       -2.88180
C          1.20120       -4.46370       -3.54460
C          1.50770       -5.66060       -2.64690
C         -0.79160       -2.35140       -1.95140
C         -1.88270       -3.23330       -2.12180
C         -3.13580       -2.93870       -1.47870
N         -4.03350       -3.89340       -1.65810
S         -3.37780       -5.06030       -2.56530
N         -1.91200       -4.39250       -2.76330
C         -3.29130       -1.70130       -0.81490
C         -4.38660       -1.08660       -0.18970
S         -6.01860       -1.45180        0.25420
C         -6.16970        0.16580        0.91790
C         -7.21510        0.82730        1.54690
C         -8.52810        0.17580        1.83510
C         -8.55020       -0.39850        3.25450
C         -6.84560        2.13370        1.91600
S         -5.18430        2.51370        1.45460
C         -5.00210        0.93690        0.78580
C         -3.98800        0.21220        0.15700
N         -2.68340        0.41780       -0.21240
C         -2.22650       -0.75650       -0.77750
C         -0.93760       -1.14520       -1.20550
N          0.29670       -0.54650       -1.02640
C          0.72130        0.33790        0.03950
C          1.44210        1.57340       -0.49500
C         -2.20790        1.75950       -0.47670
C         -3.04360        2.43780       -1.56170
C         -7.71250        3.00810        2.57880
C         -7.52820        4.29330        3.02780
C         -6.30620        5.09290        2.89320
O         -5.25740        4.76480        2.36240
C         -6.59420        6.38930        3.52490
C         -5.77680        7.49250        3.66600
C         -6.28630        8.61160        4.30780
C         -7.58750        8.63120        4.79980
C         -8.13210        9.84330        5.48610
C         -8.40720        7.51010        4.65140
C         -7.91290        6.38730        4.01440
C         -8.52210        5.08970        3.71800
C         -9.80330        4.72680        4.04960
C        -10.40840        3.48310        3.77630
N        -10.97500        2.49960        3.59430
C        -10.71360        5.56540        4.72580
N        -11.50700        6.18970        5.27320
H          3.68510       -4.08760       -3.81120
H          8.14140       -0.57050       -1.14940
H          9.05330       -4.40140       -4.33250
H         11.90740       -2.58920       -3.80610
H         12.04610       -4.84090       -2.38920
H         14.30330       -3.52890       -2.09270
H         13.87210       -1.50770       -0.42300
H         11.35020       -1.57650        0.31010
H         11.75240       -4.18810        0.15930
H         10.23760       -3.80780       -0.69160
H         11.48110       -0.60880       -2.16950
H          3.37970       -0.81730       -1.59460
H          1.76450       -4.53510       -4.47900
H          0.13340       -4.45940       -3.77500
H          0.88480       -5.62680       -1.75630
H          2.55200       -5.66750       -2.34260
H          1.29700       -6.57940       -3.18530
H         -8.66910       -0.63720        1.12010
H         -9.35200        0.88110        1.71760
H         -8.41180        0.38940        3.99100
H         -9.50590       -0.87930        3.44160
H         -7.75780       -1.13320        3.37760
H          1.41760       -0.21870        0.67920
H         -0.14150        0.60870        0.64900
H          2.35730        1.28200       -1.00160
H          1.69740        2.23180        0.33060
H          0.82690        2.12510       -1.20220
H         -1.17890        1.70720       -0.81780
H         -2.26420        2.33990        0.44920
H         -3.03290        1.84320       -2.47310
H         -4.07250        2.56680       -1.23870
H         -2.62770        3.41780       -1.77800
H         -8.68780        2.57990        2.76490
H         -4.76820        7.47250        3.28260
H         -5.66300        9.48540        4.42940
H         -8.96040       10.25720        4.91200
H         -8.51590        9.57990        6.47040
H         -7.36940       10.60900        5.59850
H         -9.41290        7.54280        5.03840
