102

C         -2.40920       -3.14540        5.08660
C         -3.45290       -3.68720        5.78830
C         -4.83070       -3.97110        5.33040
O         -5.34550       -3.71530        4.25960
C         -5.49470       -4.66450        6.44940
C         -6.80060       -5.15060        6.46460
C         -7.15750       -5.75610        7.64490
C         -6.28010       -5.86750        8.73210
C         -4.99130       -5.39090        8.73020
C         -4.60590       -4.77250        7.53580
C         -3.33880       -4.14890        7.16250
C         -2.26360       -3.99880        8.00230
C         -1.04620       -3.35050        7.70480
N         -0.02890       -2.83290        7.56670
C         -2.21820       -4.46220        9.33440
N         -2.09570       -4.80970       10.42210
C         -7.29570       -6.59110        9.58090
C         -7.11390       -8.11700        9.72210
C         -8.47180       -8.60310       10.17470
C         -9.30140       -8.49990        9.14420
C         -8.51810       -7.94220        7.97770
C         -7.14650       -8.57040        8.25680
C         -8.27320       -6.46890        8.36810
C         -2.31940       -2.59340        3.79630
C         -3.25800       -2.36090        2.80590
C         -2.75590       -1.72580        1.67710
S         -3.56970       -1.20580        0.21620
C         -2.07410       -0.56460       -0.36210
C         -1.58110        0.16520       -1.45150
C         -2.26140        0.71070       -2.56160
C         -1.53380        1.53500       -3.47810
N         -2.29980        2.01750       -4.44430
S         -3.80810        1.47540       -4.21940
N         -3.54220        0.60640       -2.87980
C         -0.14560        1.70350       -3.28550
C          0.79900        2.38110       -4.06870
C          2.04870        2.14910       -3.48800
N          1.90580        1.36860       -2.37300
C          3.09370        0.87840       -1.71800
C          3.71670        1.93120       -0.80040
C          0.55880        1.09230       -2.20510
C         -0.18670        0.37710       -1.22570
N          0.13130       -0.19060       -0.00450
C         -1.00120       -0.75940        0.51410
C         -1.37900       -1.41600        1.68880
Se        -0.58900       -1.96530        3.28120
C          1.31850       -0.16010        0.81390
C          2.06940       -1.49110        0.77890
C          3.09190        2.73760       -4.21370
C          2.60400        3.43520       -5.33200
S          0.86530        3.34670       -5.49940
C          3.55020        4.09020       -6.12170
C          4.85110        3.94400       -5.69820
Se         4.94560        2.86870       -4.12290
C          6.10090        4.39200       -6.20360
C          6.46650        5.18510       -7.24260
C          5.55790        5.93670       -8.10770
O          4.39150        6.16130       -7.85880
N          6.10860        6.49270       -9.27340
C          5.24700        7.38590      -10.04510
C          4.41860        6.60950      -11.05950
C          7.33660        6.20880       -9.80500
O          7.75180        6.72220      -10.81400
C          8.14820        5.17630       -9.02630
C          7.68300        3.86950       -9.42630
N          7.28550        2.84010       -9.72330
C          7.94010        5.36600       -7.51880
C          8.44020        6.73850       -7.06200
H         -1.46100       -3.12360        5.61380
H         -7.44250       -5.03760        5.60500
H         -4.33260       -5.48540        9.57670
H         -7.56350       -6.10550       10.51730
H         -6.26020       -8.41990       10.32220
H         -8.69510       -8.90910       11.17990
H        -10.35600       -8.70240        9.11660
H         -8.94380       -8.08680        6.98840
H         -6.34030       -8.16460        7.64850
H         -7.16370       -9.65490        8.16180
H         -9.19450       -5.90370        8.49620
H         -4.28800       -2.65130        2.91860
H          3.81980        0.63370       -2.50510
H          2.86660       -0.04110       -1.18620
H          2.98630        2.34210       -0.10650
H          4.53490        1.49250       -0.23610
H          4.11050        2.75600       -1.39260
H          1.95050        0.67060        0.51530
H          0.99460        0.02660        1.84680
H          3.00540       -1.40160        1.32270
H          2.27940       -1.80620       -0.24110
H          1.47110       -2.26920        1.25050
H          3.28570        4.67390       -6.98350
H          6.93690        3.98160       -5.63890
H          4.59570        7.90320       -9.33890
H          5.89610        8.10240      -10.55190
H          3.78060        5.89040      -10.55150
H          5.06960        6.08110      -11.75220
H          3.79320        7.29680      -11.62180
H          9.19970        5.28250       -9.31370
H          8.50770        4.59520       -6.98600
H          8.28800        6.84570       -5.99060
H          9.50220        6.84400       -7.27350
H          7.90690        7.54160       -7.56550
