107

C         -4.73730       -2.35370        2.97210
C         -6.05050       -2.17720        3.27760
C         -6.58780       -2.67540        4.57230
O         -6.07420       -3.49110        5.30460
C         -7.83110       -1.91000        4.79160
C         -8.62310       -1.89490        5.93750
C         -9.70500       -1.05090        5.85980
C         -9.98060       -0.26820        4.72980
C         -9.21260       -0.27550        3.58980
C         -8.11340       -1.13460        3.64630
C         -7.10550       -1.42730        2.63190
C         -7.27290       -1.29730        1.27630
C         -6.38350       -1.87950        0.34890
N         -5.69920       -2.38720       -0.42130
C         -8.39450       -0.69270        0.67600
N         -9.28760       -0.20600        0.14370
C        -11.21160        0.33980        5.35310
C        -12.58980       -0.19220        4.88850
C        -12.36580       -1.60840        4.41870
C        -12.10870       -2.35280        5.48590
C        -12.15280       -1.45320        6.69650
C        -13.23920       -0.45930        6.25570
C        -10.90790       -0.53580        6.60960
C         -3.91190       -1.61410        2.09140
Se        -4.32790        0.14540        1.46560
C         -2.64320        0.13040        0.72320
C         -1.81370        0.93300       -0.06700
C         -2.07230        2.16230       -0.70750
C         -1.08740        2.70380       -1.59530
N         -1.49500        3.82100       -2.17720
S         -2.98590        4.16210       -1.64790
N         -3.17220        2.89610       -0.65370
C          0.16430        2.05430       -1.69230
C          1.34930        2.43580       -2.33770
S          1.94920        3.72270       -3.32290
C          3.55230        3.03030       -3.21040
C          4.80190        3.46170       -3.66220
C          4.99860        4.69460       -4.48050
C          4.86510        4.37220       -5.97140
C          5.81680        2.61110       -3.23590
S          5.18910        1.22730       -2.33810
C          3.58680        1.84320       -2.46520
C          2.32800        1.50390       -1.97130
N          1.79050        0.54270       -1.15540
C          0.45320        0.85840       -0.96890
C         -0.59400        0.22370       -0.25290
N         -0.71440       -1.00480        0.36700
C         -1.94940       -1.06500        0.96540
C         -2.63690       -2.01360        1.72300
C          0.05720       -2.21330        0.18530
C          0.79120       -2.62660        1.46190
C          2.70300       -0.17690       -0.29110
C          3.16770        0.70110        0.87010
C          7.19590        2.74190       -3.49640
C          8.24510        2.16390       -2.84170
C          9.55550        2.03090       -3.52760
O          9.89550        2.57330       -4.55560
C         10.31640        1.05510       -2.72110
C         11.53820        0.50050       -2.96930
C         12.06620       -0.44140       -2.05750
C         13.32540       -1.04060       -2.26490
C         13.82590       -1.95420       -1.37920
C         13.06540       -2.29160       -0.25170
F         13.57320       -3.19360        0.60880
C         11.83940       -1.74060       -0.00240
C         11.30970       -0.79600       -0.90280
C         10.04950       -0.19860       -0.66630
C          9.56410        0.71730       -1.55900
C          8.34390        1.51940       -1.55270
C          7.60360        1.81700       -0.43580
C          7.76310        1.18110        0.80950
N          7.81740        0.66910        1.83630
C          6.64150        2.84650       -0.39180
N          5.88820        3.70830       -0.29640
H         -4.22690       -3.10380        3.57070
H         -8.37620       -2.50620        6.79130
H         -9.42160        0.33660        2.72740
H        -11.20210        1.42150        5.47110
H        -13.11810        0.46310        4.20140
H        -12.36020       -1.90180        3.38540
H        -11.84560       -3.39370        5.52280
H        -12.28430       -1.94550        7.65650
H        -13.30000        0.42570        6.88770
H        -14.22230       -0.91990        6.17220
H        -10.70170       -0.02610        7.54900
H          5.97720        5.13030       -4.27970
H          4.23320        5.42090       -4.20060
H          3.88290        3.95540       -6.18150
H          5.62000        3.65180       -6.27840
H          4.99030        5.27750       -6.55910
H         -2.25510       -2.98360        1.99110
H          0.74140       -2.07450       -0.65320
H         -0.64030       -3.01060       -0.09600
H          1.39260       -1.81270        1.85980
H          0.07890       -2.91350        2.23000
H          1.43790       -3.47580        1.25770
H          2.24080       -1.07730        0.09400
H          3.56230       -0.46510       -0.90380
H          2.32000        0.99750        1.48460
H          3.87540        0.15340        1.48640
H          3.65770        1.60000        0.50310
H          7.46570        3.31480       -4.37790
H         12.09780        0.77760       -3.85010
H         13.89260       -0.76450       -3.14100
H         14.78720       -2.42110       -1.52340
H         11.28350       -2.02090        0.87860
H          9.49440       -0.48690        0.21260
