
  xtb     02112207493D
 energy: -194.256272461202 gnorm: 0.000814605548 xtb: 6.4.1 (unknown)
107121  0     0  0            999 V2000
    2.3336   -2.3792    3.9966 C   0  0  0  0  0  0  0  0  0  0  0  0
    2.4284   -2.7224    5.3180 C   0  0  0  0  0  0  0  0  0  0  0  0
    1.3861   -2.5542    6.3480 C   0  0  0  0  0  0  0  0  0  0  0  0
    0.2710   -2.0893    6.2046 O   0  0  0  0  0  0  0  0  0  0  0  0
    2.0110   -2.9405    7.6266 C   0  0  0  0  0  0  0  0  0  0  0  0
    1.4034   -2.9641    8.8801 C   0  0  0  0  0  0  0  0  0  0  0  0
    2.2385   -3.3547    9.8993 C   0  0  0  0  0  0  0  0  0  0  0  0
    3.5861   -3.6778    9.6912 C   0  0  0  0  0  0  0  0  0  0  0  0
    4.2003   -3.6496    8.4622 C   0  0  0  0  0  0  0  0  0  0  0  0
    3.3628   -3.2717    7.4075 C   0  0  0  0  0  0  0  0  0  0  0  0
    3.6459   -3.1533    5.9800 C   0  0  0  0  0  0  0  0  0  0  0  0
    4.8309   -3.4835    5.3733 C   0  0  0  0  0  0  0  0  0  0  0  0
    5.0730   -3.4692    3.9834 C   0  0  0  0  0  0  0  0  0  0  0  0
    5.3518   -3.5103    2.8696 N   0  0  0  0  0  0  0  0  0  0  0  0
    5.9858   -3.9172    6.0573 C   0  0  0  0  0  0  0  0  0  0  0  0
    6.9653   -4.2704    6.5412 N   0  0  0  0  0  0  0  0  0  0  0  0
    3.8232   -3.9771   11.1505 C   0  0  0  0  0  0  0  0  0  0  0  0
    3.8907   -5.4678   11.5442 C   0  0  0  0  0  0  0  0  0  0  0  0
    3.6423   -5.4605   13.0352 C   0  0  0  0  0  0  0  0  0  0  0  0
    2.3641   -5.1623   13.2299 C   0  0  0  0  0  0  0  0  0  0  0  0
    1.7271   -4.9624   11.8735 C   0  0  0  0  0  0  0  0  0  0  0  0
    2.5304   -5.9797   11.0529 C   0  0  0  0  0  0  0  0  0  0  0  0
    2.3188   -3.6239   11.3815 C   0  0  0  0  0  0  0  0  0  0  0  0
    1.2066   -2.1480    3.1810 C   0  0  0  0  0  0  0  0  0  0  0  0
   -0.0975   -2.6391    3.1500 C   0  0  0  0  0  0  0  0  0  0  0  0
   -0.7168   -3.6618    4.0394 C   0  0  0  0  0  0  0  0  0  0  0  0
    0.0823   -4.9621    4.1029 C   0  0  0  0  0  0  0  0  0  0  0  0
   -0.7946   -2.1357    2.0435 C   0  0  0  0  0  0  0  0  0  0  0  0
   -2.4300   -2.4124    1.4820 S   0  0  0  0  0  0  0  0  0  0  0  0
   -2.1124   -1.3863    0.1293 C   0  0  0  0  0  0  0  0  0  0  0  0
   -2.7411   -0.9690   -1.0527 C   0  0  0  0  0  0  0  0  0  0  0  0
   -3.9786   -1.3565   -1.6220 C   0  0  0  0  0  0  0  0  0  0  0  0
   -4.2720   -0.9436   -2.9700 C   0  0  0  0  0  0  0  0  0  0  0  0
   -5.4041   -1.4095   -3.4595 N   0  0  0  0  0  0  0  0  0  0  0  0
   -6.1856   -2.4033   -2.2310 Se  0  0  0  0  0  2  0  0  0  0  0  0
   -4.8876   -2.1344   -1.0683 N   0  0  0  0  0  0  0  0  0  0  0  0
   -3.3728   -0.0620   -3.6175 C   0  0  0  0  0  0  0  0  0  0  0  0
   -3.4362    0.5521   -4.8772 C   0  0  0  0  0  0  0  0  0  0  0  0
   -4.4363    0.5507   -6.2873 S   0  0  0  0  0  0  0  0  0  0  0  0
   -3.3664    1.7396   -7.0104 C   0  0  0  0  0  0  0  0  0  0  0  0
   -3.3619    2.3672   -8.2490 C   0  0  0  0  0  0  0  0  0  0  0  0
   -4.4257    2.1486   -9.2745 C   0  0  0  0  0  0  0  0  0  0  0  0
   -5.4826    3.2548   -9.2099 C   0  0  0  0  0  0  0  0  0  0  0  0
   -2.2728    3.2478   -8.3716 C   0  0  0  0  0  0  0  0  0  0  0  0
   -1.2706    3.2772   -6.9195 S   0  0  0  0  0  0  0  0  0  0  0  0
   -2.2983    2.1129   -6.1761 C   0  0  0  0  0  0  0  0  0  0  0  0
   -2.3440    1.4236   -4.9625 C   0  0  0  0  0  0  0  0  0  0  0  0
   -1.5974    1.3588   -3.8131 N   0  0  0  0  0  0  0  0  0  0  0  0
   -2.1968    0.4307   -2.9818 C   0  0  0  0  0  0  0  0  0  0  0  0
   -1.8121   -0.1369   -1.7395 C   0  0  0  0  0  0  0  0  0  0  0  0
   -0.6403   -0.0945   -1.0116 N   0  0  0  0  0  0  0  0  0  0  0  0
   -0.8200   -0.8468    0.1182 C   0  0  0  0  0  0  0  0  0  0  0  0
   -0.0610   -1.2835    1.2081 C   0  0  0  0  0  0  0  0  0  0  0  0
    1.5501   -1.1096    1.7846 S   0  0  0  0  0  0  0  0  0  0  0  0
    0.6903    0.3215   -1.3946 C   0  0  0  0  0  0  0  0  0  0  0  0
    1.1576    1.5409   -0.5996 C   0  0  0  0  0  0  0  0  0  0  0  0
   -0.7764    2.5032   -3.4772 C   0  0  0  0  0  0  0  0  0  0  0  0
   -1.6446    3.7132   -3.1336 C   0  0  0  0  0  0  0  0  0  0  0  0
   -2.0148    3.9845   -9.5326 C   0  0  0  0  0  0  0  0  0  0  0  0
   -1.0144    4.8731   -9.8342 C   0  0  0  0  0  0  0  0  0  0  0  0
    0.0767    5.3145   -8.9489 C   0  0  0  0  0  0  0  0  0  0  0  0
    0.2884    4.9715   -7.8006 O   0  0  0  0  0  0  0  0  0  0  0  0
    0.8676    6.2669   -9.7466 C   0  0  0  0  0  0  0  0  0  0  0  0
    2.0098    7.0634   -9.5797 C   0  0  0  0  0  0  0  0  0  0  0  0
    2.2780    7.7647  -10.7240 C   0  0  0  0  0  0  0  0  0  0  0  0
    3.5686    8.8506  -10.9635 Cl  0  0  0  0  0  0  0  0  0  0  0  0
    1.1456    7.4652  -12.0190 S   0  0  0  0  0  0  0  0  0  0  0  0
    0.2934    6.3762  -11.0028 C   0  0  0  0  0  0  0  0  0  0  0  0
   -0.8705    5.5395  -11.1194 C   0  0  0  0  0  0  0  0  0  0  0  0
   -1.6394    5.4320  -12.2527 C   0  0  0  0  0  0  0  0  0  0  0  0
   -2.7799    4.6232  -12.4055 C   0  0  0  0  0  0  0  0  0  0  0  0
   -3.7172    3.9849  -12.5923 N   0  0  0  0  0  0  0  0  0  0  0  0
   -1.3129    6.1688  -13.4102 C   0  0  0  0  0  0  0  0  0  0  0  0
   -1.0550    6.7621  -14.3581 N   0  0  0  0  0  0  0  0  0  0  0  0
    3.2716   -2.2231    3.4742 H   0  0  0  0  0  0  0  0  0  0  0  0
    0.3653   -2.6952    8.9979 H   0  0  0  0  0  0  0  0  0  0  0  0
    5.2402   -3.8919    8.3211 H   0  0  0  0  0  0  0  0  0  0  0  0
    4.5819   -3.3713   11.6422 H   0  0  0  0  0  0  0  0  0  0  0  0
    4.7783   -5.9900   11.1978 H   0  0  0  0  0  0  0  0  0  0  0  0
    4.4090   -5.6136   13.7719 H   0  0  0  0  0  0  0  0  0  0  0  0
    1.8497   -5.0162   14.1616 H   0  0  0  0  0  0  0  0  0  0  0  0
    0.6431   -5.0256   11.8281 H   0  0  0  0  0  0  0  0  0  0  0  0
    2.3868   -5.8958    9.9772 H   0  0  0  0  0  0  0  0  0  0  0  0
    2.3387   -7.0045   11.3667 H   0  0  0  0  0  0  0  0  0  0  0  0
    2.0731   -2.7862   12.0316 H   0  0  0  0  0  0  0  0  0  0  0  0
   -1.7200   -3.8702    3.6611 H   0  0  0  0  0  0  0  0  0  0  0  0
   -0.8154   -3.2416    5.0444 H   0  0  0  0  0  0  0  0  0  0  0  0
    0.2109   -5.3777    3.1056 H   0  0  0  0  0  0  0  0  0  0  0  0
    1.0658   -4.8012    4.5367 H   0  0  0  0  0  0  0  0  0  0  0  0
   -0.4472   -5.6883    4.7142 H   0  0  0  0  0  0  0  0  0  0  0  0
   -4.9026    1.1879   -9.0711 H   0  0  0  0  0  0  0  0  0  0  0  0
   -4.0002    2.1132  -10.2787 H   0  0  0  0  0  0  0  0  0  0  0  0
   -5.9454    3.2787   -8.2261 H   0  0  0  0  0  0  0  0  0  0  0  0
   -6.2522    3.0713   -9.9540 H   0  0  0  0  0  0  0  0  0  0  0  0
   -5.0368    4.2267   -9.4081 H   0  0  0  0  0  0  0  0  0  0  0  0
    1.3700   -0.5115   -1.1823 H   0  0  0  0  0  0  0  0  0  0  0  0
    0.7130    0.4962   -2.4708 H   0  0  0  0  0  0  0  0  0  0  0  0
    2.1065    1.8948   -0.9925 H   0  0  0  0  0  0  0  0  0  0  0  0
    0.4325    2.3507   -0.6420 H   0  0  0  0  0  0  0  0  0  0  0  0
    1.2979    1.2726    0.4439 H   0  0  0  0  0  0  0  0  0  0  0  0
   -0.1379    2.2770   -2.6326 H   0  0  0  0  0  0  0  0  0  0  0  0
   -0.1551    2.7310   -4.3482 H   0  0  0  0  0  0  0  0  0  0  0  0
   -2.2673    3.9929   -3.9791 H   0  0  0  0  0  0  0  0  0  0  0  0
   -1.0093    4.5572   -2.8806 H   0  0  0  0  0  0  0  0  0  0  0  0
   -2.2882    3.4895   -2.2849 H   0  0  0  0  0  0  0  0  0  0  0  0
   -2.7329    3.8052  -10.3219 H   0  0  0  0  0  0  0  0  0  0  0  0
    2.5983    7.1207   -8.6835 H   0  0  0  0  0  0  0  0  0  0  0  0
  1  2  2  0  0  0  0
  2  3  1  0  0  0  0
  3  4  2  0  0  0  0
  3  5  1  0  0  0  0
  5  6  2  0  0  0  0
  6  7  1  0  0  0  0
  7  8  2  0  0  0  0
  8  9  1  0  0  0  0
  9 10  2  0  0  0  0
 10 11  1  0  0  0  0
 11 12  2  0  0  0  0
 12 13  1  0  0  0  0
 13 14  3  0  0  0  0
 12 15  1  0  0  0  0
 15 16  3  0  0  0  0
  8 17  1  0  0  0  0
 17 18  1  0  0  0  0
 18 19  1  0  0  0  0
 19 20  2  0  0  0  0
 20 21  1  0  0  0  0
 21 22  1  0  0  0  0
 21 23  1  0  0  0  0
  1 24  1  0  0  0  0
 24 25  2  0  0  0  0
 25 26  1  0  0  0  0
 26 27  1  0  0  0  0
 25 28  1  0  0  0  0
 28 29  1  0  0  0  0
 29 30  1  0  0  0  0
 30 31  1  0  0  0  0
 31 32  1  0  0  0  0
 32 33  1  0  0  0  0
 33 34  2  0  0  0  0
 34 35  1  0  0  0  0
 35 36  1  0  0  0  0
 33 37  1  0  0  0  0
 37 38  1  0  0  0  0
 38 39  1  0  0  0  0
 39 40  1  0  0  0  0
 40 41  1  0  0  0  0
 41 42  1  0  0  0  0
 42 43  1  0  0  0  0
 41 44  2  0  0  0  0
 44 45  1  0  0  0  0
 45 46  1  0  0  0  0
 46 47  1  0  0  0  0
 47 48  1  0  0  0  0
 48 49  1  0  0  0  0
 49 50  1  0  0  0  0
 50 51  1  0  0  0  0
 51 52  1  0  0  0  0
 52 53  1  0  0  0  0
 53 54  1  0  0  0  0
 51 55  1  0  0  0  0
 55 56  1  0  0  0  0
 48 57  1  0  0  0  0
 57 58  1  0  0  0  0
 44 59  1  0  0  0  0
 59 60  2  0  0  0  0
 60 61  1  0  0  0  0
 61 62  2  0  0  0  0
 61 63  1  0  0  0  0
 63 64  1  0  0  0  0
 64 65  2  0  0  0  0
 65 66  1  0  0  0  0
 65 67  1  0  0  0  0
 67 68  1  0  0  0  0
 68 69  1  0  0  0  0
 69 70  2  0  0  0  0
 70 71  1  0  0  0  0
 71 72  3  0  0  0  0
 70 73  1  0  0  0  0
 73 74  3  0  0  0  0
 11  2  1  0  0  0  0
 23 17  1  0  0  0  0
 54 24  1  0  0  0  0
 69 60  1  0  0  0  0
 10  5  1  0  0  0  0
 22 18  1  0  0  0  0
 53 28  2  0  0  0  0
 68 63  2  0  0  0  0
 23  7  1  0  0  0  0
 52 30  2  0  0  0  0
 50 31  2  0  0  0  0
 36 32  2  0  0  0  0
 49 37  2  0  0  0  0
 47 38  2  0  0  0  0
 46 40  2  0  0  0  0
  1 75  1  0  0  0  0
  6 76  1  0  0  0  0
  9 77  1  0  0  0  0
 17 78  1  0  0  0  0
 18 79  1  0  0  0  0
 19 80  1  0  0  0  0
 20 81  1  0  0  0  0
 21 82  1  0  0  0  0
 22 83  1  0  0  0  0
 22 84  1  0  0  0  0
 23 85  1  0  0  0  0
 26 86  1  0  0  0  0
 26 87  1  0  0  0  0
 27 88  1  0  0  0  0
 27 89  1  0  0  0  0
 27 90  1  0  0  0  0
 42 91  1  0  0  0  0
 42 92  1  0  0  0  0
 43 93  1  0  0  0  0
 43 94  1  0  0  0  0
 43 95  1  0  0  0  0
 55 96  1  0  0  0  0
 55 97  1  0  0  0  0
 56 98  1  0  0  0  0
 56 99  1  0  0  0  0
 56100  1  0  0  0  0
 57101  1  0  0  0  0
 57102  1  0  0  0  0
 58103  1  0  0  0  0
 58104  1  0  0  0  0
 58105  1  0  0  0  0
 59106  1  0  0  0  0
 64107  1  0  0  0  0
M  END
