110

C          3.07590       -5.24390       -0.00510
C          3.56840       -6.09890       -0.95800
C          3.13550       -6.20380       -2.35740
O          2.21990       -5.61290       -2.89980
C          4.03950       -7.17540       -2.99790
C          4.03690       -7.56320       -4.33490
C          5.02110       -8.46690       -4.65590
C          5.93660       -8.95340       -3.71350
C          5.94340       -8.58490       -2.38910
C          4.95340       -7.66120       -2.04180
C          4.66190       -7.02930       -0.75560
C          5.31780       -7.29910        0.42030
C          5.04500       -6.71900        1.67560
N          4.89310       -6.30460        2.73770
C          6.37460       -8.22350        0.55450
N          7.24000       -8.95270        0.74990
C          6.65410       -9.80410       -4.73140
C          8.01030       -9.28740       -5.27280
C          7.97740       -7.78420       -5.14970
C          7.11050       -7.32370       -6.04160
C          6.54160       -8.50740       -6.78410
C          7.76300       -9.44050       -6.78210
C          5.63360       -9.26210       -5.78140
C          2.06840       -4.27010       -0.06100
S          1.09500       -3.92730       -1.49460
C          0.29410       -2.69140       -0.63140
C         -0.67790       -1.70600       -0.86050
C         -1.50530       -1.45270       -1.97690
C         -2.46700       -0.39050       -1.90060
N         -3.20930       -0.29910       -2.99260
S         -2.73580       -1.44900       -4.03020
N         -1.56610       -2.10510       -3.12650
C         -2.46570        0.44840       -0.76370
C         -3.13610        1.64970       -0.50310
S         -4.31770        2.67400       -1.24170
C         -4.10010        3.81560        0.07160
C         -4.66750        5.05670        0.33310
C         -5.66010        5.69920       -0.57980
C         -4.96210        6.63690       -1.56870
C         -4.13680        5.62550        1.50170
S         -2.94620        4.57680        2.27190
C         -3.15890        3.40170        1.02860
C         -2.62050        2.15440        0.69820
N         -1.69300        1.28830        1.20900
C         -1.58150        0.22320        0.33290
C         -0.77780       -0.94410        0.33330
N          0.05180       -1.50470        1.29610
C          0.73120       -2.55310        0.69860
C          1.75640       -3.43790        1.03460
C          2.46950       -3.50680        2.35240
C          1.89310       -4.60030        3.25760
C         -0.17960       -1.47240        2.72780
C         -1.65730       -1.63280        3.07750
C         -0.80470        1.71830        2.26620
C          0.63120        1.86870        1.77310
C         -4.50990        6.89010        1.97370
C         -4.05830        7.62020        3.04130
C         -3.01380        7.22970        4.00760
O         -2.40220        6.17560        4.05330
C         -2.86650        8.37480        4.90800
C         -3.75440        9.36250        4.53100
S         -3.67940       10.77310        5.51430
C         -2.41050       10.03090        6.47270
C         -1.76680       10.60590        7.55690
C         -0.78520        9.87660        8.19780
C         -0.44590        8.59160        7.76980
C         -1.07970        8.01270        6.69440
C         -2.07530        8.73070        6.02860
C         -4.52770        8.95220        3.38540
C         -5.49920        9.71730        2.78870
C         -6.27450        9.34620        1.67470
N         -6.93820        9.10320        0.76850
C         -5.81200       11.00330        3.27690
N         -6.07770       12.05210        3.65950
H          3.55660       -5.31190        0.96060
H          3.31270       -7.16140       -5.02620
H          6.65620       -8.96990       -1.67930
H          6.66620      -10.87460       -4.53650
H          8.88170       -9.78410       -4.85470
H          8.52760       -7.23190       -4.41050
H          6.79120       -6.30960       -6.19630
H          6.07590       -8.29400       -7.74280
H          7.52990      -10.46120       -7.08240
H          8.58580       -9.05850       -7.38460
H          4.97870       -9.97890       -6.27300
H         -6.17020        4.91090       -1.13700
H         -6.40810        6.25810       -0.01580
H         -5.69640        7.08600       -2.23130
H         -4.44040        7.43280       -1.04220
H         -4.24110        6.08530       -2.16770
H          3.52980       -3.71050        2.19530
H          2.40640       -2.53710        2.84930
H          2.01660       -5.57700        2.79770
H          0.83110       -4.44600        3.44090
H          2.41620       -4.60590        4.20980
H          0.23550       -0.56150        3.16600
H          0.36030       -2.31470        3.15540
H         -2.03520       -2.56730        2.66800
H         -1.77420       -1.65630        4.15810
H         -2.26100       -0.82140        2.68120
H         -0.86390        1.03720        3.11660
H         -1.17350        2.68940        2.60530
H          1.26430        2.21050        2.58730
H          1.02190        0.92750        1.39450
H          0.67340        2.60260        0.97170
H         -5.27300        7.36390        1.37050
H         -2.03050       11.59880        7.88590
H         -0.27140       10.30740        9.04360
H          0.32610        8.04830        8.29350
H         -0.82940        7.02120        6.35100
