131

C         -6.83240        1.21460        1.02970
C         -8.02850        1.08180        0.38070
C         -8.33440        0.74400       -1.02940
O         -7.59070        0.68340       -1.98810
C         -9.78560        0.48000       -1.07900
C        -10.50940        0.04600       -2.18800
C        -11.84770       -0.14230       -1.94270
C        -12.42330        0.07890       -0.68420
C        -11.72120        0.50890        0.41570
C        -10.35650        0.71540        0.18480
C         -9.30110        1.15980        1.08970
C         -9.51370        1.61810        2.36540
C         -8.54210        2.11420        3.26090
N         -7.84260        2.54310        4.06670
C        -10.77970        1.69710        2.98340
N        -11.76850        1.79520        3.55960
C        -13.80080       -0.31630       -1.15590
C        -14.79340        0.83370       -1.42760
C        -15.84580        0.20190       -2.30980
C        -15.30150       -0.00490       -3.50220
C        -13.87210        0.48370       -3.44580
C        -14.03300        1.65930       -2.47350
C        -13.15960       -0.56020       -2.55960
C         -5.46000        1.15760        0.64320
C         -4.98730        1.04180       -0.68420
C         -3.64990        0.96140       -0.97070
C         -2.71220        0.98720        0.06790
C         -1.31110        0.90590        0.18560
C         -0.99160        1.00700        1.54590
N         -2.11850        1.16890        2.29150
C         -3.18340        1.13880        1.41810
C         -4.52770        1.22690        1.69510
C         -2.18210        1.22890        3.72870
C         -2.48540       -0.14050        4.33380
C          0.39870        0.86250        1.66280
C          1.25540        0.73560        2.77440
C          2.62180        0.40340        2.57480
N          3.18710        0.27550        3.77830
N          2.20900        0.51650        4.62060
C          2.41710        0.52490        6.03890
C          2.85120        1.90890        6.51420
N          1.04230        0.79950        4.09140
C          3.14060        0.34050        1.26630
C          2.30160        0.59530        0.13890
C          0.90120        0.71550        0.33530
N         -0.16410        0.73850       -0.55970
C         -0.25450        0.05080       -1.83050
C          0.07810       -1.43290       -1.68370
N          3.08760        0.65270       -1.00080
C          2.80710        1.26640       -2.27720
C          2.85700        0.25970       -3.42640
C          4.38680        0.40760       -0.62050
C          4.44000        0.18290        0.76370
N          5.71870       -0.04970        1.16200
C          6.13460       -0.45600        2.48060
C          6.35650       -1.96540        2.56010
C          6.50390       -0.00140        0.03370
C          5.70180        0.32130       -1.11570
C          6.33840        0.49780       -2.35150
C          7.68900        0.29800       -2.44150
C          8.46550       -0.11030       -1.32820
C          7.86070       -0.21220       -0.07040
C          9.85090       -0.37280       -1.54000
C         10.67990       -1.22050       -0.85740
C         10.27650       -2.31630        0.05490
O          9.19270       -2.54240        0.55080
C         11.48200       -3.16290        0.20780
C         11.59830       -4.34340        0.91330
C         12.84220       -4.96660        0.91610
O         13.10690       -6.12510        1.62150
C         12.20050       -7.12270        1.72600
O         11.13010       -7.12780        1.18890
C         12.75440       -8.21770        2.59450
C         13.92280       -4.40570        0.23700
C         13.79480       -3.22030       -0.46660
C         12.55850       -2.59040       -0.48680
C         12.10020       -1.36030       -1.12350
C         12.89790       -0.46270       -1.78550
C         12.46990        0.77490       -2.31040
N         12.21440        1.80740       -2.74450
C         14.27940       -0.64450       -1.99980
N         15.40420       -0.73790       -2.21120
H         -6.93510        1.36440        2.09870
H        -10.02170       -0.12120       -3.13570
H        -12.17940        0.66320        1.37790
H        -14.25620       -1.15840       -0.63790
H        -15.14470        1.35100       -0.53900
H        -16.82750       -0.07220       -1.97060
H        -15.73780       -0.48640       -4.35770
H        -13.38510        0.68260       -4.39680
H        -14.64390        2.45810       -2.89080
H        -13.09140        2.07070       -2.11470
H        -13.18910       -1.56470       -2.97830
H         -5.70090        1.01340       -1.48830
H         -3.33100        0.88330       -1.99960
H         -4.87510        1.33970        2.71170
H         -2.95130        1.95060        4.01820
H         -1.20920        1.57310        4.08660
H         -3.42220       -0.53440        3.94610
H         -2.56040       -0.05890        5.41430
H         -1.68630       -0.83670        4.09130
H          1.47480        0.23790        6.50990
H          3.18850       -0.21440        6.26380
H          2.08740        2.64450        6.27400
H          3.00380        1.90000        7.58960
H          3.78090        2.19690        6.02950
H          0.38410        0.51450       -2.57970
H         -1.28650        0.15870       -2.16590
H         -0.03100       -1.93690       -2.64070
H          1.09700       -1.56670       -1.32690
H         -0.59850       -1.89700       -0.96920
H          3.57250        2.03290       -2.44990
H          1.84450        1.77650       -2.22330
H          3.83590       -0.20940       -3.46580
H          2.67540        0.76870       -4.36980
H          2.11970       -0.52760       -3.30430
H          5.34450       -0.15560        3.17390
H          7.05730        0.07340        2.73700
H          6.64800       -2.24040        3.57000
H          5.43780       -2.49040        2.30910
H          7.13740       -2.27930        1.87200
H          5.77890        0.79820       -3.22420
H          8.18440        0.42210       -3.39310
H          8.45460       -0.42090        0.80160
H         10.27480        0.12440       -2.40560
H         10.74750       -4.75510        1.43160
H         12.06110       -9.05260        2.61340
H         13.71900       -8.53840        2.20940
H         12.90250       -7.83630        3.60240
H         14.87100       -4.91920        0.26990
H         14.64580       -2.81590       -0.98920
