
  xtb     02112202253D
 energy: -206.545261019144 gnorm: 0.000752127661 xtb: 6.4.1 (unknown)
128142  0     0  0            999 V2000
    6.8231   -2.2055   -3.3661 C   0  0  0  0  0  0  0  0  0  0  0  0
    7.8264   -1.5483   -2.7146 C   0  0  0  0  0  0  0  0  0  0  0  0
    7.7325   -0.7742   -1.4520 C   0  0  0  0  0  0  0  0  0  0  0  0
    6.7496   -0.3243   -0.8991 O   0  0  0  0  0  0  0  0  0  0  0  0
    9.1134   -0.6905   -0.9349 C   0  0  0  0  0  0  0  0  0  0  0  0
    9.5102   -0.1401    0.2815 C   0  0  0  0  0  0  0  0  0  0  0  0
   10.8626   -0.2104    0.5124 C   0  0  0  0  0  0  0  0  0  0  0  0
   11.7567   -0.7925   -0.3962 C   0  0  0  0  0  0  0  0  0  0  0  0
   11.3785   -1.3399   -1.5988 C   0  0  0  0  0  0  0  0  0  0  0  0
   10.0060   -1.2713   -1.8560 C   0  0  0  0  0  0  0  0  0  0  0  0
    9.2380   -1.7382   -3.0045 C   0  0  0  0  0  0  0  0  0  0  0  0
    9.7624   -2.1917   -4.1869 C   0  0  0  0  0  0  0  0  0  0  0  0
   11.1411   -2.3362   -4.4427 C   0  0  0  0  0  0  0  0  0  0  0  0
   12.2469   -2.4850   -4.7148 N   0  0  0  0  0  0  0  0  0  0  0  0
    9.0050   -2.5241   -5.3302 C   0  0  0  0  0  0  0  0  0  0  0  0
    8.4674   -2.7900   -6.3100 N   0  0  0  0  0  0  0  0  0  0  0  0
   12.9516   -0.5187    0.4827 C   0  0  0  0  0  0  0  0  0  0  0  0
   13.8734    0.6650    0.0990 C   0  0  0  0  0  0  0  0  0  0  0  0
   13.0175    1.6448   -0.6647 C   0  0  0  0  0  0  0  0  0  0  0  0
   12.1715    2.1981    0.1939 C   0  0  0  0  0  0  0  0  0  0  0  0
   12.4397    1.6018    1.5536 C   0  0  0  0  0  0  0  0  0  0  0  0
   13.9575    1.3798    1.4571 C   0  0  0  0  0  0  0  0  0  0  0  0
   11.9556    0.1319    1.4936 C   0  0  0  0  0  0  0  0  0  0  0  0
    5.4077   -2.1085   -3.1923 C   0  0  0  0  0  0  0  0  0  0  0  0
    4.6281   -3.2515   -3.5007 C   0  0  0  0  0  0  0  0  0  0  0  0
    3.2740   -3.2819   -3.3043 C   0  0  0  0  0  0  0  0  0  0  0  0
    2.6334   -2.1369   -2.8154 C   0  0  0  0  0  0  0  0  0  0  0  0
    1.3176   -1.7816   -2.4668 C   0  0  0  0  0  0  0  0  0  0  0  0
    1.3388   -0.4500   -2.0290 C   0  0  0  0  0  0  0  0  0  0  0  0
    2.6017    0.0503   -2.0906 N   0  0  0  0  0  0  0  0  0  0  0  0
    3.4114   -0.9568   -2.5611 C   0  0  0  0  0  0  0  0  0  0  0  0
    4.7762   -0.9410   -2.7536 C   0  0  0  0  0  0  0  0  0  0  0  0
    3.0043    1.3910   -1.7549 C   0  0  0  0  0  0  0  0  0  0  0  0
    3.0996    2.2686   -3.0017 C   0  0  0  0  0  0  0  0  0  0  0  0
    0.0303   -0.1067   -1.6502 C   0  0  0  0  0  0  0  0  0  0  0  0
   -0.5806    1.0905   -1.2273 C   0  0  0  0  0  0  0  0  0  0  0  0
   -1.9764    1.1128   -0.9538 C   0  0  0  0  0  0  0  0  0  0  0  0
   -2.3031    2.3660   -0.6279 N   0  0  0  0  0  0  0  0  0  0  0  0
   -1.1699    3.0248   -0.7005 N   0  0  0  0  0  0  0  0  0  0  0  0
   -1.1010    4.4381   -0.4709 C   0  0  0  0  0  0  0  0  0  0  0  0
   -1.1443    5.2023   -1.7914 C   0  0  0  0  0  0  0  0  0  0  0  0
   -0.1129    2.3282   -1.0475 N   0  0  0  0  0  0  0  0  0  0  0  0
   -2.7123   -0.0903   -0.9666 C   0  0  0  0  0  0  0  0  0  0  0  0
   -2.0859   -1.3123   -1.3536 C   0  0  0  0  0  0  0  0  0  0  0  0
   -0.7524   -1.2831   -1.8301 C   0  0  0  0  0  0  0  0  0  0  0  0
    0.0388   -2.2897   -2.3691 N   0  0  0  0  0  0  0  0  0  0  0  0
   -0.4175   -3.3107   -3.2863 C   0  0  0  0  0  0  0  0  0  0  0  0
   -0.0838   -2.9584   -4.7363 C   0  0  0  0  0  0  0  0  0  0  0  0
   -2.9508   -2.3650   -1.1046 N   0  0  0  0  0  0  0  0  0  0  0  0
   -2.6684   -3.7765   -0.9802 C   0  0  0  0  0  0  0  0  0  0  0  0
   -3.4658   -4.6175   -1.9779 C   0  0  0  0  0  0  0  0  0  0  0  0
   -4.1001   -1.8329   -0.5659 C   0  0  0  0  0  0  0  0  0  0  0  0
   -3.9886   -0.4358   -0.4985 C   0  0  0  0  0  0  0  0  0  0  0  0
   -5.1045    0.1059    0.0599 N   0  0  0  0  0  0  0  0  0  0  0  0
   -5.2887    1.4925    0.4048 C   0  0  0  0  0  0  0  0  0  0  0  0
   -4.9933    1.7473    1.8815 C   0  0  0  0  0  0  0  0  0  0  0  0
   -5.9221   -0.9412    0.4169 C   0  0  0  0  0  0  0  0  0  0  0  0
   -5.3244   -2.1908    0.0323 C   0  0  0  0  0  0  0  0  0  0  0  0
   -6.0104   -3.3797    0.3110 C   0  0  0  0  0  0  0  0  0  0  0  0
   -7.2187   -3.3195    0.9513 C   0  0  0  0  0  0  0  0  0  0  0  0
   -7.7845   -2.0926    1.3750 C   0  0  0  0  0  0  0  0  0  0  0  0
   -7.1357   -0.8928    1.0677 C   0  0  0  0  0  0  0  0  0  0  0  0
   -9.0181   -2.1360    2.0942 C   0  0  0  0  0  0  0  0  0  0  0  0
   -9.4739   -1.2800    3.0558 C   0  0  0  0  0  0  0  0  0  0  0  0
   -8.6679   -0.2977    3.8244 C   0  0  0  0  0  0  0  0  0  0  0  0
   -7.5409    0.1003    3.6084 O   0  0  0  0  0  0  0  0  0  0  0  0
   -9.4973    0.0617    4.9896 C   0  0  0  0  0  0  0  0  0  0  0  0
   -9.1855    0.8913    6.0495 C   0  0  0  0  0  0  0  0  0  0  0  0
  -10.1335    1.0735    7.0433 C   0  0  0  0  0  0  0  0  0  0  0  0
  -11.3712    0.4353    6.9894 C   0  0  0  0  0  0  0  0  0  0  0  0
  -12.3635    0.6265    8.0926 C   0  0  0  0  0  0  0  0  0  0  0  0
  -11.6770   -0.4011    5.9170 C   0  0  0  0  0  0  0  0  0  0  0  0
  -10.7412   -0.5864    4.9141 C   0  0  0  0  0  0  0  0  0  0  0  0
  -10.7753   -1.3820    3.6909 C   0  0  0  0  0  0  0  0  0  0  0  0
  -11.8729   -2.0342    3.1924 C   0  0  0  0  0  0  0  0  0  0  0  0
  -13.1239   -2.0833    3.8403 C   0  0  0  0  0  0  0  0  0  0  0  0
  -14.1633   -2.1655    4.3221 N   0  0  0  0  0  0  0  0  0  0  0  0
  -11.9217   -2.7053    1.9524 C   0  0  0  0  0  0  0  0  0  0  0  0
  -12.0546   -3.2508    0.9503 N   0  0  0  0  0  0  0  0  0  0  0  0
    7.1310   -2.9720   -4.0697 H   0  0  0  0  0  0  0  0  0  0  0  0
    8.7873    0.2922    0.9557 H   0  0  0  0  0  0  0  0  0  0  0  0
   12.0752   -1.7938   -2.2838 H   0  0  0  0  0  0  0  0  0  0  0  0
   13.5126   -1.3918    0.8104 H   0  0  0  0  0  0  0  0  0  0  0  0
   14.8079    0.3745   -0.3735 H   0  0  0  0  0  0  0  0  0  0  0  0
   13.0745    1.7870   -1.7279 H   0  0  0  0  0  0  0  0  0  0  0  0
   11.3798    2.8955   -0.0086 H   0  0  0  0  0  0  0  0  0  0  0  0
   12.0693    2.1647    2.4066 H   0  0  0  0  0  0  0  0  0  0  0  0
   14.3556    0.7526    2.2537 H   0  0  0  0  0  0  0  0  0  0  0  0
   14.5176    2.3125    1.4086 H   0  0  0  0  0  0  0  0  0  0  0  0
   11.8670   -0.3162    2.4817 H   0  0  0  0  0  0  0  0  0  0  0  0
    5.1337   -4.1315   -3.8704 H   0  0  0  0  0  0  0  0  0  0  0  0
    2.7086   -4.1773   -3.5170 H   0  0  0  0  0  0  0  0  0  0  0  0
    5.3472   -0.0458   -2.5839 H   0  0  0  0  0  0  0  0  0  0  0  0
    3.9696    1.3487   -1.2427 H   0  0  0  0  0  0  0  0  0  0  0  0
    2.2508    1.8027   -1.0797 H   0  0  0  0  0  0  0  0  0  0  0  0
    3.8085    1.8507   -3.7129 H   0  0  0  0  0  0  0  0  0  0  0  0
    2.1255    2.3384   -3.4801 H   0  0  0  0  0  0  0  0  0  0  0  0
    3.4255    3.2680   -2.7280 H   0  0  0  0  0  0  0  0  0  0  0  0
   -1.9526    4.7049    0.1576 H   0  0  0  0  0  0  0  0  0  0  0  0
   -0.1673    4.6477    0.0559 H   0  0  0  0  0  0  0  0  0  0  0  0
   -1.0796    6.2703   -1.6043 H   0  0  0  0  0  0  0  0  0  0  0  0
   -0.3095    4.9039   -2.4210 H   0  0  0  0  0  0  0  0  0  0  0  0
   -2.0730    4.9937   -2.3171 H   0  0  0  0  0  0  0  0  0  0  0  0
    0.0430   -4.2687   -3.0207 H   0  0  0  0  0  0  0  0  0  0  0  0
   -1.4971   -3.3899   -3.1978 H   0  0  0  0  0  0  0  0  0  0  0  0
    0.9897   -2.8871   -4.8858 H   0  0  0  0  0  0  0  0  0  0  0  0
   -0.5342   -2.0043   -5.0017 H   0  0  0  0  0  0  0  0  0  0  0  0
   -0.4776   -3.7260   -5.3976 H   0  0  0  0  0  0  0  0  0  0  0  0
   -2.9525   -4.0808    0.0347 H   0  0  0  0  0  0  0  0  0  0  0  0
   -1.5961   -3.9423   -1.0869 H   0  0  0  0  0  0  0  0  0  0  0  0
   -3.1881   -4.4046   -3.0071 H   0  0  0  0  0  0  0  0  0  0  0  0
   -4.5273   -4.4109   -1.8752 H   0  0  0  0  0  0  0  0  0  0  0  0
   -3.2928   -5.6732   -1.7868 H   0  0  0  0  0  0  0  0  0  0  0  0
   -6.3177    1.7813    0.1703 H   0  0  0  0  0  0  0  0  0  0  0  0
   -4.5999    2.0737   -0.2129 H   0  0  0  0  0  0  0  0  0  0  0  0
   -5.6580    1.1663    2.5156 H   0  0  0  0  0  0  0  0  0  0  0  0
   -5.1271    2.8021    2.1055 H   0  0  0  0  0  0  0  0  0  0  0  0
   -3.9650    1.4727    2.1045 H   0  0  0  0  0  0  0  0  0  0  0  0
   -5.5936   -4.3370    0.0376 H   0  0  0  0  0  0  0  0  0  0  0  0
   -7.7477   -4.2332    1.1793 H   0  0  0  0  0  0  0  0  0  0  0  0
   -7.5914    0.0494    1.3172 H   0  0  0  0  0  0  0  0  0  0  0  0
   -9.6311   -3.0063    1.8860 H   0  0  0  0  0  0  0  0  0  0  0  0
   -8.2247    1.3814    6.0889 H   0  0  0  0  0  0  0  0  0  0  0  0
   -9.9134    1.7211    7.8796 H   0  0  0  0  0  0  0  0  0  0  0  0
  -12.1417   -0.0602    8.9104 H   0  0  0  0  0  0  0  0  0  0  0  0
  -13.3735    0.4230    7.7466 H   0  0  0  0  0  0  0  0  0  0  0  0
  -12.3172    1.6395    8.4857 H   0  0  0  0  0  0  0  0  0  0  0  0
  -12.6344   -0.8962    5.8881 H   0  0  0  0  0  0  0  0  0  0  0  0
  1  2  2  0  0  0  0
  2  3  1  0  0  0  0
  3  4  2  0  0  0  0
  3  5  1  0  0  0  0
  5  6  2  0  0  0  0
  6  7  1  0  0  0  0
  7  8  2  0  0  0  0
  8  9  1  0  0  0  0
  9 10  2  0  0  0  0
 10 11  1  0  0  0  0
 11 12  2  0  0  0  0
 12 13  1  0  0  0  0
 13 14  3  0  0  0  0
 12 15  1  0  0  0  0
 15 16  3  0  0  0  0
  8 17  1  0  0  0  0
 17 18  1  0  0  0  0
 18 19  1  0  0  0  0
 19 20  2  0  0  0  0
 20 21  1  0  0  0  0
 21 22  1  0  0  0  0
 21 23  1  0  0  0  0
  1 24  1  0  0  0  0
 24 25  2  0  0  0  0
 25 26  1  0  0  0  0
 26 27  2  0  0  0  0
 27 28  1  0  0  0  0
 28 29  2  0  0  0  0
 29 30  1  0  0  0  0
 30 31  1  0  0  0  0
 31 32  2  0  0  0  0
 30 33  1  0  0  0  0
 33 34  1  0  0  0  0
 29 35  1  0  0  0  0
 35 36  1  0  0  0  0
 36 37  1  0  0  0  0
 37 38  2  0  0  0  0
 38 39  1  0  0  0  0
 39 40  1  0  0  0  0
 40 41  1  0  0  0  0
 39 42  1  0  0  0  0
 37 43  1  0  0  0  0
 43 44  2  0  0  0  0
 44 45  1  0  0  0  0
 45 46  1  0  0  0  0
 46 47  1  0  0  0  0
 47 48  1  0  0  0  0
 44 49  1  0  0  0  0
 49 50  1  0  0  0  0
 50 51  1  0  0  0  0
 49 52  1  0  0  0  0
 52 53  2  0  0  0  0
 53 54  1  0  0  0  0
 54 55  1  0  0  0  0
 55 56  1  0  0  0  0
 54 57  1  0  0  0  0
 57 58  2  0  0  0  0
 58 59  1  0  0  0  0
 59 60  2  0  0  0  0
 60 61  1  0  0  0  0
 61 62  2  0  0  0  0
 61 63  1  0  0  0  0
 63 64  2  0  0  0  0
 64 65  1  0  0  0  0
 65 66  2  0  0  0  0
 65 67  1  0  0  0  0
 67 68  2  0  0  0  0
 68 69  1  0  0  0  0
 69 70  2  0  0  0  0
 70 71  1  0  0  0  0
 70 72  1  0  0  0  0
 72 73  2  0  0  0  0
 73 74  1  0  0  0  0
 74 75  2  0  0  0  0
 75 76  1  0  0  0  0
 76 77  3  0  0  0  0
 75 78  1  0  0  0  0
 78 79  3  0  0  0  0
 11  2  1  0  0  0  0
 23 17  1  0  0  0  0
 32 24  1  0  0  0  0
 45 35  2  0  0  0  0
 58 52  1  0  0  0  0
 74 64  1  0  0  0  0
 10  5  1  0  0  0  0
 22 18  1  0  0  0  0
 31 27  1  0  0  0  0
 42 36  2  0  0  0  0
 53 43  1  0  0  0  0
 62 57  1  0  0  0  0
 73 67  1  0  0  0  0
 23  7  1  0  0  0  0
 46 28  1  0  0  0  0
  1 80  1  0  0  0  0
  6 81  1  0  0  0  0
  9 82  1  0  0  0  0
 17 83  1  0  0  0  0
 18 84  1  0  0  0  0
 19 85  1  0  0  0  0
 20 86  1  0  0  0  0
 21 87  1  0  0  0  0
 22 88  1  0  0  0  0
 22 89  1  0  0  0  0
 23 90  1  0  0  0  0
 25 91  1  0  0  0  0
 26 92  1  0  0  0  0
 32 93  1  0  0  0  0
 33 94  1  0  0  0  0
 33 95  1  0  0  0  0
 34 96  1  0  0  0  0
 34 97  1  0  0  0  0
 34 98  1  0  0  0  0
 40 99  1  0  0  0  0
 40100  1  0  0  0  0
 41101  1  0  0  0  0
 41102  1  0  0  0  0
 41103  1  0  0  0  0
 47104  1  0  0  0  0
 47105  1  0  0  0  0
 48106  1  0  0  0  0
 48107  1  0  0  0  0
 48108  1  0  0  0  0
 50109  1  0  0  0  0
 50110  1  0  0  0  0
 51111  1  0  0  0  0
 51112  1  0  0  0  0
 51113  1  0  0  0  0
 55114  1  0  0  0  0
 55115  1  0  0  0  0
 56116  1  0  0  0  0
 56117  1  0  0  0  0
 56118  1  0  0  0  0
 59119  1  0  0  0  0
 60120  1  0  0  0  0
 62121  1  0  0  0  0
 63122  1  0  0  0  0
 68123  1  0  0  0  0
 69124  1  0  0  0  0
 71125  1  0  0  0  0
 71126  1  0  0  0  0
 71127  1  0  0  0  0
 72128  1  0  0  0  0
M  END
