
  xtb     02112207003D
 energy: -193.396525136790 gnorm: 0.000625600622 xtb: 6.4.1 (unknown)
110124  0     0  0            999 V2000
   -0.4026   -6.3024    2.3365 C   0  0  0  0  0  0  0  0  0  0  0  0
    0.7790   -6.3062    3.0350 C   0  0  0  0  0  0  0  0  0  0  0  0
    1.7258   -5.1942    3.1459 C   0  0  0  0  0  0  0  0  0  0  0  0
    1.6347   -4.0863    2.6414 O   0  0  0  0  0  0  0  0  0  0  0  0
    2.8304   -5.6709    3.9945 C   0  0  0  0  0  0  0  0  0  0  0  0
    3.9610   -4.9546    4.3816 C   0  0  0  0  0  0  0  0  0  0  0  0
    4.8251   -5.6636    5.1811 C   0  0  0  0  0  0  0  0  0  0  0  0
    4.5792   -6.9864    5.5712 C   0  0  0  0  0  0  0  0  0  0  0  0
    3.4664   -7.7029    5.1994 C   0  0  0  0  0  0  0  0  0  0  0  0
    2.5762   -7.0025    4.3798 C   0  0  0  0  0  0  0  0  0  0  0  0
    1.3066   -7.4255    3.7892 C   0  0  0  0  0  0  0  0  0  0  0  0
    0.7482   -8.6717    3.9275 C   0  0  0  0  0  0  0  0  0  0  0  0
   -0.4700   -9.1000    3.3610 C   0  0  0  0  0  0  0  0  0  0  0  0
   -1.4490   -9.5312    2.9402 N   0  0  0  0  0  0  0  0  0  0  0  0
    1.3241   -9.7298    4.6612 C   0  0  0  0  0  0  0  0  0  0  0  0
    1.7262  -10.6400    5.2344 N   0  0  0  0  0  0  0  0  0  0  0  0
    5.8590   -7.0758    6.3641 C   0  0  0  0  0  0  0  0  0  0  0  0
    7.0239   -7.8474    5.7084 C   0  0  0  0  0  0  0  0  0  0  0  0
    8.2430   -7.3689    6.4632 C   0  0  0  0  0  0  0  0  0  0  0  0
    8.4774   -6.1152    6.0974 C   0  0  0  0  0  0  0  0  0  0  0  0
    7.4209   -5.7254    5.0885 C   0  0  0  0  0  0  0  0  0  0  0  0
    7.2079   -7.0769    4.3945 C   0  0  0  0  0  0  0  0  0  0  0  0
    6.1334   -5.6000    5.9304 C   0  0  0  0  0  0  0  0  0  0  0  0
   -1.0052   -5.3100    1.5560 C   0  0  0  0  0  0  0  0  0  0  0  0
   -2.2302   -5.4986    0.8935 C   0  0  0  0  0  0  0  0  0  0  0  0
   -3.0889   -6.7183    0.9725 C   0  0  0  0  0  0  0  0  0  0  0  0
   -3.9590   -6.6909    2.2321 C   0  0  0  0  0  0  0  0  0  0  0  0
   -2.5931   -4.3707    0.1694 C   0  0  0  0  0  0  0  0  0  0  0  0
   -3.9721   -4.0232   -0.8590 S   0  0  0  0  0  0  0  0  0  0  0  0
   -3.3007   -2.4620   -1.1742 C   0  0  0  0  0  0  0  0  0  0  0  0
   -3.5774   -1.3266   -1.9460 C   0  0  0  0  0  0  0  0  0  0  0  0
   -4.6041   -1.0988   -2.8937 C   0  0  0  0  0  0  0  0  0  0  0  0
   -4.5662    0.1157   -3.6625 C   0  0  0  0  0  0  0  0  0  0  0  0
   -5.5192    0.2335   -4.5659 N   0  0  0  0  0  0  0  0  0  0  0  0
   -6.5430   -1.2012   -4.4957 Se  0  0  0  0  0  2  0  0  0  0  0  0
   -5.5904   -1.9195   -3.1965 N   0  0  0  0  0  0  0  0  0  0  0  0
   -3.5702    1.0741   -3.3568 C   0  0  0  0  0  0  0  0  0  0  0  0
   -3.3760    2.3651   -3.8644 C   0  0  0  0  0  0  0  0  0  0  0  0
   -4.0474    3.4114   -5.0649 S   0  0  0  0  0  0  0  0  0  0  0  0
   -2.9111    4.6528   -4.5694 C   0  0  0  0  0  0  0  0  0  0  0  0
   -2.6894    5.9486   -5.0193 C   0  0  0  0  0  0  0  0  0  0  0  0
   -3.5009    6.5776   -6.1044 C   0  0  0  0  0  0  0  0  0  0  0  0
   -4.6491    7.4038   -5.5186 C   0  0  0  0  0  0  0  0  0  0  0  0
   -1.6649    6.5742   -4.2913 C   0  0  0  0  0  0  0  0  0  0  0  0
   -0.9836    5.5160   -3.0557 S   0  0  0  0  0  0  0  0  0  0  0  0
   -2.0651    4.2566   -3.5204 C   0  0  0  0  0  0  0  0  0  0  0  0
   -2.3329    2.9408   -3.1294 C   0  0  0  0  0  0  0  0  0  0  0  0
   -1.8576    2.0424   -2.2125 N   0  0  0  0  0  0  0  0  0  0  0  0
   -2.5929    0.8779   -2.3371 C   0  0  0  0  0  0  0  0  0  0  0  0
   -2.5312   -0.3898   -1.6967 C   0  0  0  0  0  0  0  0  0  0  0  0
   -1.6333   -0.9679   -0.8187 N   0  0  0  0  0  0  0  0  0  0  0  0
   -2.0917   -2.2204   -0.5107 C   0  0  0  0  0  0  0  0  0  0  0  0
   -1.6732   -3.3121    0.2561 C   0  0  0  0  0  0  0  0  0  0  0  0
   -0.3281   -3.7076    1.2593 S   0  0  0  0  0  0  0  0  0  0  0  0
   -0.2659   -0.6174   -0.5051 C   0  0  0  0  0  0  0  0  0  0  0  0
    0.6059   -0.5986   -1.7580 C   0  0  0  0  0  0  0  0  0  0  0  0
   -1.0129    2.5085   -1.1350 C   0  0  0  0  0  0  0  0  0  0  0  0
   -1.7663    2.5337    0.1924 C   0  0  0  0  0  0  0  0  0  0  0  0
   -1.2458    7.8873   -4.5390 C   0  0  0  0  0  0  0  0  0  0  0  0
   -0.3003    8.6659   -3.9253 C   0  0  0  0  0  0  0  0  0  0  0  0
    0.5439    8.2834   -2.7757 C   0  0  0  0  0  0  0  0  0  0  0  0
    0.5665    7.2131   -2.1925 O   0  0  0  0  0  0  0  0  0  0  0  0
    1.3407    9.4690   -2.4991 C   0  0  0  0  0  0  0  0  0  0  0  0
    2.5432    9.9198   -1.3690 S   0  0  0  0  0  0  0  0  0  0  0  0
    2.6492   11.5029   -2.0921 C   0  0  0  0  0  0  0  0  0  0  0  0
    3.5917   12.5068   -1.5385 C   0  0  0  0  0  0  0  0  0  0  0  0
    1.7955   11.6568   -3.1491 C   0  0  0  0  0  0  0  0  0  0  0  0
    1.0419   10.4927   -3.3867 C   0  0  0  0  0  0  0  0  0  0  0  0
    0.0195   10.0308   -4.3061 C   0  0  0  0  0  0  0  0  0  0  0  0
   -0.5016   10.7847   -5.3269 C   0  0  0  0  0  0  0  0  0  0  0  0
   -1.4889   10.3742   -6.2428 C   0  0  0  0  0  0  0  0  0  0  0  0
   -2.2862   10.1042   -7.0253 N   0  0  0  0  0  0  0  0  0  0  0  0
   -0.0693   12.1063   -5.5626 C   0  0  0  0  0  0  0  0  0  0  0  0
    0.2669   13.1837   -5.7716 N   0  0  0  0  0  0  0  0  0  0  0  0
   -0.9794   -7.2158    2.3798 H   0  0  0  0  0  0  0  0  0  0  0  0
    4.1064   -3.9344    4.0622 H   0  0  0  0  0  0  0  0  0  0  0  0
    3.2921   -8.7175    5.5153 H   0  0  0  0  0  0  0  0  0  0  0  0
    5.7466   -7.2957    7.4240 H   0  0  0  0  0  0  0  0  0  0  0  0
    6.8781   -8.9221    5.6434 H   0  0  0  0  0  0  0  0  0  0  0  0
    8.7585   -7.9534    7.2025 H   0  0  0  0  0  0  0  0  0  0  0  0
    9.2277   -5.4430    6.4705 H   0  0  0  0  0  0  0  0  0  0  0  0
    7.6396   -4.8672    4.4587 H   0  0  0  0  0  0  0  0  0  0  0  0
    8.0910   -7.4023    3.8471 H   0  0  0  0  0  0  0  0  0  0  0  0
    6.3408   -7.1065    3.7372 H   0  0  0  0  0  0  0  0  0  0  0  0
    6.2016   -4.8350    6.7017 H   0  0  0  0  0  0  0  0  0  0  0  0
   -3.7360   -6.7360    0.0933 H   0  0  0  0  0  0  0  0  0  0  0  0
   -2.4845   -7.6266    0.9704 H   0  0  0  0  0  0  0  0  0  0  0  0
   -4.5946   -5.8085    2.2336 H   0  0  0  0  0  0  0  0  0  0  0  0
   -3.3413   -6.6763    3.1270 H   0  0  0  0  0  0  0  0  0  0  0  0
   -4.5883   -7.5757    2.2633 H   0  0  0  0  0  0  0  0  0  0  0  0
   -3.9162    5.7805   -6.7241 H   0  0  0  0  0  0  0  0  0  0  0  0
   -2.8821    7.2154   -6.7374 H   0  0  0  0  0  0  0  0  0  0  0  0
   -5.2306    7.8467   -6.3221 H   0  0  0  0  0  0  0  0  0  0  0  0
   -4.2663    8.2037   -4.8891 H   0  0  0  0  0  0  0  0  0  0  0  0
   -5.3020    6.7726   -4.9204 H   0  0  0  0  0  0  0  0  0  0  0  0
   -0.2253    0.3316    0.0291 H   0  0  0  0  0  0  0  0  0  0  0  0
    0.1030   -1.3867    0.1775 H   0  0  0  0  0  0  0  0  0  0  0  0
    0.2273    0.1071   -2.4941 H   0  0  0  0  0  0  0  0  0  0  0  0
    0.6221   -1.5865   -2.2122 H   0  0  0  0  0  0  0  0  0  0  0  0
    1.6236   -0.3232   -1.4955 H   0  0  0  0  0  0  0  0  0  0  0  0
   -0.7098    3.5254   -1.3954 H   0  0  0  0  0  0  0  0  0  0  0  0
   -0.1042    1.9098   -1.0716 H   0  0  0  0  0  0  0  0  0  0  0  0
   -2.6089    3.2180    0.1269 H   0  0  0  0  0  0  0  0  0  0  0  0
   -2.1489    1.5487    0.4503 H   0  0  0  0  0  0  0  0  0  0  0  0
   -1.1061    2.8747    0.9852 H   0  0  0  0  0  0  0  0  0  0  0  0
   -1.7756    8.3556   -5.3579 H   0  0  0  0  0  0  0  0  0  0  0  0
    3.3041   12.7826   -0.5240 H   0  0  0  0  0  0  0  0  0  0  0  0
    3.5902   13.4004   -2.1574 H   0  0  0  0  0  0  0  0  0  0  0  0
    4.6030   12.1044   -1.4980 H   0  0  0  0  0  0  0  0  0  0  0  0
    1.7223   12.5650   -3.7183 H   0  0  0  0  0  0  0  0  0  0  0  0
  1  2  2  0  0  0  0
  2  3  1  0  0  0  0
  3  4  2  0  0  0  0
  3  5  1  0  0  0  0
  5  6  2  0  0  0  0
  6  7  1  0  0  0  0
  7  8  2  0  0  0  0
  8  9  1  0  0  0  0
  9 10  2  0  0  0  0
 10 11  1  0  0  0  0
 11 12  2  0  0  0  0
 12 13  1  0  0  0  0
 13 14  3  0  0  0  0
 12 15  1  0  0  0  0
 15 16  3  0  0  0  0
  8 17  1  0  0  0  0
 17 18  1  0  0  0  0
 18 19  1  0  0  0  0
 19 20  2  0  0  0  0
 20 21  1  0  0  0  0
 21 22  1  0  0  0  0
 21 23  1  0  0  0  0
  1 24  1  0  0  0  0
 24 25  2  0  0  0  0
 25 26  1  0  0  0  0
 26 27  1  0  0  0  0
 25 28  1  0  0  0  0
 28 29  1  0  0  0  0
 29 30  1  0  0  0  0
 30 31  1  0  0  0  0
 31 32  1  0  0  0  0
 32 33  1  0  0  0  0
 33 34  2  0  0  0  0
 34 35  1  0  0  0  0
 35 36  1  0  0  0  0
 33 37  1  0  0  0  0
 37 38  1  0  0  0  0
 38 39  1  0  0  0  0
 39 40  1  0  0  0  0
 40 41  1  0  0  0  0
 41 42  1  0  0  0  0
 42 43  1  0  0  0  0
 41 44  2  0  0  0  0
 44 45  1  0  0  0  0
 45 46  1  0  0  0  0
 46 47  1  0  0  0  0
 47 48  1  0  0  0  0
 48 49  1  0  0  0  0
 49 50  1  0  0  0  0
 50 51  1  0  0  0  0
 51 52  1  0  0  0  0
 52 53  1  0  0  0  0
 53 54  1  0  0  0  0
 51 55  1  0  0  0  0
 55 56  1  0  0  0  0
 48 57  1  0  0  0  0
 57 58  1  0  0  0  0
 44 59  1  0  0  0  0
 59 60  2  0  0  0  0
 60 61  1  0  0  0  0
 61 62  2  0  0  0  0
 61 63  1  0  0  0  0
 63 64  1  0  0  0  0
 64 65  1  0  0  0  0
 65 66  1  0  0  0  0
 65 67  2  0  0  0  0
 67 68  1  0  0  0  0
 68 69  1  0  0  0  0
 69 70  2  0  0  0  0
 70 71  1  0  0  0  0
 71 72  3  0  0  0  0
 70 73  1  0  0  0  0
 73 74  3  0  0  0  0
 11  2  1  0  0  0  0
 23 17  1  0  0  0  0
 54 24  1  0  0  0  0
 69 60  1  0  0  0  0
 10  5  1  0  0  0  0
 22 18  1  0  0  0  0
 53 28  2  0  0  0  0
 68 63  2  0  0  0  0
 23  7  1  0  0  0  0
 52 30  2  0  0  0  0
 50 31  2  0  0  0  0
 36 32  2  0  0  0  0
 49 37  2  0  0  0  0
 47 38  2  0  0  0  0
 46 40  2  0  0  0  0
  1 75  1  0  0  0  0
  6 76  1  0  0  0  0
  9 77  1  0  0  0  0
 17 78  1  0  0  0  0
 18 79  1  0  0  0  0
 19 80  1  0  0  0  0
 20 81  1  0  0  0  0
 21 82  1  0  0  0  0
 22 83  1  0  0  0  0
 22 84  1  0  0  0  0
 23 85  1  0  0  0  0
 26 86  1  0  0  0  0
 26 87  1  0  0  0  0
 27 88  1  0  0  0  0
 27 89  1  0  0  0  0
 27 90  1  0  0  0  0
 42 91  1  0  0  0  0
 42 92  1  0  0  0  0
 43 93  1  0  0  0  0
 43 94  1  0  0  0  0
 43 95  1  0  0  0  0
 55 96  1  0  0  0  0
 55 97  1  0  0  0  0
 56 98  1  0  0  0  0
 56 99  1  0  0  0  0
 56100  1  0  0  0  0
 57101  1  0  0  0  0
 57102  1  0  0  0  0
 58103  1  0  0  0  0
 58104  1  0  0  0  0
 58105  1  0  0  0  0
 59106  1  0  0  0  0
 66107  1  0  0  0  0
 66108  1  0  0  0  0
 66109  1  0  0  0  0
 67110  1  0  0  0  0
M  END
