145

C          7.20320       -1.07120        1.69260
C          7.65950       -0.85020        2.96860
C          6.85960       -0.40650        4.11280
O          5.69120       -0.05400        4.11510
C          7.74220       -0.47450        5.28880
C          7.39760       -0.20280        6.61090
C          8.42790       -0.37760        7.50310
C          9.70670       -0.79230        7.10890
C         10.05910       -1.06310        5.80760
C          9.02550       -0.89070        4.88190
C          9.01090       -1.09300        3.43310
C         10.10290       -1.42340        2.67040
C         10.11140       -1.58430        1.26960
N         10.20770       -1.72800        0.13310
C         11.40120       -1.62960        3.18140
N         12.48320       -1.81010        3.52120
C         10.23820       -0.76370        8.52070
C         11.12120        0.44270        8.90350
C         11.08580        0.45080       10.41480
C          9.87450        0.84320       10.78820
C          9.07070        1.10700        9.53540
C         10.18250        1.62050        8.61140
C          8.81170       -0.30140        8.95990
C          5.93050       -0.90810        1.13450
C          5.62330       -1.25470       -0.19290
C          6.58790       -1.77550       -1.20770
C          7.35720       -0.62740       -1.86670
C          4.28840       -1.00770       -0.48630
S          3.32530       -1.26010       -1.93210
C          1.95010       -0.65080       -1.08110
C          0.59190       -0.38850       -1.31090
C         -0.16660       -0.53940       -2.49810
N          0.35120       -1.10460       -3.58680
C         -0.39070       -1.17330       -4.67960
C          0.16130       -1.96300       -5.75130
C         -0.46140       -2.74360       -6.68890
C          0.44450       -3.44300       -7.50440
C          1.75100       -3.20840       -7.18850
C          2.96940       -3.73480       -7.86550
C          3.67480       -2.63720       -8.66490
S          1.88730       -2.12040       -5.85040
C         -1.66410       -0.52400       -4.72990
C         -2.41550       -0.27620       -5.93820
C         -3.76940       -0.08470       -6.01410
C         -4.21240        0.22010       -7.31320
C         -3.20190        0.29580       -8.22480
C         -3.28960        0.55280       -9.68930
C         -3.07880       -0.73710      -10.48590
S         -1.66820       -0.03280       -7.48830
N         -2.21610       -0.05730       -3.62130
C         -1.51220       -0.10310       -2.49110
C         -2.07210        0.30000       -1.25300
C         -3.39960        0.61880       -0.93730
S         -4.93120        0.75480       -1.72050
C         -5.68050        1.07840       -0.17000
C         -7.00840        1.27890        0.22520
C         -8.15530        1.43910       -0.71400
C         -7.84530        2.39560       -1.86360
C         -7.09870        1.43370        1.60820
S         -5.51630        1.41630        2.39200
C         -4.75230        1.09020        0.88530
C         -3.45400        0.83110        0.44480
N         -2.20800        0.67010        0.99010
C         -2.06290        0.56350        2.42310
C         -2.00310        1.93450        3.09510
C         -1.33350        0.36390       -0.03510
C          0.05870        0.11990       -0.09020
N          1.08100        0.19370        0.84340
C          2.22150       -0.27050        0.23710
C          3.55900       -0.46820        0.58750
S          4.52900       -0.26840        1.99610
C          1.23960        1.07440        1.98130
C          1.48050        2.51230        1.52520
C         -8.20590        1.64190        2.44900
C         -9.46090        1.10510        2.30350
C         -9.75330       -0.12660        1.54190
O         -9.01320       -0.74340        0.80350
C        -11.11000       -0.53550        1.96590
C        -11.82080       -1.63760        1.59040
C        -13.10280       -1.84980        2.14640
C        -13.87650       -2.97320        1.79710
C        -15.10910       -3.16100        2.35730
F        -15.84250       -4.23360        2.02600
C        -15.62160       -2.23480        3.28660
F        -16.83340       -2.44460        3.81990
C        -14.89500       -1.13380        3.64410
C        -13.62020       -0.91210        3.08600
C        -12.85910        0.22130        3.45490
C        -11.62060        0.40690        2.90130
C        -10.62010        1.45190        3.09280
C        -10.78440        2.60250        3.82190
C         -9.83270        3.64100        3.88740
N         -9.11060        4.53080        3.96580
C        -11.94350        2.90710        4.56270
N        -12.86080        3.20040        5.18810
H          7.92950       -1.45940        0.99160
H          6.39740        0.10720        6.87020
H         11.04530       -1.39060        5.52480
H         10.62000       -1.70870        8.90220
H         12.10200        0.45510        8.43630
H         11.90050        0.12720       11.03570
H          9.47510        0.91280       11.78300
H          8.18360        1.72530        9.64440
H         10.59450        2.56920        8.95120
H          9.88800        1.70460        7.56690
H          8.24250       -0.93880        9.63430
H          7.29540       -2.47270       -0.75640
H          6.02040       -2.30980       -1.97240
H          7.94200       -0.08260       -1.12970
H          6.66730        0.06290       -2.34640
H          8.03610       -1.02250       -2.61690
H         -1.53000       -2.83320       -6.77200
H          0.13870       -4.10220       -8.29790
H          3.66120       -4.13270       -7.11940
H          2.67910       -4.54860       -8.53320
H          3.97980       -1.83000       -8.00330
H          4.55690       -3.03710       -9.15850
H          3.00630       -2.23090       -9.42040
H         -4.40870       -0.17760       -5.15530
H         -5.24490        0.38560       -7.56590
H         -4.27250        0.97040       -9.91700
H         -2.52970        1.28120       -9.98180
H         -3.83490       -1.47270      -10.22100
H         -3.14550       -0.53760      -11.55240
H         -2.09820       -1.15510      -10.26920
H         -9.01990        1.80870       -0.15960
H         -8.41590        0.45380       -1.11100
H         -8.73880        2.54110       -2.46530
H         -7.52780        3.36230       -1.47860
H         -7.06190        2.00210       -2.50480
H         -2.93990        0.02730        2.80260
H         -1.18760       -0.04790        2.64580
H         -1.22260        2.55540        2.66390
H         -2.95290        2.44820        2.97050
H         -1.81530        1.81720        4.15870
H          2.10840        0.71530        2.53900
H          0.37710        1.03150        2.63730
H          0.63930        2.87350        0.93620
H          2.37730        2.56780        0.91280
H          1.61130        3.15770        2.38920
H         -8.00460        2.22290        3.34240
H        -11.41060       -2.33980        0.88070
H        -13.49780       -3.69220        1.08760
H        -15.30240       -0.43380        4.35670
H        -13.27200        0.90950        4.17480
