108

C          3.72990       -3.93030       -0.88590
C          3.61140       -3.65100       -2.21630
C          3.03850       -2.39120       -2.75600
O          2.92730       -1.31640       -2.20500
C          2.51110       -2.74440       -4.08660
C          1.73800       -1.92950       -4.90940
C          1.28980       -2.55250       -6.04850
C          1.58900       -3.88800       -6.35100
C          2.37150       -4.69580       -5.55910
C          2.83340       -4.08190       -4.39150
C          3.61620       -4.62810       -3.28790
C          4.28680       -5.82200       -3.27120
C          5.10250       -6.23490       -2.19670
N          5.79530       -6.60420       -1.35880
C          4.28690       -6.74660       -4.33450
N          4.31600       -7.53500       -5.16870
C          0.75190       -3.87160       -7.60590
C         -0.64440       -4.54130       -7.54320
C         -1.09560       -4.46980       -6.10540
C         -1.36870       -3.20170       -5.82860
C         -1.10590       -2.39270       -7.07480
C         -1.49980       -3.41740       -8.15010
C          0.43020       -2.38030       -7.27490
C          3.55940       -2.98430        0.16420
C          2.59990       -3.14190        1.18090
C          2.45470       -1.88470        1.74860
C          3.40090       -1.02510        1.14700
N          4.05610       -1.70070        0.18070
C          5.21380       -1.21850       -0.52820
C          6.43280       -1.18260        0.38920
C          3.20420        0.26270        1.68450
C          3.87540        1.50120        1.56160
C          3.31880        2.67360        2.18970
N          4.07860        3.74270        2.02820
S          5.38300        3.32740        1.16370
N          5.02350        1.75950        0.95560
C          2.02630        2.59350        2.76100
C          1.06300        3.57270        3.03940
S          0.90320        5.29710        3.00160
C         -0.83900        5.11020        3.13200
C         -1.88590        6.01050        3.01680
C         -1.67600        7.47700        2.82600
C         -1.58180        7.82450        1.33750
C         -3.13090        5.34840        2.98910
S         -2.96000        3.60400        3.20890
C         -1.24740        3.76930        3.26070
C         -0.15500        2.90300        3.24120
N          0.04090        1.54980        3.17610
C          1.36530        1.33580        2.87320
C          2.04630        0.15570        2.50360
N          1.63870       -1.16750        2.59340
C          1.01170       -1.77870        3.74500
C          2.03620       -2.51660        4.60640
C         -1.08420        0.64610        3.08530
C         -1.76780        0.44590        4.43540
C         -4.32830        6.00070        2.69750
C         -5.58010        5.49910        2.41160
C         -5.96280        4.08660        2.42480
O         -5.30490        3.14210        2.82250
C         -7.33040        4.03390        1.86800
C         -8.14860        2.95460        1.59300
F         -7.74680        1.70240        1.84130
C         -9.40620        3.15990        1.03860
C         -9.82990        4.44910        0.76930
C         -9.02570        5.55030        1.04030
C         -7.77260        5.34050        1.59060
C         -6.70770        6.27900        1.95760
C         -6.80140        7.64620        1.86960
C         -5.79250        8.56430        2.22610
N         -5.02450        9.37760        2.49070
C         -7.94220        8.33750        1.41300
N         -8.83170        8.96690        1.05010
H          3.77200       -4.96900       -0.57860
H          1.51920       -0.91040       -4.63150
H          2.59170       -5.72320       -5.79860
H          1.27340       -4.08900       -8.53560
H         -0.69630       -5.51960       -8.01330
H         -1.11540       -5.31390       -5.44110
H         -1.66160       -2.77470       -4.88720
H         -1.57570       -1.41360       -7.11920
H         -2.56430       -3.64730       -8.14190
H         -1.19270       -3.13180       -9.15510
H          0.75140       -1.62020       -7.98410
H          2.03510       -4.03410        1.36530
H          5.40070       -1.87730       -1.37690
H          4.99510       -0.21350       -0.89430
H          6.62770       -2.16900        0.80550
H          7.30450       -0.86210       -0.17350
H          6.26620       -0.47660        1.19790
H         -0.73840        7.75260        3.31280
H         -2.48190        8.05140        3.28450
H         -1.41920        8.89180        1.21820
H         -0.75390        7.29060        0.87700
H         -2.49980        7.55550        0.82000
H          0.24290       -2.48040        3.40400
H          0.54760       -0.99770        4.34420
H          2.80600       -1.82810        4.94850
H          2.51160       -3.31320        4.04060
H          1.54370       -2.94890        5.47320
H         -0.74580       -0.29810        2.66060
H         -1.81090        1.08740        2.39410
H         -2.18460        1.38630        4.78520
H         -1.07360        0.07760        5.18750
H         -2.57990       -0.26700        4.32890
H         -4.22360        7.07380        2.61440
H        -10.03210        2.30820        0.82400
H        -10.80610        4.60420        0.33630
H         -9.38400        6.54050        0.81500
