108

C          0.81280        2.43840        5.43860
C          1.68870        1.99890        6.39930
C          2.80880        1.04300        6.28270
O          3.28360        0.53460        5.28500
C          3.27850        0.79790        7.66000
C          4.28670       -0.08190        8.04780
C          4.50090       -0.12360        9.40420
C          3.76850        0.65660       10.30870
C          2.77750        1.53390        9.93810
C          2.54120        1.58910        8.56050
C          1.58080        2.38210        7.79680
C          0.76230        3.34610        8.33360
C         -0.13580        4.17020        7.62540
N         -0.88510        4.89120        7.13360
C          0.71400        3.68270        9.70260
N          0.60910        4.01380       10.79730
C          4.49660        0.09640       11.50540
C          3.74110       -0.96190       12.33690
C          4.83400       -1.66120       13.11240
C          5.52700       -2.40050       12.25580
C          4.91410       -2.21320       10.88670
C          3.44210       -2.03250       11.27940
C          5.31300       -0.77380       10.49670
C          0.72080        2.19970        4.05840
C          1.56470        1.48060        3.18670
C          0.98840        1.57380        1.93440
C         -0.18750        2.35050        2.05020
N         -0.33980        2.73920        3.32890
C         -1.48670        3.46150        3.82830
C         -2.51070        2.52070        4.46030
C         -0.76110        2.43630        0.76760
C         -1.86170        3.15250        0.24760
C         -2.16410        3.05390       -1.15380
N         -3.18660        3.81560       -1.50690
S         -3.73150        4.59270       -0.19840
N         -2.67970        3.98430        0.87710
C         -1.43330        2.14330       -1.94920
C         -1.63840        1.67050       -3.25180
S         -2.70390        1.94500       -4.58110
C         -1.96280        0.60610       -5.43080
C         -2.24170       -0.00630       -6.65790
C         -3.19750        0.52830       -7.66930
C         -3.03180        2.02850       -7.90280
C         -1.41570       -1.11200       -6.86090
S         -0.23790       -1.31610       -5.56170
C         -0.92330        0.00640       -4.69860
C         -0.73060        0.62170       -3.45960
N          0.05090        0.45690       -2.34480
C         -0.35480        1.38800       -1.40740
C          0.06860        1.64750       -0.08290
N          1.15450        1.16570        0.62950
C          2.47440        0.89390        0.10050
C          3.46990        1.99130        0.47480
C          0.81830       -0.75590       -2.15400
C          2.08690       -0.78730       -3.00430
C         -1.33590       -2.02730       -7.92410
C         -2.38020       -2.49720       -8.68220
C         -3.78900       -2.50850       -8.23520
O         -4.25250       -2.00880       -7.23260
C         -4.49760       -3.37190       -9.20620
C         -5.83280       -3.74300       -9.24750
Cl        -6.94990       -3.17120       -8.08090
C         -6.26520       -4.59170      -10.26360
C         -5.35520       -5.05110      -11.20090
Br        -5.96680       -6.21580      -12.56530
C         -4.01050       -4.69420      -11.17990
C         -3.59010       -3.84590      -10.17200
C         -2.26770       -3.29080       -9.88090
C         -1.14950       -3.42470      -10.66350
C          0.08010       -2.78240      -10.40550
N          1.09650       -2.26590      -10.26950
C         -1.09300       -4.19070      -11.84570
N         -0.98660       -4.80840      -12.80730
H          0.02710        3.07900        5.81180
H          4.82660       -0.66180        7.31560
H          2.22570        2.12580       10.64840
H          5.02890        0.82010       12.11960
H          2.90320       -0.57610       12.91110
H          5.01900       -1.50780       14.15940
H          6.40650       -2.98800       12.44410
H          5.14450       -2.96830       10.13980
H          3.01890       -2.93560       11.71630
H          2.80480       -1.68820       10.46690
H          6.39060       -0.63150       10.43900
H          2.45330        0.96660        3.48820
H         -1.16910        4.21730        4.55130
H         -1.94170        3.96530        2.97150
H         -2.87030        1.80790        3.72190
H         -3.35350        3.09790        4.82810
H         -2.07780        1.97000        5.29260
H         -4.21520        0.31650       -7.32850
H         -3.05040       -0.00140       -8.61260
H         -2.00540        2.25880       -8.18040
H         -3.28950        2.59870       -7.01520
H         -3.68620        2.34320       -8.71170
H          2.40550        0.85170       -0.98290
H          2.82740       -0.06880        0.48540
H          3.11050        2.95940        0.13190
H          4.42650        1.78670        0.00140
H          3.61710        2.03610        1.54940
H          1.04540       -0.86350       -1.09360
H          0.18430       -1.60050       -2.44800
H          2.65530       -1.68310       -2.77190
H          2.71720        0.08040       -2.82590
H          1.83440       -0.80670       -4.06060
H         -0.35160       -2.44620       -8.10130
H         -7.30080       -4.88780      -10.31440
H         -3.33600       -5.07970      -11.92670
