
  xtb     02102223523D
 energy: -255.020534869072 gnorm: 0.000958794143 xtb: 6.4.1 (unknown)
145162  0     0  0            999 V2000
   -2.6349    5.8731   -3.6410 C   0  0  0  0  0  0  0  0  0  0  0  0
   -1.7585    6.9276   -3.6912 C   0  0  0  0  0  0  0  0  0  0  0  0
   -0.4183    6.9720   -3.1016 C   0  0  0  0  0  0  0  0  0  0  0  0
    0.1245    6.1148   -2.4231 O   0  0  0  0  0  0  0  0  0  0  0  0
    0.1624    8.2686   -3.4871 C   0  0  0  0  0  0  0  0  0  0  0  0
    1.4352    8.7429   -3.1773 C   0  0  0  0  0  0  0  0  0  0  0  0
    1.7088    9.9865   -3.6940 C   0  0  0  0  0  0  0  0  0  0  0  0
    0.7819   10.7079   -4.4578 C   0  0  0  0  0  0  0  0  0  0  0  0
   -0.4799   10.2551   -4.7629 C   0  0  0  0  0  0  0  0  0  0  0  0
   -0.7780    8.9886   -4.2512 C   0  0  0  0  0  0  0  0  0  0  0  0
   -1.9939    8.1849   -4.3730 C   0  0  0  0  0  0  0  0  0  0  0  0
   -3.1425    8.5806   -5.0114 C   0  0  0  0  0  0  0  0  0  0  0  0
   -4.3281    7.8254   -5.1229 C   0  0  0  0  0  0  0  0  0  0  0  0
   -5.3314    7.2810   -5.2576 N   0  0  0  0  0  0  0  0  0  0  0  0
   -3.3132    9.8255   -5.6523 C   0  0  0  0  0  0  0  0  0  0  0  0
   -3.5299   10.8150   -6.1935 N   0  0  0  0  0  0  0  0  0  0  0  0
    1.7289   11.8638   -4.6628 C   0  0  0  0  0  0  0  0  0  0  0  0
    2.4171   11.9520   -6.0416 C   0  0  0  0  0  0  0  0  0  0  0  0
    3.6067   12.8515   -5.7952 C   0  0  0  0  0  0  0  0  0  0  0  0
    4.4851   12.1695   -5.0713 C   0  0  0  0  0  0  0  0  0  0  0  0
    3.9039   10.7974   -4.8165 C   0  0  0  0  0  0  0  0  0  0  0  0
    3.1262   10.5939   -6.1232 C   0  0  0  0  0  0  0  0  0  0  0  0
    2.7627   11.0597   -3.8106 C   0  0  0  0  0  0  0  0  0  0  0  0
   -2.5201    4.6104   -3.0489 C   0  0  0  0  0  0  0  0  0  0  0  0
   -3.5185    3.6272   -3.1534 C   0  0  0  0  0  0  0  0  0  0  0  0
   -4.7996    3.7557   -3.9109 C   0  0  0  0  0  0  0  0  0  0  0  0
   -4.5895    3.4333   -5.3929 C   0  0  0  0  0  0  0  0  0  0  0  0
   -3.1466    2.4571   -2.5048 C   0  0  0  0  0  0  0  0  0  0  0  0
   -3.9444    0.9050   -2.3260 S   0  0  0  0  0  0  0  0  0  0  0  0
   -2.5849    0.3531   -1.4156 C   0  0  0  0  0  0  0  0  0  0  0  0
   -2.1294   -0.8258   -0.8107 C   0  0  0  0  0  0  0  0  0  0  0  0
   -2.6921   -2.1254   -0.8457 C   0  0  0  0  0  0  0  0  0  0  0  0
   -3.8157   -2.3733   -1.5142 N   0  0  0  0  0  0  0  0  0  0  0  0
   -4.2691   -3.6162   -1.5550 C   0  0  0  0  0  0  0  0  0  0  0  0
   -5.3792   -3.8261   -2.4521 C   0  0  0  0  0  0  0  0  0  0  0  0
   -6.4066   -2.4689   -2.7967 S   0  0  0  0  0  0  0  0  0  0  0  0
   -7.3349   -3.3841   -3.9309 C   0  0  0  0  0  0  0  0  0  0  0  0
   -8.5150   -2.8133   -4.6385 C   0  0  0  0  0  0  0  0  0  0  0  0
   -9.6523   -2.5019   -3.6647 C   0  0  0  0  0  0  0  0  0  0  0  0
   -6.8291   -4.6500   -4.0242 C   0  0  0  0  0  0  0  0  0  0  0  0
   -5.7205   -4.9176   -3.2039 C   0  0  0  0  0  0  0  0  0  0  0  0
   -7.3505   -5.5798   -4.8472 F   0  0  0  0  0  0  0  0  0  0  0  0
   -3.6400   -4.6407   -0.7866 C   0  0  0  0  0  0  0  0  0  0  0  0
   -4.2030   -5.9466   -0.5253 C   0  0  0  0  0  0  0  0  0  0  0  0
   -3.4898   -7.0647   -0.1873 C   0  0  0  0  0  0  0  0  0  0  0  0
   -4.3307   -8.1545    0.0970 C   0  0  0  0  0  0  0  0  0  0  0  0
   -3.8514   -9.3666    0.4301 F   0  0  0  0  0  0  0  0  0  0  0  0
   -5.6691   -7.8951    0.0190 C   0  0  0  0  0  0  0  0  0  0  0  0
   -6.8080   -8.8327    0.2207 C   0  0  0  0  0  0  0  0  0  0  0  0
   -7.5166   -9.1349   -1.1012 C   0  0  0  0  0  0  0  0  0  0  0  0
   -5.9142   -6.2453   -0.4399 S   0  0  0  0  0  0  0  0  0  0  0  0
   -2.4751   -4.4126   -0.1996 N   0  0  0  0  0  0  0  0  0  0  0  0
   -1.9634   -3.1848   -0.2525 C   0  0  0  0  0  0  0  0  0  0  0  0
   -0.7367   -2.8744    0.3864 C   0  0  0  0  0  0  0  0  0  0  0  0
    0.1113   -3.7090    1.1263 C   0  0  0  0  0  0  0  0  0  0  0  0
    0.2435   -5.3762    1.5555 S   0  0  0  0  0  0  0  0  0  0  0  0
    1.6463   -4.9769    2.5305 C   0  0  0  0  0  0  0  0  0  0  0  0
    2.4712   -5.7476    3.3357 C   0  0  0  0  0  0  0  0  0  0  0  0
    2.3245   -7.2285    3.4604 C   0  0  0  0  0  0  0  0  0  0  0  0
    3.2694   -7.9501    2.4951 C   0  0  0  0  0  0  0  0  0  0  0  0
    3.4654   -4.9631    3.9510 C   0  0  0  0  0  0  0  0  0  0  0  0
    3.3452   -3.2603    3.4974 S   0  0  0  0  0  0  0  0  0  0  0  0
    1.9810   -3.6101    2.5046 C   0  0  0  0  0  0  0  0  0  0  0  0
    1.1018   -2.8953    1.6875 C   0  0  0  0  0  0  0  0  0  0  0  0
    0.9225   -1.5936    1.2898 N   0  0  0  0  0  0  0  0  0  0  0  0
    1.5232   -0.5487    2.0908 C   0  0  0  0  0  0  0  0  0  0  0  0
    0.6243   -0.1854    3.2710 C   0  0  0  0  0  0  0  0  0  0  0  0
   -0.2019   -1.5564    0.4832 C   0  0  0  0  0  0  0  0  0  0  0  0
   -0.8581   -0.5284   -0.2363 C   0  0  0  0  0  0  0  0  0  0  0  0
   -0.5384    0.7789   -0.5392 N   0  0  0  0  0  0  0  0  0  0  0  0
   -1.5821    1.3152   -1.2467 C   0  0  0  0  0  0  0  0  0  0  0  0
   -1.8889    2.5229   -1.8797 C   0  0  0  0  0  0  0  0  0  0  0  0
   -1.1322    4.0540   -2.1125 S   0  0  0  0  0  0  0  0  0  0  0  0
    0.7251    1.4782   -0.4898 C   0  0  0  0  0  0  0  0  0  0  0  0
    0.7425    2.5620    0.5867 C   0  0  0  0  0  0  0  0  0  0  0  0
    4.4114   -5.4951    4.8287 C   0  0  0  0  0  0  0  0  0  0  0  0
    5.4283   -4.8955    5.5355 C   0  0  0  0  0  0  0  0  0  0  0  0
    5.7687   -3.4724    5.5175 C   0  0  0  0  0  0  0  0  0  0  0  0
    5.2377   -2.5867    4.8663 O   0  0  0  0  0  0  0  0  0  0  0  0
    6.8894   -3.3048    6.4578 C   0  0  0  0  0  0  0  0  0  0  0  0
    7.5536   -2.1645    6.8039 C   0  0  0  0  0  0  0  0  0  0  0  0
    8.5985   -2.2381    7.7522 C   0  0  0  0  0  0  0  0  0  0  0  0
    9.3161   -1.0923    8.1508 C   0  0  0  0  0  0  0  0  0  0  0  0
   10.3207   -1.1764    9.0747 C   0  0  0  0  0  0  0  0  0  0  0  0
   10.6321   -2.4266    9.6253 C   0  0  0  0  0  0  0  0  0  0  0  0
   11.6225   -2.4891   10.5344 F   0  0  0  0  0  0  0  0  0  0  0  0
    9.9690   -3.5689    9.2722 C   0  0  0  0  0  0  0  0  0  0  0  0
    8.9317   -3.5006    8.3222 C   0  0  0  0  0  0  0  0  0  0  0  0
    8.2269   -4.6662    7.9387 C   0  0  0  0  0  0  0  0  0  0  0  0
    7.2184   -4.5712    7.0182 C   0  0  0  0  0  0  0  0  0  0  0  0
    6.3254   -5.5770    6.4450 C   0  0  0  0  0  0  0  0  0  0  0  0
    6.3605   -6.9179    6.7391 C   0  0  0  0  0  0  0  0  0  0  0  0
    5.5168   -7.9074    6.1958 C   0  0  0  0  0  0  0  0  0  0  0  0
    4.8706   -8.7726    5.8022 N   0  0  0  0  0  0  0  0  0  0  0  0
    7.2690   -7.5038    7.6446 C   0  0  0  0  0  0  0  0  0  0  0  0
    7.9788   -8.0477    8.3651 N   0  0  0  0  0  0  0  0  0  0  0  0
   -3.5745    6.0152   -4.1567 H   0  0  0  0  0  0  0  0  0  0  0  0
    2.1163    8.1541   -2.5829 H   0  0  0  0  0  0  0  0  0  0  0  0
   -1.1801   10.8261   -5.3488 H   0  0  0  0  0  0  0  0  0  0  0  0
    1.3876   12.8292   -4.2947 H   0  0  0  0  0  0  0  0  0  0  0  0
    1.7587   12.2242   -6.8619 H   0  0  0  0  0  0  0  0  0  0  0  0
    3.6609   13.8755   -6.1151 H   0  0  0  0  0  0  0  0  0  0  0  0
    5.4196   12.5100   -4.6654 H   0  0  0  0  0  0  0  0  0  0  0  0
    4.6012   10.0178   -4.5214 H   0  0  0  0  0  0  0  0  0  0  0  0
    3.7848   10.5251   -6.9874 H   0  0  0  0  0  0  0  0  0  0  0  0
    2.4522    9.7394   -6.1105 H   0  0  0  0  0  0  0  0  0  0  0  0
    3.1114   11.4889   -2.8731 H   0  0  0  0  0  0  0  0  0  0  0  0
   -5.2163    4.7592   -3.8135 H   0  0  0  0  0  0  0  0  0  0  0  0
   -5.5147    3.0455   -3.4909 H   0  0  0  0  0  0  0  0  0  0  0  0
   -3.8755    4.1217   -5.8393 H   0  0  0  0  0  0  0  0  0  0  0  0
   -5.5317    3.5213   -5.9260 H   0  0  0  0  0  0  0  0  0  0  0  0
   -4.2142    2.4192   -5.5092 H   0  0  0  0  0  0  0  0  0  0  0  0
   -8.8523   -3.5349   -5.3856 H   0  0  0  0  0  0  0  0  0  0  0  0
   -8.2219   -1.8949   -5.1532 H   0  0  0  0  0  0  0  0  0  0  0  0
   -9.3218   -1.7816   -2.9202 H   0  0  0  0  0  0  0  0  0  0  0  0
  -10.5013   -2.0870   -4.2013 H   0  0  0  0  0  0  0  0  0  0  0  0
   -9.9725   -3.4070   -3.1539 H   0  0  0  0  0  0  0  0  0  0  0  0
   -5.2013   -5.8578   -3.2007 H   0  0  0  0  0  0  0  0  0  0  0  0
   -2.4174   -7.0983   -0.1559 H   0  0  0  0  0  0  0  0  0  0  0  0
   -7.5236   -8.3946    0.9209 H   0  0  0  0  0  0  0  0  0  0  0  0
   -6.4209   -9.7570    0.6545 H   0  0  0  0  0  0  0  0  0  0  0  0
   -7.9015   -8.2177   -1.5415 H   0  0  0  0  0  0  0  0  0  0  0  0
   -8.3460   -9.8168   -0.9337 H   0  0  0  0  0  0  0  0  0  0  0  0
   -6.8266   -9.5943   -1.8051 H   0  0  0  0  0  0  0  0  0  0  0  0
    2.5266   -7.5612    4.4794 H   0  0  0  0  0  0  0  0  0  0  0  0
    1.2940   -7.4908    3.2128 H   0  0  0  0  0  0  0  0  0  0  0  0
    3.1384   -9.0242    2.5878 H   0  0  0  0  0  0  0  0  0  0  0  0
    4.3060   -7.7099    2.7188 H   0  0  0  0  0  0  0  0  0  0  0  0
    3.0576   -7.6579    1.4692 H   0  0  0  0  0  0  0  0  0  0  0  0
    1.7310    0.3331    1.4937 H   0  0  0  0  0  0  0  0  0  0  0  0
    2.4739   -0.9412    2.4608 H   0  0  0  0  0  0  0  0  0  0  0  0
   -0.3426    0.1714    2.9210 H   0  0  0  0  0  0  0  0  0  0  0  0
    0.4616   -1.0555    3.9026 H   0  0  0  0  0  0  0  0  0  0  0  0
    1.0940    0.5913    3.8679 H   0  0  0  0  0  0  0  0  0  0  0  0
    0.8714    1.9581   -1.4636 H   0  0  0  0  0  0  0  0  0  0  0  0
    1.5268    0.7496   -0.3602 H   0  0  0  0  0  0  0  0  0  0  0  0
    0.4545    2.1658    1.5568 H   0  0  0  0  0  0  0  0  0  0  0  0
    0.0497    3.3557    0.3206 H   0  0  0  0  0  0  0  0  0  0  0  0
    1.7377    2.9915    0.6596 H   0  0  0  0  0  0  0  0  0  0  0  0
    4.3045   -6.5612    4.9743 H   0  0  0  0  0  0  0  0  0  0  0  0
    7.2840   -1.2169    6.3620 H   0  0  0  0  0  0  0  0  0  0  0  0
    9.0574   -0.1398    7.7130 H   0  0  0  0  0  0  0  0  0  0  0  0
   10.8786   -0.3095    9.3914 H   0  0  0  0  0  0  0  0  0  0  0  0
   10.2357   -4.5151    9.7166 H   0  0  0  0  0  0  0  0  0  0  0  0
    8.5053   -5.6047    8.3898 H   0  0  0  0  0  0  0  0  0  0  0  0
  1  2  2  0  0  0  0
  2  3  1  0  0  0  0
  3  4  2  0  0  0  0
  3  5  1  0  0  0  0
  5  6  2  0  0  0  0
  6  7  1  0  0  0  0
  7  8  2  0  0  0  0
  8  9  1  0  0  0  0
  9 10  2  0  0  0  0
 10 11  1  0  0  0  0
 11 12  2  0  0  0  0
 12 13  1  0  0  0  0
 13 14  3  0  0  0  0
 12 15  1  0  0  0  0
 15 16  3  0  0  0  0
  8 17  1  0  0  0  0
 17 18  1  0  0  0  0
 18 19  1  0  0  0  0
 19 20  2  0  0  0  0
 20 21  1  0  0  0  0
 21 22  1  0  0  0  0
 21 23  1  0  0  0  0
  1 24  1  0  0  0  0
 24 25  2  0  0  0  0
 25 26  1  0  0  0  0
 26 27  1  0  0  0  0
 25 28  1  0  0  0  0
 28 29  1  0  0  0  0
 29 30  1  0  0  0  0
 30 31  1  0  0  0  0
 31 32  2  0  0  0  0
 32 33  1  0  0  0  0
 33 34  2  0  0  0  0
 34 35  1  0  0  0  0
 35 36  1  0  0  0  0
 36 37  1  0  0  0  0
 37 38  1  0  0  0  0
 38 39  1  0  0  0  0
 37 40  2  0  0  0  0
 40 41  1  0  0  0  0
 40 42  1  0  0  0  0
 34 43  1  0  0  0  0
 43 44  1  0  0  0  0
 44 45  2  0  0  0  0
 45 46  1  0  0  0  0
 46 47  1  0  0  0  0
 46 48  2  0  0  0  0
 48 49  1  0  0  0  0
 49 50  1  0  0  0  0
 48 51  1  0  0  0  0
 43 52  2  0  0  0  0
 52 53  1  0  0  0  0
 53 54  2  0  0  0  0
 54 55  1  0  0  0  0
 55 56  1  0  0  0  0
 56 57  1  0  0  0  0
 57 58  1  0  0  0  0
 58 59  1  0  0  0  0
 59 60  1  0  0  0  0
 58 61  2  0  0  0  0
 61 62  1  0  0  0  0
 62 63  1  0  0  0  0
 63 64  1  0  0  0  0
 64 65  1  0  0  0  0
 65 66  1  0  0  0  0
 66 67  1  0  0  0  0
 65 68  1  0  0  0  0
 68 69  2  0  0  0  0
 69 70  1  0  0  0  0
 70 71  1  0  0  0  0
 71 72  1  0  0  0  0
 72 73  1  0  0  0  0
 70 74  1  0  0  0  0
 74 75  1  0  0  0  0
 61 76  1  0  0  0  0
 76 77  2  0  0  0  0
 77 78  1  0  0  0  0
 78 79  2  0  0  0  0
 78 80  1  0  0  0  0
 80 81  2  0  0  0  0
 81 82  1  0  0  0  0
 82 83  2  0  0  0  0
 83 84  1  0  0  0  0
 84 85  2  0  0  0  0
 85 86  1  0  0  0  0
 85 87  1  0  0  0  0
 87 88  2  0  0  0  0
 88 89  1  0  0  0  0
 89 90  2  0  0  0  0
 90 91  1  0  0  0  0
 91 92  2  0  0  0  0
 92 93  1  0  0  0  0
 93 94  3  0  0  0  0
 92 95  1  0  0  0  0
 95 96  3  0  0  0  0
 11  2  1  0  0  0  0
 23 17  1  0  0  0  0
 73 24  1  0  0  0  0
 91 77  1  0  0  0  0
 10  5  1  0  0  0  0
 22 18  1  0  0  0  0
 72 28  2  0  0  0  0
 90 80  1  0  0  0  0
 23  7  1  0  0  0  0
 71 30  2  0  0  0  0
 88 82  1  0  0  0  0
 69 31  1  0  0  0  0
 53 32  1  0  0  0  0
 68 54  1  0  0  0  0
 41 35  2  0  0  0  0
 51 44  1  0  0  0  0
 64 55  2  0  0  0  0
 63 57  2  0  0  0  0
  1 97  1  0  0  0  0
  6 98  1  0  0  0  0
  9 99  1  0  0  0  0
 17100  1  0  0  0  0
 18101  1  0  0  0  0
 19102  1  0  0  0  0
 20103  1  0  0  0  0
 21104  1  0  0  0  0
 22105  1  0  0  0  0
 22106  1  0  0  0  0
 23107  1  0  0  0  0
 26108  1  0  0  0  0
 26109  1  0  0  0  0
 27110  1  0  0  0  0
 27111  1  0  0  0  0
 27112  1  0  0  0  0
 38113  1  0  0  0  0
 38114  1  0  0  0  0
 39115  1  0  0  0  0
 39116  1  0  0  0  0
 39117  1  0  0  0  0
 41118  1  0  0  0  0
 45119  1  0  0  0  0
 49120  1  0  0  0  0
 49121  1  0  0  0  0
 50122  1  0  0  0  0
 50123  1  0  0  0  0
 50124  1  0  0  0  0
 59125  1  0  0  0  0
 59126  1  0  0  0  0
 60127  1  0  0  0  0
 60128  1  0  0  0  0
 60129  1  0  0  0  0
 66130  1  0  0  0  0
 66131  1  0  0  0  0
 67132  1  0  0  0  0
 67133  1  0  0  0  0
 67134  1  0  0  0  0
 74135  1  0  0  0  0
 74136  1  0  0  0  0
 75137  1  0  0  0  0
 75138  1  0  0  0  0
 75139  1  0  0  0  0
 76140  1  0  0  0  0
 81141  1  0  0  0  0
 83142  1  0  0  0  0
 84143  1  0  0  0  0
 87144  1  0  0  0  0
 89145  1  0  0  0  0
M  END
