
  xtb     02112204353D
 energy: -205.346395062308 gnorm: 0.000756629932 xtb: 6.4.1 (unknown)
129142  0     0  0            999 V2000
   -0.3062   -4.5332    5.9152 C   0  0  0  0  0  0  0  0  0  0  0  0
   -1.3735   -5.2754    6.3233 C   0  0  0  0  0  0  0  0  0  0  0  0
   -2.7353   -5.2661    5.7288 C   0  0  0  0  0  0  0  0  0  0  0  0
   -3.2120   -4.4829    4.9355 O   0  0  0  0  0  0  0  0  0  0  0  0
   -3.3949   -6.4876    6.2337 C   0  0  0  0  0  0  0  0  0  0  0  0
   -4.6638   -6.9462    5.8878 C   0  0  0  0  0  0  0  0  0  0  0  0
   -5.0152   -8.1290    6.4917 C   0  0  0  0  0  0  0  0  0  0  0  0
   -4.1670   -8.8086    7.3765 C   0  0  0  0  0  0  0  0  0  0  0  0
   -2.9149   -8.3656    7.7293 C   0  0  0  0  0  0  0  0  0  0  0  0
   -2.5372   -7.1634    7.1230 C   0  0  0  0  0  0  0  0  0  0  0  0
   -1.2988   -6.4016    7.2372 C   0  0  0  0  0  0  0  0  0  0  0  0
   -0.2806   -6.6544    8.1200 C   0  0  0  0  0  0  0  0  0  0  0  0
    0.8647   -5.8472    8.2852 C   0  0  0  0  0  0  0  0  0  0  0  0
    1.8181   -5.2406    8.4931 N   0  0  0  0  0  0  0  0  0  0  0  0
   -0.2556   -7.7389    9.0205 C   0  0  0  0  0  0  0  0  0  0  0  0
   -0.1682   -8.6003    9.7752 N   0  0  0  0  0  0  0  0  0  0  0  0
   -5.1527   -9.9312    7.5844 C   0  0  0  0  0  0  0  0  0  0  0  0
   -4.8883  -11.2678    6.8481 C   0  0  0  0  0  0  0  0  0  0  0  0
   -4.0878  -10.9270    5.6158 C   0  0  0  0  0  0  0  0  0  0  0  0
   -4.8891  -10.2831    4.7776 C   0  0  0  0  0  0  0  0  0  0  0  0
   -6.2463  -10.1772    5.4280 C   0  0  0  0  0  0  0  0  0  0  0  0
   -6.2716  -11.4956    6.2177 C   0  0  0  0  0  0  0  0  0  0  0  0
   -6.0974   -9.1740    6.5988 C   0  0  0  0  0  0  0  0  0  0  0  0
   -0.2960   -3.3575    5.0974 C   0  0  0  0  0  0  0  0  0  0  0  0
   -1.3451   -2.4145    5.1169 C   0  0  0  0  0  0  0  0  0  0  0  0
   -1.3158   -1.2888    4.3354 C   0  0  0  0  0  0  0  0  0  0  0  0
   -0.2298   -1.0703    3.4822 C   0  0  0  0  0  0  0  0  0  0  0  0
    0.1399   -0.0978    2.5295 C   0  0  0  0  0  0  0  0  0  0  0  0
    1.3531   -0.5051    1.9574 C   0  0  0  0  0  0  0  0  0  0  0  0
    1.7848   -1.6650    2.5272 N   0  0  0  0  0  0  0  0  0  0  0  0
    0.8456   -2.0242    3.4665 C   0  0  0  0  0  0  0  0  0  0  0  0
    0.8255   -3.1294    4.2894 C   0  0  0  0  0  0  0  0  0  0  0  0
    3.0506   -2.3038    2.2764 C   0  0  0  0  0  0  0  0  0  0  0  0
    4.0928   -1.9103    3.3222 C   0  0  0  0  0  0  0  0  0  0  0  0
    1.6444    0.3780    0.9075 C   0  0  0  0  0  0  0  0  0  0  0  0
    2.5781    0.3460   -0.1493 C   0  0  0  0  0  0  0  0  0  0  0  0
    2.4406    1.2441   -1.2443 C   0  0  0  0  0  0  0  0  0  0  0  0
    3.3783    0.9329   -2.1425 N   0  0  0  0  0  0  0  0  0  0  0  0
    4.0238   -0.0728   -1.6008 N   0  0  0  0  0  0  0  0  0  0  0  0
    5.1033   -0.7307   -2.2769 C   0  0  0  0  0  0  0  0  0  0  0  0
    4.5985   -1.9452   -3.0511 C   0  0  0  0  0  0  0  0  0  0  0  0
    3.5964   -0.4730   -0.4252 N   0  0  0  0  0  0  0  0  0  0  0  0
    1.4612    2.2569   -1.2008 C   0  0  0  0  0  0  0  0  0  0  0  0
    0.6190    2.3829   -0.0596 C   0  0  0  0  0  0  0  0  0  0  0  0
    0.6072    1.3574    0.9163 C   0  0  0  0  0  0  0  0  0  0  0  0
   -0.3027    1.0490    1.9123 N   0  0  0  0  0  0  0  0  0  0  0  0
   -1.6653    1.5007    2.0782 C   0  0  0  0  0  0  0  0  0  0  0  0
   -1.8911    2.1807    3.4289 C   0  0  0  0  0  0  0  0  0  0  0  0
   -0.1742    3.5155   -0.1855 N   0  0  0  0  0  0  0  0  0  0  0  0
   -0.6021    4.3570    0.9107 C   0  0  0  0  0  0  0  0  0  0  0  0
    0.3025    5.5795    1.0699 C   0  0  0  0  0  0  0  0  0  0  0  0
    0.1136    4.0653   -1.4176 C   0  0  0  0  0  0  0  0  0  0  0  0
    1.1044    3.3085   -2.0622 C   0  0  0  0  0  0  0  0  0  0  0  0
    1.3712    3.8248   -3.2907 N   0  0  0  0  0  0  0  0  0  0  0  0
    2.3683    3.3509   -4.2158 C   0  0  0  0  0  0  0  0  0  0  0  0
    3.6449    4.1850   -4.1352 C   0  0  0  0  0  0  0  0  0  0  0  0
    0.5589    4.9258   -3.4504 C   0  0  0  0  0  0  0  0  0  0  0  0
   -0.2538    5.1104   -2.2800 C   0  0  0  0  0  0  0  0  0  0  0  0
   -1.1580    6.1802   -2.2471 C   0  0  0  0  0  0  0  0  0  0  0  0
   -1.2421    7.0105   -3.3297 C   0  0  0  0  0  0  0  0  0  0  0  0
   -0.4594    6.8209   -4.5037 C   0  0  0  0  0  0  0  0  0  0  0  0
    0.4573    5.7610   -4.5397 C   0  0  0  0  0  0  0  0  0  0  0  0
   -0.6975    7.7397   -5.5640 C   0  0  0  0  0  0  0  0  0  0  0  0
   -0.3463    7.8635   -6.8886 C   0  0  0  0  0  0  0  0  0  0  0  0
    0.5438    7.0224   -7.6743 C   0  0  0  0  0  0  0  0  0  0  0  0
    1.3197    6.1955   -7.2280 O   0  0  0  0  0  0  0  0  0  0  0  0
    0.4910    7.1993   -9.0568 N   0  0  0  0  0  0  0  0  0  0  0  0
    1.2935    6.2780   -9.8542 C   0  0  0  0  0  0  0  0  0  0  0  0
    0.5025    5.0275  -10.2152 C   0  0  0  0  0  0  0  0  0  0  0  0
   -0.2662    8.1361   -9.6961 C   0  0  0  0  0  0  0  0  0  0  0  0
   -0.3724    8.1688  -11.3449 S   0  0  0  0  0  0  0  0  0  0  0  0
   -0.9123    9.0629   -8.9344 N   0  0  0  0  0  0  0  0  0  0  0  0
   -1.6356   10.1493   -9.5849 C   0  0  0  0  0  0  0  0  0  0  0  0
   -3.0691    9.7481   -9.9061 C   0  0  0  0  0  0  0  0  0  0  0  0
   -1.0019    9.0018   -7.5509 C   0  0  0  0  0  0  0  0  0  0  0  0
   -1.6216    9.8587   -6.9496 O   0  0  0  0  0  0  0  0  0  0  0  0
    0.6776   -4.8915    6.1986 H   0  0  0  0  0  0  0  0  0  0  0  0
   -5.2841   -6.3917    5.2009 H   0  0  0  0  0  0  0  0  0  0  0  0
   -2.2707   -8.9014    8.4064 H   0  0  0  0  0  0  0  0  0  0  0  0
   -5.4962  -10.0815    8.6060 H   0  0  0  0  0  0  0  0  0  0  0  0
   -4.4879  -12.0583    7.4772 H   0  0  0  0  0  0  0  0  0  0  0  0
   -3.0388  -11.1321    5.5076 H   0  0  0  0  0  0  0  0  0  0  0  0
   -4.6430   -9.8421    3.8293 H   0  0  0  0  0  0  0  0  0  0  0  0
   -7.0824   -9.9754    4.7635 H   0  0  0  0  0  0  0  0  0  0  0  0
   -7.0780  -11.5488    6.9478 H   0  0  0  0  0  0  0  0  0  0  0  0
   -6.3011  -12.3724    5.5724 H   0  0  0  0  0  0  0  0  0  0  0  0
   -7.0591   -8.8314    6.9761 H   0  0  0  0  0  0  0  0  0  0  0  0
   -2.1737   -2.5719    5.7857 H   0  0  0  0  0  0  0  0  0  0  0  0
   -2.1378   -0.5913    4.3739 H   0  0  0  0  0  0  0  0  0  0  0  0
    1.6344   -3.8450    4.2832 H   0  0  0  0  0  0  0  0  0  0  0  0
    2.9052   -3.3882    2.2773 H   0  0  0  0  0  0  0  0  0  0  0  0
    3.3847   -1.9871    1.2850 H   0  0  0  0  0  0  0  0  0  0  0  0
    5.0332   -2.4144    3.1178 H   0  0  0  0  0  0  0  0  0  0  0  0
    4.2604   -0.8363    3.2936 H   0  0  0  0  0  0  0  0  0  0  0  0
    3.7584   -2.1827    4.3207 H   0  0  0  0  0  0  0  0  0  0  0  0
    5.8312   -1.0377   -1.5225 H   0  0  0  0  0  0  0  0  0  0  0  0
    5.5527   -0.0031   -2.9554 H   0  0  0  0  0  0  0  0  0  0  0  0
    5.4278   -2.4348   -3.5535 H   0  0  0  0  0  0  0  0  0  0  0  0
    3.8681   -1.6392   -3.7962 H   0  0  0  0  0  0  0  0  0  0  0  0
    4.1310   -2.6538   -2.3717 H   0  0  0  0  0  0  0  0  0  0  0  0
   -2.3141    0.6182    2.0215 H   0  0  0  0  0  0  0  0  0  0  0  0
   -1.9296    2.1608    1.2515 H   0  0  0  0  0  0  0  0  0  0  0  0
   -2.9453    2.4169    3.5465 H   0  0  0  0  0  0  0  0  0  0  0  0
   -1.5876    1.5192    4.2352 H   0  0  0  0  0  0  0  0  0  0  0  0
   -1.3202    3.1009    3.5255 H   0  0  0  0  0  0  0  0  0  0  0  0
   -0.5510    3.7756    1.8268 H   0  0  0  0  0  0  0  0  0  0  0  0
   -1.6352    4.6776    0.7382 H   0  0  0  0  0  0  0  0  0  0  0  0
   -0.0239    6.1661    1.9248 H   0  0  0  0  0  0  0  0  0  0  0  0
    0.2718    6.2078    0.1843 H   0  0  0  0  0  0  0  0  0  0  0  0
    1.3306    5.2641    1.2350 H   0  0  0  0  0  0  0  0  0  0  0  0
    1.9587    3.3935   -5.2288 H   0  0  0  0  0  0  0  0  0  0  0  0
    2.5919    2.3143   -3.9537 H   0  0  0  0  0  0  0  0  0  0  0  0
    3.4364    5.2255   -4.3712 H   0  0  0  0  0  0  0  0  0  0  0  0
    4.3763    3.8070   -4.8435 H   0  0  0  0  0  0  0  0  0  0  0  0
    4.0657    4.1270   -3.1341 H   0  0  0  0  0  0  0  0  0  0  0  0
   -1.7820    6.3419   -1.3804 H   0  0  0  0  0  0  0  0  0  0  0  0
   -1.9396    7.8348   -3.3089 H   0  0  0  0  0  0  0  0  0  0  0  0
    1.0712    5.6144   -5.4099 H   0  0  0  0  0  0  0  0  0  0  0  0
   -1.3832    8.5348   -5.2762 H   0  0  0  0  0  0  0  0  0  0  0  0
    1.6148    6.7998  -10.7564 H   0  0  0  0  0  0  0  0  0  0  0  0
    2.1631    6.0125   -9.2504 H   0  0  0  0  0  0  0  0  0  0  0  0
    0.1731    4.5172   -9.3129 H   0  0  0  0  0  0  0  0  0  0  0  0
   -0.3663    5.2897  -10.8140 H   0  0  0  0  0  0  0  0  0  0  0  0
    1.1308    4.3534  -10.7902 H   0  0  0  0  0  0  0  0  0  0  0  0
   -1.0988   10.4168  -10.4962 H   0  0  0  0  0  0  0  0  0  0  0  0
   -1.6291   10.9896   -8.8883 H   0  0  0  0  0  0  0  0  0  0  0  0
   -3.5951    9.4794   -8.9931 H   0  0  0  0  0  0  0  0  0  0  0  0
   -3.5831   10.5822  -10.3746 H   0  0  0  0  0  0  0  0  0  0  0  0
   -3.0822    8.9021  -10.5893 H   0  0  0  0  0  0  0  0  0  0  0  0
  1  2  2  0  0  0  0
  2  3  1  0  0  0  0
  3  4  2  0  0  0  0
  3  5  1  0  0  0  0
  5  6  2  0  0  0  0
  6  7  1  0  0  0  0
  7  8  2  0  0  0  0
  8  9  1  0  0  0  0
  9 10  2  0  0  0  0
 10 11  1  0  0  0  0
 11 12  2  0  0  0  0
 12 13  1  0  0  0  0
 13 14  3  0  0  0  0
 12 15  1  0  0  0  0
 15 16  3  0  0  0  0
  8 17  1  0  0  0  0
 17 18  1  0  0  0  0
 18 19  1  0  0  0  0
 19 20  2  0  0  0  0
 20 21  1  0  0  0  0
 21 22  1  0  0  0  0
 21 23  1  0  0  0  0
  1 24  1  0  0  0  0
 24 25  2  0  0  0  0
 25 26  1  0  0  0  0
 26 27  2  0  0  0  0
 27 28  1  0  0  0  0
 28 29  2  0  0  0  0
 29 30  1  0  0  0  0
 30 31  1  0  0  0  0
 31 32  2  0  0  0  0
 30 33  1  0  0  0  0
 33 34  1  0  0  0  0
 29 35  1  0  0  0  0
 35 36  1  0  0  0  0
 36 37  1  0  0  0  0
 37 38  2  0  0  0  0
 38 39  1  0  0  0  0
 39 40  1  0  0  0  0
 40 41  1  0  0  0  0
 39 42  1  0  0  0  0
 37 43  1  0  0  0  0
 43 44  2  0  0  0  0
 44 45  1  0  0  0  0
 45 46  1  0  0  0  0
 46 47  1  0  0  0  0
 47 48  1  0  0  0  0
 44 49  1  0  0  0  0
 49 50  1  0  0  0  0
 50 51  1  0  0  0  0
 49 52  1  0  0  0  0
 52 53  2  0  0  0  0
 53 54  1  0  0  0  0
 54 55  1  0  0  0  0
 55 56  1  0  0  0  0
 54 57  1  0  0  0  0
 57 58  2  0  0  0  0
 58 59  1  0  0  0  0
 59 60  2  0  0  0  0
 60 61  1  0  0  0  0
 61 62  2  0  0  0  0
 61 63  1  0  0  0  0
 63 64  2  0  0  0  0
 64 65  1  0  0  0  0
 65 66  2  0  0  0  0
 65 67  1  0  0  0  0
 67 68  1  0  0  0  0
 68 69  1  0  0  0  0
 67 70  1  0  0  0  0
 70 71  2  0  0  0  0
 70 72  1  0  0  0  0
 72 73  1  0  0  0  0
 73 74  1  0  0  0  0
 72 75  1  0  0  0  0
 75 76  2  0  0  0  0
 11  2  1  0  0  0  0
 23 17  1  0  0  0  0
 32 24  1  0  0  0  0
 45 35  2  0  0  0  0
 58 52  1  0  0  0  0
 75 64  1  0  0  0  0
 10  5  1  0  0  0  0
 22 18  1  0  0  0  0
 31 27  1  0  0  0  0
 42 36  2  0  0  0  0
 53 43  1  0  0  0  0
 62 57  1  0  0  0  0
 23  7  1  0  0  0  0
 46 28  1  0  0  0  0
  1 77  1  0  0  0  0
  6 78  1  0  0  0  0
  9 79  1  0  0  0  0
 17 80  1  0  0  0  0
 18 81  1  0  0  0  0
 19 82  1  0  0  0  0
 20 83  1  0  0  0  0
 21 84  1  0  0  0  0
 22 85  1  0  0  0  0
 22 86  1  0  0  0  0
 23 87  1  0  0  0  0
 25 88  1  0  0  0  0
 26 89  1  0  0  0  0
 32 90  1  0  0  0  0
 33 91  1  0  0  0  0
 33 92  1  0  0  0  0
 34 93  1  0  0  0  0
 34 94  1  0  0  0  0
 34 95  1  0  0  0  0
 40 96  1  0  0  0  0
 40 97  1  0  0  0  0
 41 98  1  0  0  0  0
 41 99  1  0  0  0  0
 41100  1  0  0  0  0
 47101  1  0  0  0  0
 47102  1  0  0  0  0
 48103  1  0  0  0  0
 48104  1  0  0  0  0
 48105  1  0  0  0  0
 50106  1  0  0  0  0
 50107  1  0  0  0  0
 51108  1  0  0  0  0
 51109  1  0  0  0  0
 51110  1  0  0  0  0
 55111  1  0  0  0  0
 55112  1  0  0  0  0
 56113  1  0  0  0  0
 56114  1  0  0  0  0
 56115  1  0  0  0  0
 59116  1  0  0  0  0
 60117  1  0  0  0  0
 62118  1  0  0  0  0
 63119  1  0  0  0  0
 68120  1  0  0  0  0
 68121  1  0  0  0  0
 69122  1  0  0  0  0
 69123  1  0  0  0  0
 69124  1  0  0  0  0
 73125  1  0  0  0  0
 73126  1  0  0  0  0
 74127  1  0  0  0  0
 74128  1  0  0  0  0
 74129  1  0  0  0  0
M  END
