
  xtb     02022210303D
 energy: -227.599220158674 gnorm: 0.000186033993 xtb: 6.4.1 (unknown)
130147  0     0  0            999 V2000
   -3.1841   -1.2259    6.4973 C   0  0  0  0  0  0  0  0  0  0  0  0
   -3.5376   -2.4803    6.0973 C   0  0  0  0  0  0  0  0  0  0  0  0
   -4.6037   -3.2279    6.8125 C   0  0  0  0  0  0  0  0  0  0  0  0
   -5.0812   -2.9579    7.8922 O   0  0  0  0  0  0  0  0  0  0  0  0
   -4.9927   -4.3205    5.8966 C   0  0  0  0  0  0  0  0  0  0  0  0
   -6.0390   -5.2262    6.0568 C   0  0  0  0  0  0  0  0  0  0  0  0
   -6.1693   -6.1219    5.0223 C   0  0  0  0  0  0  0  0  0  0  0  0
   -5.3223   -6.1224    3.9057 C   0  0  0  0  0  0  0  0  0  0  0  0
   -4.2808   -5.2418    3.7368 C   0  0  0  0  0  0  0  0  0  0  0  0
   -4.1331   -4.3227    4.7777 C   0  0  0  0  0  0  0  0  0  0  0  0
   -3.1272   -3.2822    4.9660 C   0  0  0  0  0  0  0  0  0  0  0  0
   -1.8919   -3.2578    4.3690 C   0  0  0  0  0  0  0  0  0  0  0  0
   -1.5080   -4.0766    3.2909 C   0  0  0  0  0  0  0  0  0  0  0  0
   -1.1459   -4.6798    2.3828 N   0  0  0  0  0  0  0  0  0  0  0  0
   -0.8363   -2.4335    4.8108 C   0  0  0  0  0  0  0  0  0  0  0  0
    0.0646   -1.8151    5.1651 N   0  0  0  0  0  0  0  0  0  0  0  0
   -6.0398   -7.2808    3.2605 C   0  0  0  0  0  0  0  0  0  0  0  0
   -7.0092   -6.9706    2.0933 C   0  0  0  0  0  0  0  0  0  0  0  0
   -7.4947   -5.5579    2.3030 C   0  0  0  0  0  0  0  0  0  0  0  0
   -8.2966   -5.5580    3.3595 C   0  0  0  0  0  0  0  0  0  0  0  0
   -8.3681   -6.9710    3.8831 C   0  0  0  0  0  0  0  0  0  0  0  0
   -8.2438   -7.7543    2.5663 C   0  0  0  0  0  0  0  0  0  0  0  0
   -6.9835   -7.2817    4.5043 C   0  0  0  0  0  0  0  0  0  0  0  0
   -2.5366   -0.2343    5.7267 C   0  0  0  0  0  0  0  0  0  0  0  0
   -1.7385    0.8128    6.1797 C   0  0  0  0  0  0  0  0  0  0  0  0
   -1.4737    1.1216    7.5841 C   0  0  0  0  0  0  0  0  0  0  0  0
   -2.5111    1.3220    8.4908 C   0  0  0  0  0  0  0  0  0  0  0  0
   -2.2333    1.6289    9.8081 C   0  0  0  0  0  0  0  0  0  0  0  0
   -0.9218    1.7342   10.2560 C   0  0  0  0  0  0  0  0  0  0  0  0
   -0.6250    2.1015   11.6804 C   0  0  0  0  0  0  0  0  0  0  0  0
   -0.5016    3.6201   11.8237 C   0  0  0  0  0  0  0  0  0  0  0  0
    0.1091    1.5426    9.3440 C   0  0  0  0  0  0  0  0  0  0  0  0
   -0.1578    1.2459    8.0225 C   0  0  0  0  0  0  0  0  0  0  0  0
   -1.1349    1.4925    5.1096 C   0  0  0  0  0  0  0  0  0  0  0  0
    0.0309    2.7939    5.0236 S   0  0  0  0  0  0  0  0  0  0  0  0
    0.0306    2.6600    3.2981 C   0  0  0  0  0  0  0  0  0  0  0  0
    0.7243    3.1658    2.1825 C   0  0  0  0  0  0  0  0  0  0  0  0
    1.8506    4.0108    2.0426 C   0  0  0  0  0  0  0  0  0  0  0  0
    2.4905    4.1261    0.7553 C   0  0  0  0  0  0  0  0  0  0  0  0
    3.5822    4.8719    0.8036 N   0  0  0  0  0  0  0  0  0  0  0  0
    3.7875    5.3929    2.3216 S   0  0  0  0  0  0  0  0  0  0  0  0
    2.4920    4.6846    2.9833 N   0  0  0  0  0  0  0  0  0  0  0  0
    1.8905    3.5207   -0.3735 C   0  0  0  0  0  0  0  0  0  0  0  0
    2.1998    3.4928   -1.7456 C   0  0  0  0  0  0  0  0  0  0  0  0
    3.4856    3.9453   -2.8112 S   0  0  0  0  0  0  0  0  0  0  0  0
    2.6051    3.2377   -4.1453 C   0  0  0  0  0  0  0  0  0  0  0  0
    2.9140    3.0526   -5.5023 C   0  0  0  0  0  0  0  0  0  0  0  0
    4.1476    3.5257   -6.1249 C   0  0  0  0  0  0  0  0  0  0  0  0
    5.3659    3.3380   -5.4740 C   0  0  0  0  0  0  0  0  0  0  0  0
    6.5462    3.7370   -6.0703 C   0  0  0  0  0  0  0  0  0  0  0  0
    6.5461    4.3420   -7.3201 C   0  0  0  0  0  0  0  0  0  0  0  0
    7.8353    4.7272   -7.9824 C   0  0  0  0  0  0  0  0  0  0  0  0
    8.3022    3.6185   -8.9278 C   0  0  0  0  0  0  0  0  0  0  0  0
    5.3256    4.5484   -7.9565 C   0  0  0  0  0  0  0  0  0  0  0  0
    4.1410    4.1500   -7.3707 C   0  0  0  0  0  0  0  0  0  0  0  0
    1.8829    2.3933   -6.1687 C   0  0  0  0  0  0  0  0  0  0  0  0
    0.5094    2.0699   -5.1144 S   0  0  0  0  0  0  0  0  0  0  0  0
    1.3562    2.7287   -3.7696 C   0  0  0  0  0  0  0  0  0  0  0  0
    1.1361    2.8526   -2.3963 C   0  0  0  0  0  0  0  0  0  0  0  0
    0.1908    2.4604   -1.4831 N   0  0  0  0  0  0  0  0  0  0  0  0
    0.6645    2.8187   -0.2373 C   0  0  0  0  0  0  0  0  0  0  0  0
    0.1874    2.5003    1.0498 C   0  0  0  0  0  0  0  0  0  0  0  0
   -0.7672    1.5840    1.4518 N   0  0  0  0  0  0  0  0  0  0  0  0
   -0.8539    1.6845    2.8182 C   0  0  0  0  0  0  0  0  0  0  0  0
   -1.5162    1.0207    3.8490 C   0  0  0  0  0  0  0  0  0  0  0  0
   -2.6363   -0.2802    3.9662 S   0  0  0  0  0  0  0  0  0  0  0  0
   -1.0491    0.3046    0.8262 C   0  0  0  0  0  0  0  0  0  0  0  0
   -0.0617   -0.7652    1.2917 C   0  0  0  0  0  0  0  0  0  0  0  0
   -1.1999    2.3086   -1.8584 C   0  0  0  0  0  0  0  0  0  0  0  0
   -1.7319    3.5762   -2.5267 C   0  0  0  0  0  0  0  0  0  0  0  0
    1.7659    1.9448   -7.5037 C   0  0  0  0  0  0  0  0  0  0  0  0
    2.7170    1.5561   -8.3975 C   0  0  0  0  0  0  0  0  0  0  0  0
    2.3594    1.4961   -9.8461 C   0  0  0  0  0  0  0  0  0  0  0  0
    1.2510    1.5850  -10.3233 O   0  0  0  0  0  0  0  0  0  0  0  0
    3.6460    1.3525  -10.5393 C   0  0  0  0  0  0  0  0  0  0  0  0
    4.6603    1.2445   -9.5947 C   0  0  0  0  0  0  0  0  0  0  0  0
    6.2263    1.0051  -10.2746 S   0  0  0  0  0  0  0  0  0  0  0  0
    5.5323    1.0702  -11.8656 C   0  0  0  0  0  0  0  0  0  0  0  0
    6.0594    0.9588  -13.1652 C   0  0  0  0  0  0  0  0  0  0  0  0
    5.0763    1.0599  -14.0992 C   0  0  0  0  0  0  0  0  0  0  0  0
    3.4937    1.2897  -13.4379 S   0  0  0  0  0  0  0  0  0  0  0  0
    4.1437    1.2549  -11.8444 C   0  0  0  0  0  0  0  0  0  0  0  0
    4.1295    1.2596   -8.2596 C   0  0  0  0  0  0  0  0  0  0  0  0
    4.8201    0.8543   -7.1427 C   0  0  0  0  0  0  0  0  0  0  0  0
    4.2187    0.5440   -5.9115 C   0  0  0  0  0  0  0  0  0  0  0  0
    3.7551    0.2212   -4.9118 N   0  0  0  0  0  0  0  0  0  0  0  0
    6.2083    0.6285   -7.1964 C   0  0  0  0  0  0  0  0  0  0  0  0
    7.3454    0.4738   -7.2342 N   0  0  0  0  0  0  0  0  0  0  0  0
   -3.4834   -0.9520    7.5025 H   0  0  0  0  0  0  0  0  0  0  0  0
   -6.6679   -5.1979    6.9328 H   0  0  0  0  0  0  0  0  0  0  0  0
   -3.6359   -5.2447    2.8732 H   0  0  0  0  0  0  0  0  0  0  0  0
   -5.4389   -8.1689    3.0756 H   0  0  0  0  0  0  0  0  0  0  0  0
   -6.6163   -7.2021    1.1068 H   0  0  0  0  0  0  0  0  0  0  0  0
   -7.1695   -4.7193    1.7154 H   0  0  0  0  0  0  0  0  0  0  0  0
   -8.7750   -4.7194    3.8308 H   0  0  0  0  0  0  0  0  0  0  0  0
   -9.2136   -7.2027    4.5254 H   0  0  0  0  0  0  0  0  0  0  0  0
   -8.0541   -8.8171    2.7098 H   0  0  0  0  0  0  0  0  0  0  0  0
   -9.1045   -7.6191    1.9129 H   0  0  0  0  0  0  0  0  0  0  0  0
   -7.0000   -8.1717    5.1302 H   0  0  0  0  0  0  0  0  0  0  0  0
   -3.5369    1.2659    8.1559 H   0  0  0  0  0  0  0  0  0  0  0  0
   -3.0473    1.7868   10.5010 H   0  0  0  0  0  0  0  0  0  0  0  0
   -1.4246    1.7419   12.3308 H   0  0  0  0  0  0  0  0  0  0  0  0
    0.3097    1.6338   11.9957 H   0  0  0  0  0  0  0  0  0  0  0  0
   -0.2831    3.8879   12.8547 H   0  0  0  0  0  0  0  0  0  0  0  0
   -1.4293    4.1048   11.5276 H   0  0  0  0  0  0  0  0  0  0  0  0
    0.2978    3.9961   11.1893 H   0  0  0  0  0  0  0  0  0  0  0  0
    1.1345    1.6238    9.6745 H   0  0  0  0  0  0  0  0  0  0  0  0
    0.6515    1.0821    7.3276 H   0  0  0  0  0  0  0  0  0  0  0  0
    5.3871    2.8522   -4.5100 H   0  0  0  0  0  0  0  0  0  0  0  0
    7.4820    3.5708   -5.5579 H   0  0  0  0  0  0  0  0  0  0  0  0
    8.5998    4.8963   -7.2225 H   0  0  0  0  0  0  0  0  0  0  0  0
    7.7018    5.6521   -8.5478 H   0  0  0  0  0  0  0  0  0  0  0  0
    8.3847    2.6742   -8.3940 H   0  0  0  0  0  0  0  0  0  0  0  0
    7.5916    3.4910   -9.7415 H   0  0  0  0  0  0  0  0  0  0  0  0
    9.2718    3.8665   -9.3525 H   0  0  0  0  0  0  0  0  0  0  0  0
    5.3041    5.0345   -8.9217 H   0  0  0  0  0  0  0  0  0  0  0  0
    3.2012    4.3322   -7.8719 H   0  0  0  0  0  0  0  0  0  0  0  0
   -0.9766    0.3961   -0.2546 H   0  0  0  0  0  0  0  0  0  0  0  0
   -2.0698    0.0185    1.0978 H   0  0  0  0  0  0  0  0  0  0  0  0
    0.9499   -0.4955    0.9966 H   0  0  0  0  0  0  0  0  0  0  0  0
   -0.0851   -0.8803    2.3724 H   0  0  0  0  0  0  0  0  0  0  0  0
   -0.3147   -1.7202    0.8397 H   0  0  0  0  0  0  0  0  0  0  0  0
   -1.2924    1.4616   -2.5460 H   0  0  0  0  0  0  0  0  0  0  0  0
   -1.7873    2.1209   -0.9603 H   0  0  0  0  0  0  0  0  0  0  0  0
   -2.7895    3.4553   -2.7437 H   0  0  0  0  0  0  0  0  0  0  0  0
   -1.2100    3.7746   -3.4584 H   0  0  0  0  0  0  0  0  0  0  0  0
   -1.6059    4.4309   -1.8654 H   0  0  0  0  0  0  0  0  0  0  0  0
    0.7517    1.9155   -7.8949 H   0  0  0  0  0  0  0  0  0  0  0  0
    7.0993    0.8112  -13.3891 H   0  0  0  0  0  0  0  0  0  0  0  0
    5.1843    1.0114  -15.1647 H   0  0  0  0  0  0  0  0  0  0  0  0
  1  2  2  0  0  0  0
  2  3  1  0  0  0  0
  3  4  2  0  0  0  0
  3  5  1  0  0  0  0
  5  6  2  0  0  0  0
  6  7  1  0  0  0  0
  7  8  2  0  0  0  0
  8  9  1  0  0  0  0
  9 10  2  0  0  0  0
 10 11  1  0  0  0  0
 11 12  2  0  0  0  0
 12 13  1  0  0  0  0
 13 14  3  0  0  0  0
 12 15  1  0  0  0  0
 15 16  3  0  0  0  0
  8 17  1  0  0  0  0
 17 18  1  0  0  0  0
 18 19  1  0  0  0  0
 19 20  2  0  0  0  0
 20 21  1  0  0  0  0
 21 22  1  0  0  0  0
 21 23  1  0  0  0  0
  1 24  1  0  0  0  0
 24 25  2  0  0  0  0
 25 26  1  0  0  0  0
 26 27  2  0  0  0  0
 27 28  1  0  0  0  0
 28 29  2  0  0  0  0
 29 30  1  0  0  0  0
 30 31  1  0  0  0  0
 29 32  1  0  0  0  0
 32 33  2  0  0  0  0
 25 34  1  0  0  0  0
 34 35  1  0  0  0  0
 35 36  1  0  0  0  0
 36 37  1  0  0  0  0
 37 38  1  0  0  0  0
 38 39  1  0  0  0  0
 39 40  2  0  0  0  0
 40 41  1  0  0  0  0
 41 42  1  0  0  0  0
 39 43  1  0  0  0  0
 43 44  1  0  0  0  0
 44 45  1  0  0  0  0
 45 46  1  0  0  0  0
 46 47  1  0  0  0  0
 47 48  1  0  0  0  0
 48 49  2  0  0  0  0
 49 50  1  0  0  0  0
 50 51  2  0  0  0  0
 51 52  1  0  0  0  0
 52 53  1  0  0  0  0
 51 54  1  0  0  0  0
 54 55  2  0  0  0  0
 47 56  2  0  0  0  0
 56 57  1  0  0  0  0
 57 58  1  0  0  0  0
 58 59  1  0  0  0  0
 59 60  1  0  0  0  0
 60 61  1  0  0  0  0
 61 62  1  0  0  0  0
 62 63  1  0  0  0  0
 63 64  1  0  0  0  0
 64 65  1  0  0  0  0
 65 66  1  0  0  0  0
 63 67  1  0  0  0  0
 67 68  1  0  0  0  0
 60 69  1  0  0  0  0
 69 70  1  0  0  0  0
 56 71  1  0  0  0  0
 71 72  2  0  0  0  0
 72 73  1  0  0  0  0
 73 74  2  0  0  0  0
 73 75  1  0  0  0  0
 75 76  2  0  0  0  0
 76 77  1  0  0  0  0
 77 78  1  0  0  0  0
 78 79  1  0  0  0  0
 79 80  2  0  0  0  0
 80 81  1  0  0  0  0
 81 82  1  0  0  0  0
 76 83  1  0  0  0  0
 83 84  2  0  0  0  0
 84 85  1  0  0  0  0
 85 86  3  0  0  0  0
 84 87  1  0  0  0  0
 87 88  3  0  0  0  0
 11  2  1  0  0  0  0
 23 17  1  0  0  0  0
 66 24  1  0  0  0  0
 83 72  1  0  0  0  0
 10  5  1  0  0  0  0
 22 18  1  0  0  0  0
 33 26  1  0  0  0  0
 65 34  2  0  0  0  0
 82 75  1  0  0  0  0
 23  7  1  0  0  0  0
 64 36  2  0  0  0  0
 82 78  2  0  0  0  0
 62 37  2  0  0  0  0
 42 38  2  0  0  0  0
 61 43  2  0  0  0  0
 59 44  2  0  0  0  0
 58 46  2  0  0  0  0
 55 48  1  0  0  0  0
  1 89  1  0  0  0  0
  6 90  1  0  0  0  0
  9 91  1  0  0  0  0
 17 92  1  0  0  0  0
 18 93  1  0  0  0  0
 19 94  1  0  0  0  0
 20 95  1  0  0  0  0
 21 96  1  0  0  0  0
 22 97  1  0  0  0  0
 22 98  1  0  0  0  0
 23 99  1  0  0  0  0
 27100  1  0  0  0  0
 28101  1  0  0  0  0
 30102  1  0  0  0  0
 30103  1  0  0  0  0
 31104  1  0  0  0  0
 31105  1  0  0  0  0
 31106  1  0  0  0  0
 32107  1  0  0  0  0
 33108  1  0  0  0  0
 49109  1  0  0  0  0
 50110  1  0  0  0  0
 52111  1  0  0  0  0
 52112  1  0  0  0  0
 53113  1  0  0  0  0
 53114  1  0  0  0  0
 53115  1  0  0  0  0
 54116  1  0  0  0  0
 55117  1  0  0  0  0
 67118  1  0  0  0  0
 67119  1  0  0  0  0
 68120  1  0  0  0  0
 68121  1  0  0  0  0
 68122  1  0  0  0  0
 69123  1  0  0  0  0
 69124  1  0  0  0  0
 70125  1  0  0  0  0
 70126  1  0  0  0  0
 70127  1  0  0  0  0
 71128  1  0  0  0  0
 79129  1  0  0  0  0
 80130  1  0  0  0  0
M  END
