
  xtb     02102222463D
 energy: -182.437473002132 gnorm: 0.000570081437 xtb: 6.4.1 (unknown)
101114  0     0  0            999 V2000
   -1.6101    5.7303    2.1042 C   0  0  0  0  0  0  0  0  0  0  0  0
   -1.8748    6.3882    0.9314 C   0  0  0  0  0  0  0  0  0  0  0  0
   -1.3995    6.0266   -0.4230 C   0  0  0  0  0  0  0  0  0  0  0  0
   -0.8650    4.9990   -0.7955 O   0  0  0  0  0  0  0  0  0  0  0  0
   -1.6429    7.2123   -1.2637 C   0  0  0  0  0  0  0  0  0  0  0  0
   -1.3073    7.3574   -2.6079 C   0  0  0  0  0  0  0  0  0  0  0  0
   -1.6652    8.5697   -3.1454 C   0  0  0  0  0  0  0  0  0  0  0  0
   -2.3013    9.5701   -2.3980 C   0  0  0  0  0  0  0  0  0  0  0  0
   -2.6303    9.4426   -1.0693 C   0  0  0  0  0  0  0  0  0  0  0  0
   -2.2834    8.2116   -0.5056 C   0  0  0  0  0  0  0  0  0  0  0  0
   -2.4826    7.7035    0.8484 C   0  0  0  0  0  0  0  0  0  0  0  0
   -3.2040    8.3242    1.8352 C   0  0  0  0  0  0  0  0  0  0  0  0
   -3.4966    7.7677    3.0987 C   0  0  0  0  0  0  0  0  0  0  0  0
   -3.8028    7.3773    4.1346 N   0  0  0  0  0  0  0  0  0  0  0  0
   -3.8021    9.5947    1.7056 C   0  0  0  0  0  0  0  0  0  0  0  0
   -4.3124   10.6226    1.6693 N   0  0  0  0  0  0  0  0  0  0  0  0
   -2.3767   10.5110   -3.5741 C   0  0  0  0  0  0  0  0  0  0  0  0
   -3.7425   10.6572   -4.2899 C   0  0  0  0  0  0  0  0  0  0  0  0
   -4.4881    9.3657   -4.0611 C   0  0  0  0  0  0  0  0  0  0  0  0
   -3.8861    8.4197   -4.7697 C   0  0  0  0  0  0  0  0  0  0  0  0
   -2.7218    9.0544   -5.4894 C   0  0  0  0  0  0  0  0  0  0  0  0
   -3.2950   10.4571   -5.7467 C   0  0  0  0  0  0  0  0  0  0  0  0
   -1.6682    9.3963   -4.4067 C   0  0  0  0  0  0  0  0  0  0  0  0
   -1.1102    4.4269    2.2880 C   0  0  0  0  0  0  0  0  0  0  0  0
   -0.2873    3.9862    3.9684 Se  0  0  0  0  0  2  0  0  0  0  0  0
    0.0286    2.3306    3.2213 C   0  0  0  0  0  0  0  0  0  0  0  0
    0.6540    1.1092    3.5120 C   0  0  0  0  0  0  0  0  0  0  0  0
    1.4303    0.6937    4.6150 C   0  0  0  0  0  0  0  0  0  0  0  0
    2.0430   -0.6041    4.5897 C   0  0  0  0  0  0  0  0  0  0  0  0
    2.7873   -0.8291    5.6609 N   0  0  0  0  0  0  0  0  0  0  0  0
    2.7199    0.4739    6.6188 S   0  0  0  0  0  0  0  0  0  0  0  0
    1.7369    1.3799    5.7039 N   0  0  0  0  0  0  0  0  0  0  0  0
    1.7390   -1.4805    3.5219 C   0  0  0  0  0  0  0  0  0  0  0  0
    2.0242   -2.8379    3.3185 C   0  0  0  0  0  0  0  0  0  0  0  0
    2.9218   -4.1062    4.0719 S   0  0  0  0  0  0  0  0  0  0  0  0
    2.3271   -5.2195    2.8616 C   0  0  0  0  0  0  0  0  0  0  0  0
    2.5463   -6.5878    2.6516 C   0  0  0  0  0  0  0  0  0  0  0  0
    3.3123   -7.4391    3.6122 C   0  0  0  0  0  0  0  0  0  0  0  0
    4.7693   -6.9981    3.7521 C   0  0  0  0  0  0  0  0  0  0  0  0
    1.8236   -7.0438    1.5559 C   0  0  0  0  0  0  0  0  0  0  0  0
    0.8370   -5.7746    0.8293 S   0  0  0  0  0  0  0  0  0  0  0  0
    1.4597   -4.6146    1.9395 C   0  0  0  0  0  0  0  0  0  0  0  0
    1.3066   -3.2470    2.1858 C   0  0  0  0  0  0  0  0  0  0  0  0
    0.6180   -2.1836    1.6628 N   0  0  0  0  0  0  0  0  0  0  0  0
    0.8856   -1.0819    2.4540 C   0  0  0  0  0  0  0  0  0  0  0  0
    0.4601    0.2669    2.3837 C   0  0  0  0  0  0  0  0  0  0  0  0
   -0.2113    0.9774    1.4078 N   0  0  0  0  0  0  0  0  0  0  0  0
   -0.4887    2.2239    1.9166 C   0  0  0  0  0  0  0  0  0  0  0  0
   -1.1224    3.3548    1.4118 C   0  0  0  0  0  0  0  0  0  0  0  0
   -0.1152    0.7875   -0.0254 C   0  0  0  0  0  0  0  0  0  0  0  0
    0.8329    1.7991   -0.6703 C   0  0  0  0  0  0  0  0  0  0  0  0
   -0.4666   -2.3934    0.7268 C   0  0  0  0  0  0  0  0  0  0  0  0
    0.0281   -2.7181   -0.6822 C   0  0  0  0  0  0  0  0  0  0  0  0
    1.6718   -8.3406    1.0125 C   0  0  0  0  0  0  0  0  0  0  0  0
    2.6605   -9.2712    0.8548 C   0  0  0  0  0  0  0  0  0  0  0  0
    4.1010   -8.9279    0.7708 C   0  0  0  0  0  0  0  0  0  0  0  0
    4.6006   -7.8322    0.8959 O   0  0  0  0  0  0  0  0  0  0  0  0
    4.7723  -10.1713    0.3394 C   0  0  0  0  0  0  0  0  0  0  0  0
    6.1157  -10.4112    0.1007 C   0  0  0  0  0  0  0  0  0  0  0  0
    7.2896   -9.1818    0.3391 Cl  0  0  0  0  0  0  0  0  0  0  0  0
    6.5054  -11.6778   -0.3296 C   0  0  0  0  0  0  0  0  0  0  0  0
    5.5588  -12.6684   -0.5225 C   0  0  0  0  0  0  0  0  0  0  0  0
    4.2075  -12.4412   -0.2883 C   0  0  0  0  0  0  0  0  0  0  0  0
    3.8161  -11.1872    0.1479 C   0  0  0  0  0  0  0  0  0  0  0  0
    2.4950  -10.6557    0.4798 C   0  0  0  0  0  0  0  0  0  0  0  0
    1.3247  -11.3692    0.5122 C   0  0  0  0  0  0  0  0  0  0  0  0
    0.0842  -10.8439    0.9314 C   0  0  0  0  0  0  0  0  0  0  0  0
   -0.9508  -10.4873    1.2783 N   0  0  0  0  0  0  0  0  0  0  0  0
    1.2103  -12.7285    0.1558 C   0  0  0  0  0  0  0  0  0  0  0  0
    1.0498  -13.8295   -0.1273 N   0  0  0  0  0  0  0  0  0  0  0  0
   -1.7516    6.2896    3.0236 H   0  0  0  0  0  0  0  0  0  0  0  0
   -0.8144    6.5618   -3.1448 H   0  0  0  0  0  0  0  0  0  0  0  0
   -3.1106   10.2251   -0.5061 H   0  0  0  0  0  0  0  0  0  0  0  0
   -1.8653   11.4644   -3.4578 H   0  0  0  0  0  0  0  0  0  0  0  0
   -4.2811   11.5703   -4.0515 H   0  0  0  0  0  0  0  0  0  0  0  0
   -5.3157    9.2644   -3.3838 H   0  0  0  0  0  0  0  0  0  0  0  0
   -4.1105    7.3695   -4.8027 H   0  0  0  0  0  0  0  0  0  0  0  0
   -2.3303    8.5089   -6.3442 H   0  0  0  0  0  0  0  0  0  0  0  0
   -4.1294   10.4490   -6.4463 H   0  0  0  0  0  0  0  0  0  0  0  0
   -2.5471   11.1781   -6.0741 H   0  0  0  0  0  0  0  0  0  0  0  0
   -0.6923    9.6208   -4.8331 H   0  0  0  0  0  0  0  0  0  0  0  0
    2.8233   -7.3562    4.5885 H   0  0  0  0  0  0  0  0  0  0  0  0
    3.2675   -8.4825    3.2981 H   0  0  0  0  0  0  0  0  0  0  0  0
    5.2625   -7.0274    2.7849 H   0  0  0  0  0  0  0  0  0  0  0  0
    5.2900   -7.6658    4.4338 H   0  0  0  0  0  0  0  0  0  0  0  0
    4.8281   -5.9861    4.1436 H   0  0  0  0  0  0  0  0  0  0  0  0
   -1.6032    3.4013    0.4533 H   0  0  0  0  0  0  0  0  0  0  0  0
    0.2739   -0.2078   -0.2121 H   0  0  0  0  0  0  0  0  0  0  0  0
   -1.1133    0.8777   -0.4656 H   0  0  0  0  0  0  0  0  0  0  0  0
    0.4482    2.8123   -0.6026 H   0  0  0  0  0  0  0  0  0  0  0  0
    0.9584    1.5500   -1.7208 H   0  0  0  0  0  0  0  0  0  0  0  0
    1.8064    1.7612   -0.1855 H   0  0  0  0  0  0  0  0  0  0  0  0
   -1.0593   -3.2417    1.0884 H   0  0  0  0  0  0  0  0  0  0  0  0
   -1.1100   -1.5132    0.7333 H   0  0  0  0  0  0  0  0  0  0  0  0
    0.7306   -1.9733   -1.0484 H   0  0  0  0  0  0  0  0  0  0  0  0
   -0.8184   -2.7630   -1.3614 H   0  0  0  0  0  0  0  0  0  0  0  0
    0.5282   -3.6820   -0.6942 H   0  0  0  0  0  0  0  0  0  0  0  0
    0.6800   -8.5720    0.6404 H   0  0  0  0  0  0  0  0  0  0  0  0
    7.5496  -11.8755   -0.5121 H   0  0  0  0  0  0  0  0  0  0  0  0
    5.8770  -13.6417   -0.8635 H   0  0  0  0  0  0  0  0  0  0  0  0
    3.4922  -13.2300   -0.4519 H   0  0  0  0  0  0  0  0  0  0  0  0
  1  2  2  0  0  0  0
  2  3  1  0  0  0  0
  3  4  2  0  0  0  0
  3  5  1  0  0  0  0
  5  6  2  0  0  0  0
  6  7  1  0  0  0  0
  7  8  2  0  0  0  0
  8  9  1  0  0  0  0
  9 10  2  0  0  0  0
 10 11  1  0  0  0  0
 11 12  2  0  0  0  0
 12 13  1  0  0  0  0
 13 14  3  0  0  0  0
 12 15  1  0  0  0  0
 15 16  3  0  0  0  0
  8 17  1  0  0  0  0
 17 18  1  0  0  0  0
 18 19  1  0  0  0  0
 19 20  2  0  0  0  0
 20 21  1  0  0  0  0
 21 22  1  0  0  0  0
 21 23  1  0  0  0  0
  1 24  1  0  0  0  0
 24 25  1  0  0  0  0
 25 26  1  0  0  0  0
 26 27  1  0  0  0  0
 27 28  1  0  0  0  0
 28 29  1  0  0  0  0
 29 30  2  0  0  0  0
 30 31  1  0  0  0  0
 31 32  1  0  0  0  0
 29 33  1  0  0  0  0
 33 34  1  0  0  0  0
 34 35  1  0  0  0  0
 35 36  1  0  0  0  0
 36 37  1  0  0  0  0
 37 38  1  0  0  0  0
 38 39  1  0  0  0  0
 37 40  2  0  0  0  0
 40 41  1  0  0  0  0
 41 42  1  0  0  0  0
 42 43  1  0  0  0  0
 43 44  1  0  0  0  0
 44 45  1  0  0  0  0
 45 46  1  0  0  0  0
 46 47  1  0  0  0  0
 47 48  1  0  0  0  0
 48 49  1  0  0  0  0
 47 50  1  0  0  0  0
 50 51  1  0  0  0  0
 44 52  1  0  0  0  0
 52 53  1  0  0  0  0
 40 54  1  0  0  0  0
 54 55  2  0  0  0  0
 55 56  1  0  0  0  0
 56 57  2  0  0  0  0
 56 58  1  0  0  0  0
 58 59  2  0  0  0  0
 59 60  1  0  0  0  0
 59 61  1  0  0  0  0
 61 62  2  0  0  0  0
 62 63  1  0  0  0  0
 63 64  2  0  0  0  0
 64 65  1  0  0  0  0
 65 66  2  0  0  0  0
 66 67  1  0  0  0  0
 67 68  3  0  0  0  0
 66 69  1  0  0  0  0
 69 70  3  0  0  0  0
 11  2  1  0  0  0  0
 23 17  1  0  0  0  0
 49 24  2  0  0  0  0
 65 55  1  0  0  0  0
 10  5  1  0  0  0  0
 22 18  1  0  0  0  0
 48 26  2  0  0  0  0
 64 58  1  0  0  0  0
 23  7  1  0  0  0  0
 46 27  2  0  0  0  0
 32 28  2  0  0  0  0
 45 33  2  0  0  0  0
 43 34  2  0  0  0  0
 42 36  2  0  0  0  0
  1 71  1  0  0  0  0
  6 72  1  0  0  0  0
  9 73  1  0  0  0  0
 17 74  1  0  0  0  0
 18 75  1  0  0  0  0
 19 76  1  0  0  0  0
 20 77  1  0  0  0  0
 21 78  1  0  0  0  0
 22 79  1  0  0  0  0
 22 80  1  0  0  0  0
 23 81  1  0  0  0  0
 38 82  1  0  0  0  0
 38 83  1  0  0  0  0
 39 84  1  0  0  0  0
 39 85  1  0  0  0  0
 39 86  1  0  0  0  0
 49 87  1  0  0  0  0
 50 88  1  0  0  0  0
 50 89  1  0  0  0  0
 51 90  1  0  0  0  0
 51 91  1  0  0  0  0
 51 92  1  0  0  0  0
 52 93  1  0  0  0  0
 52 94  1  0  0  0  0
 53 95  1  0  0  0  0
 53 96  1  0  0  0  0
 53 97  1  0  0  0  0
 54 98  1  0  0  0  0
 61 99  1  0  0  0  0
 62100  1  0  0  0  0
 63101  1  0  0  0  0
M  END
