
  xtb     02022201313D
 energy: -211.348256802137 gnorm: 0.000797907288 xtb: 6.4.1 (unknown)
125140  0     0  0            999 V2000
    5.7577   -0.3092    2.8907 C   0  0  0  0  0  0  0  0  0  0  0  0
    6.4837   -0.5495    1.7638 C   0  0  0  0  0  0  0  0  0  0  0  0
    7.8796   -0.0560    1.6470 C   0  0  0  0  0  0  0  0  0  0  0  0
    8.5784    0.3664    2.5412 O   0  0  0  0  0  0  0  0  0  0  0  0
    8.2003   -0.1374    0.2068 C   0  0  0  0  0  0  0  0  0  0  0  0
    9.3585    0.3072   -0.4263 C   0  0  0  0  0  0  0  0  0  0  0  0
    9.3669    0.1068   -1.7860 C   0  0  0  0  0  0  0  0  0  0  0  0
    8.3005   -0.4887   -2.4734 C   0  0  0  0  0  0  0  0  0  0  0  0
    7.1556   -0.9418   -1.8624 C   0  0  0  0  0  0  0  0  0  0  0  0
    7.1302   -0.7505   -0.4793 C   0  0  0  0  0  0  0  0  0  0  0  0
    6.1253   -1.1516    0.5005 C   0  0  0  0  0  0  0  0  0  0  0  0
    5.1924   -2.1434    0.3296 C   0  0  0  0  0  0  0  0  0  0  0  0
    4.5070   -2.7276    1.4143 C   0  0  0  0  0  0  0  0  0  0  0  0
    3.9780   -3.2617    2.2827 N   0  0  0  0  0  0  0  0  0  0  0  0
    4.8863   -2.7478   -0.9035 C   0  0  0  0  0  0  0  0  0  0  0  0
    4.5672   -3.2485   -1.8867 N   0  0  0  0  0  0  0  0  0  0  0  0
    8.9841   -0.3571   -3.8108 C   0  0  0  0  0  0  0  0  0  0  0  0
    8.5158    0.7779   -4.7549 C   0  0  0  0  0  0  0  0  0  0  0  0
    7.9555    1.8667   -3.8739 C   0  0  0  0  0  0  0  0  0  0  0  0
    8.9688    2.4247   -3.2252 C   0  0  0  0  0  0  0  0  0  0  0  0
   10.2329    1.7227   -3.6554 C   0  0  0  0  0  0  0  0  0  0  0  0
    9.8773    1.3941   -5.1142 C   0  0  0  0  0  0  0  0  0  0  0  0
   10.1752    0.3005   -3.0451 C   0  0  0  0  0  0  0  0  0  0  0  0
    4.3553   -0.2989    3.0532 C   0  0  0  0  0  0  0  0  0  0  0  0
    3.6850   -0.3604    4.2703 C   0  0  0  0  0  0  0  0  0  0  0  0
    4.3866   -0.6359    5.5293 C   0  0  0  0  0  0  0  0  0  0  0  0
    5.0868   -1.8359    5.6266 C   0  0  0  0  0  0  0  0  0  0  0  0
    5.7582   -2.1635    6.7885 C   0  0  0  0  0  0  0  0  0  0  0  0
    5.7425   -1.2854    7.8585 C   0  0  0  0  0  0  0  0  0  0  0  0
    5.0608   -0.0859    7.7569 C   0  0  0  0  0  0  0  0  0  0  0  0
    4.3728    0.2601    6.6018 C   0  0  0  0  0  0  0  0  0  0  0  0
    3.7197    1.6086    6.4919 C   0  0  0  0  0  0  0  0  0  0  0  0
    4.5882    2.5647    5.6713 C   0  0  0  0  0  0  0  0  0  0  0  0
    2.2983   -0.2660    4.1007 C   0  0  0  0  0  0  0  0  0  0  0  0
    0.9559   -0.3885    5.2143 S   0  0  0  0  0  0  0  0  0  0  0  0
   -0.1319   -0.2156    3.8821 C   0  0  0  0  0  0  0  0  0  0  0  0
   -1.5102   -0.2694    3.6288 C   0  0  0  0  0  0  0  0  0  0  0  0
   -2.6021   -0.5900    4.4667 C   0  0  0  0  0  0  0  0  0  0  0  0
   -3.8926   -0.8022    3.8741 C   0  0  0  0  0  0  0  0  0  0  0  0
   -4.7999   -1.1768    4.7619 N   0  0  0  0  0  0  0  0  0  0  0  0
   -4.0961   -1.2485    6.2177 S   0  0  0  0  0  0  0  0  0  0  0  0
   -2.6035   -0.8075    5.7720 N   0  0  0  0  0  0  0  0  0  0  0  0
   -4.0634   -0.5456    2.4953 C   0  0  0  0  0  0  0  0  0  0  0  0
   -5.2011   -0.5701    1.6741 C   0  0  0  0  0  0  0  0  0  0  0  0
   -6.8790   -0.9890    1.7667 S   0  0  0  0  0  0  0  0  0  0  0  0
   -7.0618   -0.4829    0.0990 C   0  0  0  0  0  0  0  0  0  0  0  0
   -8.1505   -0.4654   -0.7673 C   0  0  0  0  0  0  0  0  0  0  0  0
   -9.5031   -0.9023   -0.3859 C   0  0  0  0  0  0  0  0  0  0  0  0
  -10.0582   -2.0860   -0.8789 C   0  0  0  0  0  0  0  0  0  0  0  0
   -9.2727   -3.0144   -1.7618 C   0  0  0  0  0  0  0  0  0  0  0  0
   -8.3737   -3.9142   -0.9108 C   0  0  0  0  0  0  0  0  0  0  0  0
  -11.3359   -2.4392   -0.4652 C   0  0  0  0  0  0  0  0  0  0  0  0
  -12.0523   -1.6471    0.4136 C   0  0  0  0  0  0  0  0  0  0  0  0
  -11.4898   -0.4835    0.9090 C   0  0  0  0  0  0  0  0  0  0  0  0
  -10.2184   -0.1165    0.5116 C   0  0  0  0  0  0  0  0  0  0  0  0
   -7.8030    0.0486   -2.0235 C   0  0  0  0  0  0  0  0  0  0  0  0
   -6.0996    0.4794   -2.1214 S   0  0  0  0  0  0  0  0  0  0  0  0
   -5.8729   -0.0164   -0.4849 C   0  0  0  0  0  0  0  0  0  0  0  0
   -4.8115   -0.0813    0.4222 C   0  0  0  0  0  0  0  0  0  0  0  0
   -3.4729    0.2173    0.4261 N   0  0  0  0  0  0  0  0  0  0  0  0
   -2.9858   -0.0845    1.6856 C   0  0  0  0  0  0  0  0  0  0  0  0
   -1.6757   -0.0877    2.2266 C   0  0  0  0  0  0  0  0  0  0  0  0
   -0.4271    0.0245    1.6459 N   0  0  0  0  0  0  0  0  0  0  0  0
    0.5067   -0.0546    2.6455 C   0  0  0  0  0  0  0  0  0  0  0  0
    1.8978   -0.0965    2.7681 C   0  0  0  0  0  0  0  0  0  0  0  0
    3.2538   -0.0523    1.7021 S   0  0  0  0  0  0  0  0  0  0  0  0
   -0.0311   -0.1589    0.2668 C   0  0  0  0  0  0  0  0  0  0  0  0
    0.6052    1.1003   -0.3218 C   0  0  0  0  0  0  0  0  0  0  0  0
   -2.9899    1.1932   -0.5275 C   0  0  0  0  0  0  0  0  0  0  0  0
   -3.5637    2.5781   -0.2289 C   0  0  0  0  0  0  0  0  0  0  0  0
   -8.7419    0.2137   -3.0547 C   0  0  0  0  0  0  0  0  0  0  0  0
   -8.5826    0.6995   -4.3193 C   0  0  0  0  0  0  0  0  0  0  0  0
   -9.9403    0.8033   -5.4295 S   0  0  0  0  0  0  0  0  0  0  0  0
   -8.9301    1.4964   -6.6863 C   0  0  0  0  0  0  0  0  0  0  0  0
   -9.4650    1.9310   -8.1658 S   0  0  0  0  0  0  0  0  0  0  0  0
   -7.6534    1.6243   -6.2413 N   0  0  0  0  0  0  0  0  0  0  0  0
   -6.5958    2.1580   -7.0772 C   0  0  0  0  0  0  0  0  0  0  0  0
   -6.0063    1.0811   -7.9789 C   0  0  0  0  0  0  0  0  0  0  0  0
   -7.3824    1.1988   -4.9542 C   0  0  0  0  0  0  0  0  0  0  0  0
   -6.2668    1.2684   -4.4652 O   0  0  0  0  0  0  0  0  0  0  0  0
    6.3298   -0.0116    3.7649 H   0  0  0  0  0  0  0  0  0  0  0  0
   10.1599    0.7586    0.1374 H   0  0  0  0  0  0  0  0  0  0  0  0
    6.3387   -1.3989   -2.3970 H   0  0  0  0  0  0  0  0  0  0  0  0
    9.1710   -1.2876   -4.3432 H   0  0  0  0  0  0  0  0  0  0  0  0
    7.8822    0.4499   -5.5747 H   0  0  0  0  0  0  0  0  0  0  0  0
    6.9063    2.0745   -3.7723 H   0  0  0  0  0  0  0  0  0  0  0  0
    8.9355    3.1916   -2.4735 H   0  0  0  0  0  0  0  0  0  0  0  0
   11.1632    2.2548   -3.4746 H   0  0  0  0  0  0  0  0  0  0  0  0
   10.5636    0.6880   -5.5795 H   0  0  0  0  0  0  0  0  0  0  0  0
    9.7866    2.2833   -5.7363 H   0  0  0  0  0  0  0  0  0  0  0  0
   11.1391   -0.2037   -3.0747 H   0  0  0  0  0  0  0  0  0  0  0  0
    5.0780   -2.5160    4.7871 H   0  0  0  0  0  0  0  0  0  0  0  0
    6.2922   -3.0990    6.8566 H   0  0  0  0  0  0  0  0  0  0  0  0
    6.2660   -1.5313    8.7704 H   0  0  0  0  0  0  0  0  0  0  0  0
    5.0631    0.6020    8.5903 H   0  0  0  0  0  0  0  0  0  0  0  0
    2.7384    1.5226    6.0243 H   0  0  0  0  0  0  0  0  0  0  0  0
    3.5788    2.0224    7.4919 H   0  0  0  0  0  0  0  0  0  0  0  0
    4.7077    2.1991    4.6537 H   0  0  0  0  0  0  0  0  0  0  0  0
    5.5755    2.6580    6.1184 H   0  0  0  0  0  0  0  0  0  0  0  0
    4.1310    3.5507    5.6315 H   0  0  0  0  0  0  0  0  0  0  0  0
   -9.9601   -3.6353   -2.3394 H   0  0  0  0  0  0  0  0  0  0  0  0
   -8.6542   -2.4520   -2.4629 H   0  0  0  0  0  0  0  0  0  0  0  0
   -7.8180   -4.6016   -1.5441 H   0  0  0  0  0  0  0  0  0  0  0  0
   -8.9717   -4.4920   -0.2099 H   0  0  0  0  0  0  0  0  0  0  0  0
   -7.6652   -3.3166   -0.3419 H   0  0  0  0  0  0  0  0  0  0  0  0
  -11.7728   -3.3541   -0.8391 H   0  0  0  0  0  0  0  0  0  0  0  0
  -13.0457   -1.9417    0.7171 H   0  0  0  0  0  0  0  0  0  0  0  0
  -12.0377    0.1359    1.6028 H   0  0  0  0  0  0  0  0  0  0  0  0
   -9.7692    0.7901    0.8900 H   0  0  0  0  0  0  0  0  0  0  0  0
    0.7076   -0.9683    0.2370 H   0  0  0  0  0  0  0  0  0  0  0  0
   -0.8974   -0.4865   -0.3090 H   0  0  0  0  0  0  0  0  0  0  0  0
    0.7734    0.9624   -1.3861 H   0  0  0  0  0  0  0  0  0  0  0  0
   -0.0229    1.9761   -0.1735 H   0  0  0  0  0  0  0  0  0  0  0  0
    1.5627    1.2934    0.1540 H   0  0  0  0  0  0  0  0  0  0  0  0
   -1.9088    1.2459   -0.4949 H   0  0  0  0  0  0  0  0  0  0  0  0
   -3.3066    0.8702   -1.5234 H   0  0  0  0  0  0  0  0  0  0  0  0
   -3.1772    3.2957   -0.9470 H   0  0  0  0  0  0  0  0  0  0  0  0
   -4.6478    2.5694   -0.3009 H   0  0  0  0  0  0  0  0  0  0  0  0
   -3.2826    2.8961    0.7733 H   0  0  0  0  0  0  0  0  0  0  0  0
   -9.7471   -0.0944   -2.7867 H   0  0  0  0  0  0  0  0  0  0  0  0
   -7.0168    2.9686   -7.6765 H   0  0  0  0  0  0  0  0  0  0  0  0
   -5.8330    2.5476   -6.3987 H   0  0  0  0  0  0  0  0  0  0  0  0
   -5.2098    1.5081   -8.5811 H   0  0  0  0  0  0  0  0  0  0  0  0
   -5.5978    0.2701   -7.3804 H   0  0  0  0  0  0  0  0  0  0  0  0
   -6.7712    0.6850   -8.6423 H   0  0  0  0  0  0  0  0  0  0  0  0
  1  2  2  0  0  0  0
  2  3  1  0  0  0  0
  3  4  2  0  0  0  0
  3  5  1  0  0  0  0
  5  6  2  0  0  0  0
  6  7  1  0  0  0  0
  7  8  2  0  0  0  0
  8  9  1  0  0  0  0
  9 10  2  0  0  0  0
 10 11  1  0  0  0  0
 11 12  2  0  0  0  0
 12 13  1  0  0  0  0
 13 14  3  0  0  0  0
 12 15  1  0  0  0  0
 15 16  3  0  0  0  0
  8 17  1  0  0  0  0
 17 18  1  0  0  0  0
 18 19  1  0  0  0  0
 19 20  2  0  0  0  0
 20 21  1  0  0  0  0
 21 22  1  0  0  0  0
 21 23  1  0  0  0  0
  1 24  1  0  0  0  0
 24 25  2  0  0  0  0
 25 26  1  0  0  0  0
 26 27  2  0  0  0  0
 27 28  1  0  0  0  0
 28 29  2  0  0  0  0
 29 30  1  0  0  0  0
 30 31  2  0  0  0  0
 31 32  1  0  0  0  0
 32 33  1  0  0  0  0
 25 34  1  0  0  0  0
 34 35  1  0  0  0  0
 35 36  1  0  0  0  0
 36 37  1  0  0  0  0
 37 38  1  0  0  0  0
 38 39  1  0  0  0  0
 39 40  2  0  0  0  0
 40 41  1  0  0  0  0
 41 42  1  0  0  0  0
 39 43  1  0  0  0  0
 43 44  1  0  0  0  0
 44 45  1  0  0  0  0
 45 46  1  0  0  0  0
 46 47  1  0  0  0  0
 47 48  1  0  0  0  0
 48 49  2  0  0  0  0
 49 50  1  0  0  0  0
 50 51  1  0  0  0  0
 49 52  1  0  0  0  0
 52 53  2  0  0  0  0
 53 54  1  0  0  0  0
 54 55  2  0  0  0  0
 47 56  2  0  0  0  0
 56 57  1  0  0  0  0
 57 58  1  0  0  0  0
 58 59  1  0  0  0  0
 59 60  1  0  0  0  0
 60 61  1  0  0  0  0
 61 62  1  0  0  0  0
 62 63  1  0  0  0  0
 63 64  1  0  0  0  0
 64 65  1  0  0  0  0
 65 66  1  0  0  0  0
 63 67  1  0  0  0  0
 67 68  1  0  0  0  0
 60 69  1  0  0  0  0
 69 70  1  0  0  0  0
 56 71  1  0  0  0  0
 71 72  2  0  0  0  0
 72 73  1  0  0  0  0
 73 74  1  0  0  0  0
 74 75  2  0  0  0  0
 74 76  1  0  0  0  0
 76 77  1  0  0  0  0
 77 78  1  0  0  0  0
 76 79  1  0  0  0  0
 79 80  2  0  0  0  0
 11  2  1  0  0  0  0
 23 17  1  0  0  0  0
 66 24  1  0  0  0  0
 79 72  1  0  0  0  0
 10  5  1  0  0  0  0
 22 18  1  0  0  0  0
 31 26  1  0  0  0  0
 65 34  2  0  0  0  0
 23  7  1  0  0  0  0
 64 36  2  0  0  0  0
 62 37  2  0  0  0  0
 42 38  2  0  0  0  0
 61 43  2  0  0  0  0
 59 44  2  0  0  0  0
 58 46  2  0  0  0  0
 55 48  1  0  0  0  0
  1 81  1  0  0  0  0
  6 82  1  0  0  0  0
  9 83  1  0  0  0  0
 17 84  1  0  0  0  0
 18 85  1  0  0  0  0
 19 86  1  0  0  0  0
 20 87  1  0  0  0  0
 21 88  1  0  0  0  0
 22 89  1  0  0  0  0
 22 90  1  0  0  0  0
 23 91  1  0  0  0  0
 27 92  1  0  0  0  0
 28 93  1  0  0  0  0
 29 94  1  0  0  0  0
 30 95  1  0  0  0  0
 32 96  1  0  0  0  0
 32 97  1  0  0  0  0
 33 98  1  0  0  0  0
 33 99  1  0  0  0  0
 33100  1  0  0  0  0
 50101  1  0  0  0  0
 50102  1  0  0  0  0
 51103  1  0  0  0  0
 51104  1  0  0  0  0
 51105  1  0  0  0  0
 52106  1  0  0  0  0
 53107  1  0  0  0  0
 54108  1  0  0  0  0
 55109  1  0  0  0  0
 67110  1  0  0  0  0
 67111  1  0  0  0  0
 68112  1  0  0  0  0
 68113  1  0  0  0  0
 68114  1  0  0  0  0
 69115  1  0  0  0  0
 69116  1  0  0  0  0
 70117  1  0  0  0  0
 70118  1  0  0  0  0
 70119  1  0  0  0  0
 71120  1  0  0  0  0
 77121  1  0  0  0  0
 77122  1  0  0  0  0
 78123  1  0  0  0  0
 78124  1  0  0  0  0
 78125  1  0  0  0  0
M  END
