108

C          1.21600       -5.75870        0.39200
C          0.56500       -6.72480       -0.33330
C         -0.43550       -6.57940       -1.41020
O         -1.00820       -5.57740       -1.79470
C         -0.62610       -7.93110       -1.97200
C         -1.43470       -8.27530       -3.05230
C         -1.39820       -9.61020       -3.37580
C         -0.60570      -10.53390       -2.68190
C          0.19220      -10.20790       -1.61130
C          0.15870       -8.85590       -1.25780
C          0.85630       -8.14100       -0.19220
C          1.60560       -8.74100        0.79040
C          2.24210       -8.09220        1.86810
N          2.78170       -7.65300        2.78420
C          1.82840      -10.13030        0.88840
N          2.05530      -11.24540        1.04420
C         -1.04760      -11.68580       -3.54950
C         -2.08600      -12.67300       -2.96290
C         -2.87610      -11.90060       -1.93580
C         -3.63390      -11.02550       -2.58320
C         -3.37040      -11.19060       -4.05950
C         -3.09910      -12.70240       -4.11840
C         -1.93850      -10.65820       -4.31620
C          1.11610       -4.35890        0.41280
C          0.23240       -3.48610       -0.25480
C          0.58890       -2.21030        0.13960
C          1.68440       -2.31340        1.02490
N          1.98920       -3.61180        1.20500
C          3.09280       -4.09240        2.00260
C          4.31410       -4.40570        1.14060
C          2.07920       -1.00280        1.34700
C          3.18670       -0.50360        2.06730
C          3.42510        0.91070        2.08850
N          4.52890        1.23220        2.74300
S          5.21390       -0.12410        3.29750
N          4.12300       -1.17760        2.72030
C          2.47010        1.77030        1.50380
C          2.36230        3.16470        1.51520
S          3.25940        4.53160        2.07370
C          1.94190        5.56360        1.55080
C          1.76280        6.93670        1.60670
C          2.76640        7.85940        2.21680
C          2.42280        8.14570        3.68130
C          0.51390        7.31270        1.07590
S         -0.40850        5.92040        0.50360
C          0.86810        4.86110        0.97070
C          1.12460        3.48800        0.94050
N          0.48500        2.34110        0.54850
C          1.29710        1.26900        0.86390
C          1.16860       -0.13110        0.67180
N          0.27750       -0.88850       -0.06920
C         -0.52270       -0.53160       -1.21920
C         -2.00060       -0.85750       -1.01480
C         -0.92350        2.37090        0.22160
C         -1.19560        2.95230       -1.16510
C          0.08340        8.63850        1.01830
C         -1.09020        9.19040        0.55670
C         -2.22430        8.46120       -0.00790
O         -2.32970        7.25980       -0.18840
C         -3.24360        9.48020       -0.33350
C         -4.49570        9.29640       -0.88250
C         -5.26030       10.43550       -1.08650
F         -6.48780       10.30780       -1.61910
C         -4.80540       11.70360       -0.76020
C         -3.54340       11.87230       -0.20930
C         -2.75320       10.75290        0.00630
C         -1.40530       10.60390        0.55780
C         -0.60910       11.63920        0.97930
C         -0.98940       12.99710        0.94070
N         -1.23030       14.11980        0.93580
C          0.69460       11.52030        1.50340
N          1.75830       11.51210        1.93890
H          1.97370       -6.14060        1.06100
H         -2.02090       -7.52840       -3.56470
H          0.79880      -10.93110       -1.09290
H         -0.26090      -12.19170       -4.10580
H         -1.67130      -13.62240       -2.63510
H         -2.76250      -12.02630       -0.87500
H         -4.28030      -10.27300       -2.17070
H         -4.12720      -10.79130       -4.72980
H         -3.98160      -13.29800       -3.89000
H         -2.66910      -13.02940       -5.06430
H         -1.73970      -10.49970       -5.37460
H         -0.53940       -3.80280       -0.92420
H          2.78950       -4.97590        2.57040
H          3.35160       -3.29470        2.70230
H          4.66080       -3.50170        0.64580
H          5.11240       -4.78660        1.77000
H          4.08180       -5.15120        0.38340
H          3.74500        7.37760        2.16880
H          2.82130        8.80020        1.66740
H          1.45100        8.62680        3.76250
H          3.17040        8.80590        4.11140
H          2.40230        7.22060        4.25260
H         -0.37290        0.51940       -1.45010
H         -0.15560       -1.11650       -2.07140
H         -2.56750       -0.53810       -1.88490
H         -2.13310       -1.92800       -0.88880
H         -2.40530       -0.36240       -0.13500
H         -1.42370        3.00360        0.96350
H         -1.32110        1.36340        0.32060
H         -0.57040        2.49100       -1.92640
H         -1.00170        4.02090       -1.17290
H         -2.23820        2.79480       -1.42530
H          0.80710        9.33840        1.41240
H         -4.86220        8.31570       -1.13990
H         -5.44410       12.55380       -0.94060
H         -3.20240       12.86340        0.03950
