
  xtb     02022208493D
 energy: -183.175552697005 gnorm: 0.000383922919 xtb: 6.4.1 (unknown)
107119  0     0  0            999 V2000
   -4.4968    2.7447    1.7866 C   0  0  0  0  0  0  0  0  0  0  0  0
   -5.1317    3.7047    1.0372 C   0  0  0  0  0  0  0  0  0  0  0  0
   -4.6786    4.3875   -0.1913 C   0  0  0  0  0  0  0  0  0  0  0  0
   -3.5998    4.3283   -0.7510 O   0  0  0  0  0  0  0  0  0  0  0  0
   -5.8260    5.1897   -0.6577 C   0  0  0  0  0  0  0  0  0  0  0  0
   -5.8763    5.9726   -1.8081 C   0  0  0  0  0  0  0  0  0  0  0  0
   -7.0825    6.5999   -2.0054 C   0  0  0  0  0  0  0  0  0  0  0  0
   -8.1592    6.4604   -1.1200 C   0  0  0  0  0  0  0  0  0  0  0  0
   -8.1193    5.6963    0.0220 C   0  0  0  0  0  0  0  0  0  0  0  0
   -6.9006    5.0468    0.2396 C   0  0  0  0  0  0  0  0  0  0  0  0
   -6.4813    4.1591    1.3220 C   0  0  0  0  0  0  0  0  0  0  0  0
   -7.2443    3.8598    2.4250 C   0  0  0  0  0  0  0  0  0  0  0  0
   -8.5520    4.3390    2.6475 C   0  0  0  0  0  0  0  0  0  0  0  0
   -9.6183    4.6783    2.9067 N   0  0  0  0  0  0  0  0  0  0  0  0
   -6.8595    3.0557    3.5170 C   0  0  0  0  0  0  0  0  0  0  0  0
   -6.6343    2.4249    4.4523 N   0  0  0  0  0  0  0  0  0  0  0  0
   -9.0554    7.3508   -1.9436 C   0  0  0  0  0  0  0  0  0  0  0  0
  -10.1353    6.6725   -2.8223 C   0  0  0  0  0  0  0  0  0  0  0  0
   -9.6212    5.2915   -3.1452 C   0  0  0  0  0  0  0  0  0  0  0  0
   -8.6020    5.4245   -3.9833 C   0  0  0  0  0  0  0  0  0  0  0  0
   -8.4084    6.8982   -4.2421 C   0  0  0  0  0  0  0  0  0  0  0  0
   -9.8652    7.3812   -4.1593 C   0  0  0  0  0  0  0  0  0  0  0  0
   -7.8552    7.5073   -2.9298 C   0  0  0  0  0  0  0  0  0  0  0  0
   -3.2176    2.1751    1.7048 C   0  0  0  0  0  0  0  0  0  0  0  0
   -2.1227    2.4872    0.8719 C   0  0  0  0  0  0  0  0  0  0  0  0
   -1.1208    1.6007    1.2127 C   0  0  0  0  0  0  0  0  0  0  0  0
   -1.5970    0.7789    2.2593 C   0  0  0  0  0  0  0  0  0  0  0  0
   -2.8592    1.1334    2.5623 N   0  0  0  0  0  0  0  0  0  0  0  0
   -3.6937    0.4440    3.5184 C   0  0  0  0  0  0  0  0  0  0  0  0
   -4.6299   -0.5504    2.8342 C   0  0  0  0  0  0  0  0  0  0  0  0
   -0.5433   -0.0808    2.6230 C   0  0  0  0  0  0  0  0  0  0  0  0
   -0.3784   -1.0030    3.6797 C   0  0  0  0  0  0  0  0  0  0  0  0
    0.8895   -1.6581    3.8489 C   0  0  0  0  0  0  0  0  0  0  0  0
    0.9169   -2.4433    4.9134 N   0  0  0  0  0  0  0  0  0  0  0  0
   -0.5228   -2.3757    5.6456 S   0  0  0  0  0  0  0  0  0  0  0  0
   -1.2427   -1.3358    4.6283 N   0  0  0  0  0  0  0  0  0  0  0  0
    1.8938   -1.4667    2.8743 C   0  0  0  0  0  0  0  0  0  0  0  0
    3.1283   -2.0978    2.6682 C   0  0  0  0  0  0  0  0  0  0  0  0
    4.1475   -3.2653    3.4376 S   0  0  0  0  0  0  0  0  0  0  0  0
    5.2410   -3.1666    2.0711 C   0  0  0  0  0  0  0  0  0  0  0  0
    6.4356   -3.8153    1.7789 C   0  0  0  0  0  0  0  0  0  0  0  0
    7.0390   -4.8400    2.6842 C   0  0  0  0  0  0  0  0  0  0  0  0
    6.5924   -6.2492    2.2862 C   0  0  0  0  0  0  0  0  0  0  0  0
    6.9374   -3.4232    0.5302 C   0  0  0  0  0  0  0  0  0  0  0  0
    5.9101   -2.2230   -0.2534 S   0  0  0  0  0  0  0  0  0  0  0  0
    4.8202   -2.2654    1.0799 C   0  0  0  0  0  0  0  0  0  0  0  0
    3.6169   -1.6491    1.4345 C   0  0  0  0  0  0  0  0  0  0  0  0
    2.7568   -0.7304    0.8925 N   0  0  0  0  0  0  0  0  0  0  0  0
    1.6925   -0.5939    1.7666 C   0  0  0  0  0  0  0  0  0  0  0  0
    0.5293    0.2108    1.7277 C   0  0  0  0  0  0  0  0  0  0  0  0
    0.1745    1.2596    0.8978 N   0  0  0  0  0  0  0  0  0  0  0  0
    1.0314    2.2376    0.2629 C   0  0  0  0  0  0  0  0  0  0  0  0
    0.7385    2.3747   -1.2288 C   0  0  0  0  0  0  0  0  0  0  0  0
    2.7861   -0.4853   -0.5347 C   0  0  0  0  0  0  0  0  0  0  0  0
    1.7004   -1.2847   -1.2503 C   0  0  0  0  0  0  0  0  0  0  0  0
    8.1137   -3.9366   -0.0350 C   0  0  0  0  0  0  0  0  0  0  0  0
    8.7049   -3.6795   -1.2392 C   0  0  0  0  0  0  0  0  0  0  0  0
   10.1919   -4.5036   -1.6962 S   0  0  0  0  0  0  0  0  0  0  0  0
   10.2307   -3.6755   -3.2334 C   0  0  0  0  0  0  0  0  0  0  0  0
   11.2468   -3.9172   -4.1250 C   0  0  0  0  0  0  0  0  0  0  0  0
   11.4076   -3.3354   -5.3931 C   0  0  0  0  0  0  0  0  0  0  0  0
   11.5968   -2.9018   -6.4401 N   0  0  0  0  0  0  0  0  0  0  0  0
   12.2562   -4.8411   -3.7838 C   0  0  0  0  0  0  0  0  0  0  0  0
   13.0792   -5.5932   -3.5133 N   0  0  0  0  0  0  0  0  0  0  0  0
    9.1782   -2.8251   -3.3594 N   0  0  0  0  0  0  0  0  0  0  0  0
    8.8983   -2.0156   -4.5309 C   0  0  0  0  0  0  0  0  0  0  0  0
    8.1686   -2.8158   -5.6032 C   0  0  0  0  0  0  0  0  0  0  0  0
    8.2904   -2.7845   -2.2927 C   0  0  0  0  0  0  0  0  0  0  0  0
    7.3106   -2.0591   -2.2989 O   0  0  0  0  0  0  0  0  0  0  0  0
   -5.0965    2.3333    2.5856 H   0  0  0  0  0  0  0  0  0  0  0  0
   -5.0214    6.0514   -2.4616 H   0  0  0  0  0  0  0  0  0  0  0  0
   -8.9584    5.6012    0.6902 H   0  0  0  0  0  0  0  0  0  0  0  0
   -9.4270    8.2447   -1.4466 H   0  0  0  0  0  0  0  0  0  0  0  0
  -11.1435    6.7272   -2.4207 H   0  0  0  0  0  0  0  0  0  0  0  0
  -10.0025    4.3914   -2.6995 H   0  0  0  0  0  0  0  0  0  0  0  0
   -7.9613    4.6576   -4.3778 H   0  0  0  0  0  0  0  0  0  0  0  0
   -7.8445    7.1589   -5.1341 H   0  0  0  0  0  0  0  0  0  0  0  0
  -10.4825    6.9992   -4.9710 H   0  0  0  0  0  0  0  0  0  0  0  0
   -9.9605    8.4647   -4.1029 H   0  0  0  0  0  0  0  0  0  0  0  0
   -7.4430    8.5039   -3.0765 H   0  0  0  0  0  0  0  0  0  0  0  0
   -2.1251    3.2618    0.1346 H   0  0  0  0  0  0  0  0  0  0  0  0
   -4.2704    1.1666    4.1019 H   0  0  0  0  0  0  0  0  0  0  0  0
   -3.0237   -0.0963    4.1924 H   0  0  0  0  0  0  0  0  0  0  0  0
   -5.2482   -1.0381    3.5816 H   0  0  0  0  0  0  0  0  0  0  0  0
   -5.2796   -0.0505    2.1191 H   0  0  0  0  0  0  0  0  0  0  0  0
   -4.0531   -1.3081    2.3086 H   0  0  0  0  0  0  0  0  0  0  0  0
    6.7026   -4.6349    3.7023 H   0  0  0  0  0  0  0  0  0  0  0  0
    8.1282   -4.7777    2.6670 H   0  0  0  0  0  0  0  0  0  0  0  0
    5.5090   -6.3257    2.3339 H   0  0  0  0  0  0  0  0  0  0  0  0
    6.9107   -6.4836    1.2729 H   0  0  0  0  0  0  0  0  0  0  0  0
    7.0212   -6.9818    2.9648 H   0  0  0  0  0  0  0  0  0  0  0  0
    0.8443    3.2058    0.7442 H   0  0  0  0  0  0  0  0  0  0  0  0
    2.0729    1.9767    0.4548 H   0  0  0  0  0  0  0  0  0  0  0  0
   -0.2795    2.7240   -1.3754 H   0  0  0  0  0  0  0  0  0  0  0  0
    0.8494    1.4261   -1.7464 H   0  0  0  0  0  0  0  0  0  0  0  0
    1.4185    3.0984   -1.6703 H   0  0  0  0  0  0  0  0  0  0  0  0
    2.6827    0.5751   -0.7545 H   0  0  0  0  0  0  0  0  0  0  0  0
    3.7709   -0.8026   -0.8859 H   0  0  0  0  0  0  0  0  0  0  0  0
    0.7122   -0.9875   -0.9059 H   0  0  0  0  0  0  0  0  0  0  0  0
    1.8273   -2.3476   -1.0573 H   0  0  0  0  0  0  0  0  0  0  0  0
    1.7655   -1.1182   -2.3220 H   0  0  0  0  0  0  0  0  0  0  0  0
    8.6307   -4.6608    0.5830 H   0  0  0  0  0  0  0  0  0  0  0  0
    9.8327   -1.6062   -4.9172 H   0  0  0  0  0  0  0  0  0  0  0  0
    8.2603   -1.1987   -4.1817 H   0  0  0  0  0  0  0  0  0  0  0  0
    7.9539   -2.1696   -6.4488 H   0  0  0  0  0  0  0  0  0  0  0  0
    7.2310   -3.2021   -5.2094 H   0  0  0  0  0  0  0  0  0  0  0  0
    8.7772   -3.6458   -5.9543 H   0  0  0  0  0  0  0  0  0  0  0  0
  1  2  2  0  0  0  0
  2  3  1  0  0  0  0
  3  4  2  0  0  0  0
  3  5  1  0  0  0  0
  5  6  2  0  0  0  0
  6  7  1  0  0  0  0
  7  8  2  0  0  0  0
  8  9  1  0  0  0  0
  9 10  2  0  0  0  0
 10 11  1  0  0  0  0
 11 12  2  0  0  0  0
 12 13  1  0  0  0  0
 13 14  3  0  0  0  0
 12 15  1  0  0  0  0
 15 16  3  0  0  0  0
  8 17  1  0  0  0  0
 17 18  1  0  0  0  0
 18 19  1  0  0  0  0
 19 20  2  0  0  0  0
 20 21  1  0  0  0  0
 21 22  1  0  0  0  0
 21 23  1  0  0  0  0
  1 24  1  0  0  0  0
 24 25  2  0  0  0  0
 25 26  1  0  0  0  0
 26 27  2  0  0  0  0
 27 28  1  0  0  0  0
 28 29  1  0  0  0  0
 29 30  1  0  0  0  0
 27 31  1  0  0  0  0
 31 32  1  0  0  0  0
 32 33  1  0  0  0  0
 33 34  2  0  0  0  0
 34 35  1  0  0  0  0
 35 36  1  0  0  0  0
 33 37  1  0  0  0  0
 37 38  1  0  0  0  0
 38 39  1  0  0  0  0
 39 40  1  0  0  0  0
 40 41  1  0  0  0  0
 41 42  1  0  0  0  0
 42 43  1  0  0  0  0
 41 44  2  0  0  0  0
 44 45  1  0  0  0  0
 45 46  1  0  0  0  0
 46 47  1  0  0  0  0
 47 48  1  0  0  0  0
 48 49  1  0  0  0  0
 49 50  1  0  0  0  0
 50 51  1  0  0  0  0
 51 52  1  0  0  0  0
 52 53  1  0  0  0  0
 48 54  1  0  0  0  0
 54 55  1  0  0  0  0
 44 56  1  0  0  0  0
 56 57  2  0  0  0  0
 57 58  1  0  0  0  0
 58 59  1  0  0  0  0
 59 60  2  0  0  0  0
 60 61  1  0  0  0  0
 61 62  3  0  0  0  0
 60 63  1  0  0  0  0
 63 64  3  0  0  0  0
 59 65  1  0  0  0  0
 65 66  1  0  0  0  0
 66 67  1  0  0  0  0
 65 68  1  0  0  0  0
 68 69  2  0  0  0  0
 11  2  1  0  0  0  0
 23 17  1  0  0  0  0
 28 24  1  0  0  0  0
 50 31  2  0  0  0  0
 68 57  1  0  0  0  0
 10  5  1  0  0  0  0
 22 18  1  0  0  0  0
 51 26  1  0  0  0  0
 23  7  1  0  0  0  0
 36 32  2  0  0  0  0
 49 37  2  0  0  0  0
 47 38  2  0  0  0  0
 46 40  2  0  0  0  0
  1 70  1  0  0  0  0
  6 71  1  0  0  0  0
  9 72  1  0  0  0  0
 17 73  1  0  0  0  0
 18 74  1  0  0  0  0
 19 75  1  0  0  0  0
 20 76  1  0  0  0  0
 21 77  1  0  0  0  0
 22 78  1  0  0  0  0
 22 79  1  0  0  0  0
 23 80  1  0  0  0  0
 25 81  1  0  0  0  0
 29 82  1  0  0  0  0
 29 83  1  0  0  0  0
 30 84  1  0  0  0  0
 30 85  1  0  0  0  0
 30 86  1  0  0  0  0
 42 87  1  0  0  0  0
 42 88  1  0  0  0  0
 43 89  1  0  0  0  0
 43 90  1  0  0  0  0
 43 91  1  0  0  0  0
 52 92  1  0  0  0  0
 52 93  1  0  0  0  0
 53 94  1  0  0  0  0
 53 95  1  0  0  0  0
 53 96  1  0  0  0  0
 54 97  1  0  0  0  0
 54 98  1  0  0  0  0
 55 99  1  0  0  0  0
 55100  1  0  0  0  0
 55101  1  0  0  0  0
 56102  1  0  0  0  0
 66103  1  0  0  0  0
 66104  1  0  0  0  0
 67105  1  0  0  0  0
 67106  1  0  0  0  0
 67107  1  0  0  0  0
M  END
