136

C          5.32360       -0.87160        4.94430
C          5.05830       -2.14400        5.38060
C          3.87280       -2.93820        5.04770
O          2.94980       -2.62300        4.31350
C          4.00160       -4.20580        5.78340
C          3.10680       -5.27300        5.77770
C          3.49600       -6.33260        6.56100
C          4.69000       -6.33160        7.29400
C          5.58220       -5.28560        7.30630
C          5.20460       -4.19480        6.51850
C          5.89050       -2.92640        6.27290
C          7.11750       -2.57800        6.77680
C          7.82580       -1.39060        6.49520
N          8.48930       -0.46980        6.31470
C          7.87830       -3.38210        7.65140
N          8.55080       -3.97700        8.36750
C          4.44150       -7.71030        7.85240
C          3.94850       -7.81870        9.31640
C          3.22400       -6.53110        9.62090
C          2.09250       -6.52980        8.92900
C          2.03140       -7.81680        8.14390
C          2.75170       -8.76270        9.11800
C          3.10990       -7.71040        7.03720
C          4.61610       -0.04790        4.05900
C          5.08180        1.23220        3.71490
C          6.31610        1.83470        4.24250
C          6.19820        2.86450        5.17020
C          7.32470        3.46010        5.70320
C          8.57910        3.03290        5.30370
C          8.69790        2.02300        4.36760
C          7.57860        1.40800        3.82410
C          7.74240        0.37070        2.74930
C          7.65670        1.02370        1.36790
C          4.22030        1.87200        2.83310
S          4.27150        3.43850        2.04790
C          2.79650        3.04120        1.23290
C          1.90050        3.61500        0.31600
C          1.78650        4.90610       -0.25140
C          0.63980        5.21890       -1.06480
N          0.63270        6.48170       -1.45880
S          1.95080        7.21470       -0.87090
N          2.58360        5.94900       -0.08640
C         -0.26660        4.18760       -1.40710
C         -1.36100        4.12150       -2.28360
S         -2.30900        5.17500       -3.27740
C         -3.24400        3.78660       -3.80300
C         -4.32360        3.64500       -4.66210
C         -5.00880        4.73760       -5.36730
C         -4.40830        5.41700       -6.42900
C         -3.06320        5.01090       -6.95980
C         -3.20130        3.80120       -7.88730
C         -5.12460        6.42760       -7.05570
C         -6.40030        6.76720       -6.64630
C         -6.99030        6.08900       -5.59400
C         -6.29740        5.07570       -4.96170
C         -4.74100        2.30180       -4.75360
S         -3.78050        1.23140       -3.73560
C         -2.82580        2.57270       -3.22360
C         -1.75510        2.77580       -2.35300
N         -0.96270        2.01010       -1.53350
C         -0.06920        2.86550       -0.92260
C          0.90710        2.62960        0.06720
N          1.14230        1.52410        0.85960
C          2.29890        1.76960        1.55670
C          3.10540        1.09440        2.47550
S          3.10030       -0.44520        3.25410
C          0.14610        0.61400        1.39080
C         -0.28340        1.02750        2.79790
C         -0.75910        0.60380       -1.82140
C         -0.19590        0.40570       -3.22830
C         -5.75640        1.91430       -5.62810
C         -6.30290        0.67570       -5.87360
C         -5.98640       -0.55670       -5.15410
O         -5.14110       -0.72140       -4.28940
C         -6.91050       -1.58230       -5.67380
C         -7.03310       -2.88930       -5.30320
C         -8.00460       -3.69400       -5.93990
C         -8.17460       -5.04900       -5.59690
C         -9.12350       -5.80420       -6.22730
F         -9.28370       -7.09450       -5.89880
C         -9.94120       -5.23890       -7.22530
F        -10.86350       -6.00340       -7.82660
C         -9.79940       -3.92650       -7.57980
C         -8.83020       -3.12100       -6.94950
C         -8.67600       -1.76250       -7.31270
C         -7.72690       -1.00140       -6.68450
C         -7.33600        0.39860       -6.84670
C         -7.83950        1.25740       -7.79210
C         -7.40980        2.58200       -8.01710
N         -7.10790        3.65820       -8.28450
C         -8.85360        0.90880       -8.70750
N         -9.67990        0.68550       -9.47310
H          6.22370       -0.40060        5.32250
H          2.20010       -5.23280        5.19440
H          6.49660       -5.30410        7.87490
H          5.18820       -8.46370        7.60940
H          4.71200       -8.12000       10.02840
H          3.62340       -5.75260       10.24420
H          1.35750       -5.74950        8.85840
H          1.04870       -8.11670        7.78930
H          3.02260       -9.71930        8.67330
H          2.19010       -8.92950       10.03590
H          2.98600       -8.46570        6.26340
H          5.21310        3.18500        5.47820
H          7.22200        4.25220        6.42960
H          9.46480        3.48790        5.72050
H          9.67780        1.69510        4.05430
H          6.97170       -0.39790        2.82980
H          8.71360       -0.11380        2.86210
H          8.43030        1.78020        1.25900
H          7.78600        0.27800        0.58670
H          6.69000        1.50380        1.23270
H         -2.63170        5.84250       -7.51920
H         -2.38330        4.76610       -6.14250
H         -3.92070        4.01220       -8.67500
H         -2.24300        3.56090       -8.34210
H         -3.54930        2.93070       -7.33520
H         -4.67290        6.94980       -7.88650
H         -6.93810        7.55380       -7.15310
H         -7.98860        6.34230       -5.27050
H         -6.74750        4.53790       -4.13870
H         -0.73110        0.62930        0.74670
H          0.57110       -0.39410        1.41670
H          0.54860        0.96670        3.49310
H         -1.06940        0.36280        3.14480
H         -0.66380        2.04700        2.79150
H         -0.04980        0.19020       -1.10760
H         -1.71950        0.08730       -1.73150
H          0.73700        0.95440       -3.34090
H         -0.00270       -0.65030       -3.39390
H         -0.89850        0.74850       -3.98220
H         -6.16340        2.74450       -6.19320
H         -6.39840       -3.30450       -4.53500
H         -7.55640       -5.49660       -4.83450
H        -10.43320       -3.50930       -8.34680
H         -9.31780       -1.35960       -8.07920
