
  xtb     02112205073D
 energy: -190.058786900892 gnorm: 0.000579638898 xtb: 6.4.1 (unknown)
104118  0     0  0            999 V2000
   -5.3856    2.3517   -3.0232 C   0  0  0  0  0  0  0  0  0  0  0  0
   -4.6838    3.3573   -3.6122 C   0  0  0  0  0  0  0  0  0  0  0  0
   -5.0355    3.8048   -4.9863 C   0  0  0  0  0  0  0  0  0  0  0  0
   -6.0545    3.5544   -5.5901 O   0  0  0  0  0  0  0  0  0  0  0  0
   -3.8558    4.5531   -5.4635 C   0  0  0  0  0  0  0  0  0  0  0  0
   -3.6414    5.0672   -6.7404 C   0  0  0  0  0  0  0  0  0  0  0  0
   -2.4281    5.6936   -6.8964 C   0  0  0  0  0  0  0  0  0  0  0  0
   -1.4896    5.8022   -5.8607 C   0  0  0  0  0  0  0  0  0  0  0  0
   -1.6906    5.3111   -4.5928 C   0  0  0  0  0  0  0  0  0  0  0  0
   -2.9196    4.6727   -4.4140 C   0  0  0  0  0  0  0  0  0  0  0  0
   -3.4947    4.0767   -3.2121 C   0  0  0  0  0  0  0  0  0  0  0  0
   -3.1414    4.3823   -1.9230 C   0  0  0  0  0  0  0  0  0  0  0  0
   -2.0071    5.1359   -1.5667 C   0  0  0  0  0  0  0  0  0  0  0  0
   -1.0802    5.7146   -1.2133 N   0  0  0  0  0  0  0  0  0  0  0  0
   -3.9356    4.0350   -0.8101 C   0  0  0  0  0  0  0  0  0  0  0  0
   -4.5834    3.8120    0.1112 N   0  0  0  0  0  0  0  0  0  0  0  0
   -0.4945    6.5276   -6.7302 C   0  0  0  0  0  0  0  0  0  0  0  0
    0.7085    5.7200   -7.2775 C   0  0  0  0  0  0  0  0  0  0  0  0
    0.2617    4.2812   -7.3543 C   0  0  0  0  0  0  0  0  0  0  0  0
   -0.6266    4.1845   -8.3344 C   0  0  0  0  0  0  0  0  0  0  0  0
   -0.7968    5.5566   -8.9380 C   0  0  0  0  0  0  0  0  0  0  0  0
    0.6270    6.1083   -8.7624 C   0  0  0  0  0  0  0  0  0  0  0  0
   -1.5412    6.4120   -7.8828 C   0  0  0  0  0  0  0  0  0  0  0  0
   -4.9948    1.4977   -1.9664 C   0  0  0  0  0  0  0  0  0  0  0  0
   -5.8250    0.6945   -1.1965 C   0  0  0  0  0  0  0  0  0  0  0  0
   -7.3130    0.6369   -1.3069 C   0  0  0  0  0  0  0  0  0  0  0  0
   -7.7373   -0.4813   -2.2629 C   0  0  0  0  0  0  0  0  0  0  0  0
   -5.0925   -0.0710   -0.2828 C   0  0  0  0  0  0  0  0  0  0  0  0
   -3.7061    0.1157   -0.3528 C   0  0  0  0  0  0  0  0  0  0  0  0
   -3.2923    1.2585   -1.5740 S   0  0  0  0  0  0  0  0  0  0  0  0
   -3.0315   -0.6550    0.5977 C   0  0  0  0  0  0  0  0  0  0  0  0
   -3.9109   -1.4117    1.3790 C   0  0  0  0  0  0  0  0  0  0  0  0
   -5.5741   -1.2095    0.9541 S   0  0  0  0  0  0  0  0  0  0  0  0
   -3.1326   -2.0768    2.3347 C   0  0  0  0  0  0  0  0  0  0  0  0
   -3.5242   -2.8888    3.4213 C   0  0  0  0  0  0  0  0  0  0  0  0
   -4.7424   -3.2730    3.7697 N   0  0  0  0  0  0  0  0  0  0  0  0
   -4.6342   -4.1429    5.1301 S   0  0  0  0  0  0  0  0  0  0  0  0
   -3.0295   -4.0651    5.3246 N   0  0  0  0  0  0  0  0  0  0  0  0
   -2.5218   -3.3543    4.3299 C   0  0  0  0  0  0  0  0  0  0  0  0
   -1.1682   -3.0579    4.0583 C   0  0  0  0  0  0  0  0  0  0  0  0
   -0.0048   -3.4677    4.7199 C   0  0  0  0  0  0  0  0  0  0  0  0
    0.4555   -4.3915    6.1075 S   0  0  0  0  0  0  0  0  0  0  0  0
    2.1347   -4.1440    5.6813 C   0  0  0  0  0  0  0  0  0  0  0  0
    3.3238   -4.5561    6.2633 C   0  0  0  0  0  0  0  0  0  0  0  0
    4.4371   -4.1220    5.5586 C   0  0  0  0  0  0  0  0  0  0  0  0
    3.9694   -3.1801    4.1334 S   0  0  0  0  0  0  0  0  0  0  0  0
    2.3037   -3.3757    4.5104 C   0  0  0  0  0  0  0  0  0  0  0  0
    1.0767   -2.9844    3.9729 C   0  0  0  0  0  0  0  0  0  0  0  0
    0.6192   -2.2863    2.8884 N   0  0  0  0  0  0  0  0  0  0  0  0
    1.5729   -1.8391    1.8999 C   0  0  0  0  0  0  0  0  0  0  0  0
    2.2935   -0.5638    2.3379 C   0  0  0  0  0  0  0  0  0  0  0  0
   -0.7629   -2.2926    2.9213 C   0  0  0  0  0  0  0  0  0  0  0  0
   -1.7702   -1.7233    2.0921 C   0  0  0  0  0  0  0  0  0  0  0  0
   -1.7472   -0.8363    1.0297 N   0  0  0  0  0  0  0  0  0  0  0  0
   -0.7115    0.0092    0.4823 C   0  0  0  0  0  0  0  0  0  0  0  0
   -0.2409   -0.4799   -0.8874 C   0  0  0  0  0  0  0  0  0  0  0  0
    5.8203   -4.2903    5.7350 C   0  0  0  0  0  0  0  0  0  0  0  0
    6.5517   -4.9000    6.7217 C   0  0  0  0  0  0  0  0  0  0  0  0
    6.0729   -5.5095    7.9826 C   0  0  0  0  0  0  0  0  0  0  0  0
    4.9326   -5.6868    8.3599 O   0  0  0  0  0  0  0  0  0  0  0  0
    7.2887   -5.8715    8.7365 C   0  0  0  0  0  0  0  0  0  0  0  0
    7.3838   -6.4366    9.9941 C   0  0  0  0  0  0  0  0  0  0  0  0
    8.6431   -6.6838   10.5158 C   0  0  0  0  0  0  0  0  0  0  0  0
    9.7731   -6.3611    9.7725 C   0  0  0  0  0  0  0  0  0  0  0  0
   11.3312   -6.6700   10.4389 Cl  0  0  0  0  0  0  0  0  0  0  0  0
    9.6899   -5.7944    8.5042 C   0  0  0  0  0  0  0  0  0  0  0  0
    8.4298   -5.5502    7.9842 C   0  0  0  0  0  0  0  0  0  0  0  0
    8.0027   -4.9801    6.7061 C   0  0  0  0  0  0  0  0  0  0  0  0
    8.8495   -4.6396    5.6834 C   0  0  0  0  0  0  0  0  0  0  0  0
    8.4797   -4.1469    4.4135 C   0  0  0  0  0  0  0  0  0  0  0  0
    8.2804   -3.7541    3.3523 N   0  0  0  0  0  0  0  0  0  0  0  0
   10.2549   -4.7614    5.7439 C   0  0  0  0  0  0  0  0  0  0  0  0
   11.4006   -4.8267    5.7165 N   0  0  0  0  0  0  0  0  0  0  0  0
   -6.3362    2.1194   -3.4926 H   0  0  0  0  0  0  0  0  0  0  0  0
   -4.3881    4.9647   -7.5122 H   0  0  0  0  0  0  0  0  0  0  0  0
   -0.9633    5.3953   -3.8018 H   0  0  0  0  0  0  0  0  0  0  0  0
   -0.2084    7.5234   -6.3979 H   0  0  0  0  0  0  0  0  0  0  0  0
    1.6473    5.9044   -6.7621 H   0  0  0  0  0  0  0  0  0  0  0  0
    0.5842    3.5166   -6.6719 H   0  0  0  0  0  0  0  0  0  0  0  0
   -1.1943    3.3232   -8.6345 H   0  0  0  0  0  0  0  0  0  0  0  0
   -1.2283    5.5926   -9.9348 H   0  0  0  0  0  0  0  0  0  0  0  0
    1.3597    5.5855   -9.3754 H   0  0  0  0  0  0  0  0  0  0  0  0
    0.7012    7.1810   -8.9350 H   0  0  0  0  0  0  0  0  0  0  0  0
   -1.9409    7.3333   -8.3016 H   0  0  0  0  0  0  0  0  0  0  0  0
   -7.7030    1.5933   -1.6547 H   0  0  0  0  0  0  0  0  0  0  0  0
   -7.7247    0.4363   -0.3160 H   0  0  0  0  0  0  0  0  0  0  0  0
   -7.3411   -0.3059   -3.2605 H   0  0  0  0  0  0  0  0  0  0  0  0
   -7.3700   -1.4413   -1.9082 H   0  0  0  0  0  0  0  0  0  0  0  0
   -8.8213   -0.5258   -2.3234 H   0  0  0  0  0  0  0  0  0  0  0  0
    3.3999   -5.1434    7.1597 H   0  0  0  0  0  0  0  0  0  0  0  0
    2.3169   -2.6348    1.7835 H   0  0  0  0  0  0  0  0  0  0  0  0
    1.0735   -1.7149    0.9436 H   0  0  0  0  0  0  0  0  0  0  0  0
    1.5911    0.2192    2.6160 H   0  0  0  0  0  0  0  0  0  0  0  0
    2.9239   -0.7669    3.1992 H   0  0  0  0  0  0  0  0  0  0  0  0
    2.9237   -0.2021    1.5305 H   0  0  0  0  0  0  0  0  0  0  0  0
   -1.1387    1.0115    0.3653 H   0  0  0  0  0  0  0  0  0  0  0  0
    0.1091    0.0856    1.1889 H   0  0  0  0  0  0  0  0  0  0  0  0
    0.0645   -1.5240   -0.8578 H   0  0  0  0  0  0  0  0  0  0  0  0
   -1.0439   -0.3876   -1.6139 H   0  0  0  0  0  0  0  0  0  0  0  0
    0.5972    0.1235   -1.2243 H   0  0  0  0  0  0  0  0  0  0  0  0
    6.3976   -3.8355    4.9383 H   0  0  0  0  0  0  0  0  0  0  0  0
    6.4896   -6.6749   10.5488 H   0  0  0  0  0  0  0  0  0  0  0  0
    8.7572   -7.1231   11.4940 H   0  0  0  0  0  0  0  0  0  0  0  0
   10.5923   -5.5586    7.9655 H   0  0  0  0  0  0  0  0  0  0  0  0
  1  2  2  0  0  0  0
  2  3  1  0  0  0  0
  3  4  2  0  0  0  0
  3  5  1  0  0  0  0
  5  6  2  0  0  0  0
  6  7  1  0  0  0  0
  7  8  2  0  0  0  0
  8  9  1  0  0  0  0
  9 10  2  0  0  0  0
 10 11  1  0  0  0  0
 11 12  2  0  0  0  0
 12 13  1  0  0  0  0
 13 14  3  0  0  0  0
 12 15  1  0  0  0  0
 15 16  3  0  0  0  0
  8 17  1  0  0  0  0
 17 18  1  0  0  0  0
 18 19  1  0  0  0  0
 19 20  2  0  0  0  0
 20 21  1  0  0  0  0
 21 22  1  0  0  0  0
 21 23  1  0  0  0  0
  1 24  1  0  0  0  0
 24 25  2  0  0  0  0
 25 26  1  0  0  0  0
 26 27  1  0  0  0  0
 25 28  1  0  0  0  0
 28 29  2  0  0  0  0
 29 30  1  0  0  0  0
 29 31  1  0  0  0  0
 31 32  2  0  0  0  0
 32 33  1  0  0  0  0
 32 34  1  0  0  0  0
 34 35  1  0  0  0  0
 35 36  2  0  0  0  0
 36 37  1  0  0  0  0
 37 38  1  0  0  0  0
 38 39  2  0  0  0  0
 39 40  1  0  0  0  0
 40 41  1  0  0  0  0
 41 42  1  0  0  0  0
 42 43  1  0  0  0  0
 43 44  1  0  0  0  0
 44 45  2  0  0  0  0
 45 46  1  0  0  0  0
 46 47  1  0  0  0  0
 47 48  1  0  0  0  0
 48 49  1  0  0  0  0
 49 50  1  0  0  0  0
 50 51  1  0  0  0  0
 49 52  1  0  0  0  0
 52 53  1  0  0  0  0
 53 54  1  0  0  0  0
 54 55  1  0  0  0  0
 55 56  1  0  0  0  0
 45 57  1  0  0  0  0
 57 58  2  0  0  0  0
 58 59  1  0  0  0  0
 59 60  2  0  0  0  0
 59 61  1  0  0  0  0
 61 62  2  0  0  0  0
 62 63  1  0  0  0  0
 63 64  2  0  0  0  0
 64 65  1  0  0  0  0
 64 66  1  0  0  0  0
 66 67  2  0  0  0  0
 67 68  1  0  0  0  0
 68 69  2  0  0  0  0
 69 70  1  0  0  0  0
 70 71  3  0  0  0  0
 69 72  1  0  0  0  0
 72 73  3  0  0  0  0
 11  2  1  0  0  0  0
 23 17  1  0  0  0  0
 30 24  1  0  0  0  0
 54 31  1  0  0  0  0
 68 58  1  0  0  0  0
 10  5  1  0  0  0  0
 22 18  1  0  0  0  0
 33 28  1  0  0  0  0
 53 34  2  0  0  0  0
 67 61  1  0  0  0  0
 23  7  1  0  0  0  0
 39 35  1  0  0  0  0
 52 40  2  0  0  0  0
 48 41  2  0  0  0  0
 47 43  2  0  0  0  0
  1 74  1  0  0  0  0
  6 75  1  0  0  0  0
  9 76  1  0  0  0  0
 17 77  1  0  0  0  0
 18 78  1  0  0  0  0
 19 79  1  0  0  0  0
 20 80  1  0  0  0  0
 21 81  1  0  0  0  0
 22 82  1  0  0  0  0
 22 83  1  0  0  0  0
 23 84  1  0  0  0  0
 26 85  1  0  0  0  0
 26 86  1  0  0  0  0
 27 87  1  0  0  0  0
 27 88  1  0  0  0  0
 27 89  1  0  0  0  0
 44 90  1  0  0  0  0
 50 91  1  0  0  0  0
 50 92  1  0  0  0  0
 51 93  1  0  0  0  0
 51 94  1  0  0  0  0
 51 95  1  0  0  0  0
 55 96  1  0  0  0  0
 55 97  1  0  0  0  0
 56 98  1  0  0  0  0
 56 99  1  0  0  0  0
 56100  1  0  0  0  0
 57101  1  0  0  0  0
 62102  1  0  0  0  0
 63103  1  0  0  0  0
 66104  1  0  0  0  0
M  END
