
  xtb     02102222553D
 energy: -184.398371130436 gnorm: 0.000416281667 xtb: 6.4.1 (unknown)
107121  0     0  0            999 V2000
    4.5659   -5.1090   -0.0620 C   0  0  0  0  0  0  0  0  0  0  0  0
    4.6813   -5.5023    1.2475 C   0  0  0  0  0  0  0  0  0  0  0  0
    3.9630   -5.0055    2.4402 C   0  0  0  0  0  0  0  0  0  0  0  0
    2.9531   -4.3279    2.5081 O   0  0  0  0  0  0  0  0  0  0  0  0
    4.7277   -5.4886    3.6038 C   0  0  0  0  0  0  0  0  0  0  0  0
    4.4765   -5.1906    4.9410 C   0  0  0  0  0  0  0  0  0  0  0  0
    5.3738   -5.7522    5.8162 C   0  0  0  0  0  0  0  0  0  0  0  0
    6.4433   -6.5523    5.3923 C   0  0  0  0  0  0  0  0  0  0  0  0
    6.6929   -6.8658    4.0771 C   0  0  0  0  0  0  0  0  0  0  0  0
    5.7897   -6.3042    3.1702 C   0  0  0  0  0  0  0  0  0  0  0  0
    5.7251   -6.4012    1.7144 C   0  0  0  0  0  0  0  0  0  0  0  0
    6.4715   -7.2573    0.9470 C   0  0  0  0  0  0  0  0  0  0  0  0
    7.4644   -8.1201    1.4565 C   0  0  0  0  0  0  0  0  0  0  0  0
    8.2872   -8.8432    1.8009 N   0  0  0  0  0  0  0  0  0  0  0  0
    6.3303   -7.4528   -0.4438 C   0  0  0  0  0  0  0  0  0  0  0  0
    6.2671   -7.7008   -1.5637 N   0  0  0  0  0  0  0  0  0  0  0  0
    6.9564   -6.7480    6.7968 C   0  0  0  0  0  0  0  0  0  0  0  0
    8.1890   -5.9182    7.2347 C   0  0  0  0  0  0  0  0  0  0  0  0
    8.1822   -4.6622    6.3993 C   0  0  0  0  0  0  0  0  0  0  0  0
    7.1664   -3.9116    6.8042 C   0  0  0  0  0  0  0  0  0  0  0  0
    6.4669   -4.6477    7.9201 C   0  0  0  0  0  0  0  0  0  0  0  0
    7.6655   -5.3593    8.5675 C   0  0  0  0  0  0  0  0  0  0  0  0
    5.7604   -5.8629    7.2697 C   0  0  0  0  0  0  0  0  0  0  0  0
    3.6675   -4.2274   -0.6888 C   0  0  0  0  0  0  0  0  0  0  0  0
    4.0638   -3.6812   -2.4934 Se  0  0  0  0  0  2  0  0  0  0  0  0
    2.5709   -2.6099   -2.3485 C   0  0  0  0  0  0  0  0  0  0  0  0
    1.8181   -1.6883   -3.0886 C   0  0  0  0  0  0  0  0  0  0  0  0
    1.9232   -1.2771   -4.4338 C   0  0  0  0  0  0  0  0  0  0  0  0
    0.9308   -0.3934   -4.9735 C   0  0  0  0  0  0  0  0  0  0  0  0
    1.1242   -0.1454   -6.2597 N   0  0  0  0  0  0  0  0  0  0  0  0
    2.4416   -0.9499   -6.7467 S   0  0  0  0  0  0  0  0  0  0  0  0
    2.8193   -1.6482   -5.3340 N   0  0  0  0  0  0  0  0  0  0  0  0
   -0.0472    0.1405   -4.1042 C   0  0  0  0  0  0  0  0  0  0  0  0
   -1.0193    1.1355   -4.3003 C   0  0  0  0  0  0  0  0  0  0  0  0
   -1.6303    2.1461   -5.5662 S   0  0  0  0  0  0  0  0  0  0  0  0
   -2.6726    2.9349   -4.4055 C   0  0  0  0  0  0  0  0  0  0  0  0
   -3.6017    3.9932   -4.5163 C   0  0  0  0  0  0  0  0  0  0  0  0
   -3.8634    4.7098   -5.8029 C   0  0  0  0  0  0  0  0  0  0  0  0
   -4.5828    3.8107   -6.8089 C   0  0  0  0  0  0  0  0  0  0  0  0
   -4.1604    4.2946   -3.3002 C   0  0  0  0  0  0  0  0  0  0  0  0
   -3.5667    3.2593   -2.0063 S   0  0  0  0  0  0  0  0  0  0  0  0
   -2.5414    2.4240   -3.1159 C   0  0  0  0  0  0  0  0  0  0  0  0
   -1.5988    1.3886   -3.0558 C   0  0  0  0  0  0  0  0  0  0  0  0
   -1.0595    0.5673   -2.1016 N   0  0  0  0  0  0  0  0  0  0  0  0
   -0.0992   -0.2170   -2.7272 C   0  0  0  0  0  0  0  0  0  0  0  0
    0.7589   -1.2395   -2.2500 C   0  0  0  0  0  0  0  0  0  0  0  0
    0.8304   -1.9264   -1.0565 N   0  0  0  0  0  0  0  0  0  0  0  0
    1.9320   -2.7458   -1.1013 C   0  0  0  0  0  0  0  0  0  0  0  0
    2.5091   -3.6383   -0.2069 C   0  0  0  0  0  0  0  0  0  0  0  0
   -0.1861   -2.1503   -0.0529 C   0  0  0  0  0  0  0  0  0  0  0  0
    0.1975   -1.5709    1.3085 C   0  0  0  0  0  0  0  0  0  0  0  0
   -1.1230    0.9898   -0.7186 C   0  0  0  0  0  0  0  0  0  0  0  0
    0.0942    1.8352   -0.3499 C   0  0  0  0  0  0  0  0  0  0  0  0
   -5.1983    5.2638   -2.9863 C   0  0  0  0  0  0  0  0  0  0  0  0
   -6.3682    5.2609   -3.7251 C   0  0  0  0  0  0  0  0  0  0  0  0
   -7.4295    6.1017   -3.4056 C   0  0  0  0  0  0  0  0  0  0  0  0
   -7.3466    6.9522   -2.3218 C   0  0  0  0  0  0  0  0  0  0  0  0
   -8.4994    7.7952   -1.9693 C   0  0  0  0  0  0  0  0  0  0  0  0
   -9.5387    7.7806   -2.5977 O   0  0  0  0  0  0  0  0  0  0  0  0
   -8.3455    8.6234   -0.8695 N   0  0  0  0  0  0  0  0  0  0  0  0
   -9.4953    9.4377   -0.4880 C   0  0  0  0  0  0  0  0  0  0  0  0
  -10.4068    8.6807    0.4693 C   0  0  0  0  0  0  0  0  0  0  0  0
   -7.2129    8.7238   -0.0804 C   0  0  0  0  0  0  0  0  0  0  0  0
   -7.1840    9.4706    0.8769 O   0  0  0  0  0  0  0  0  0  0  0  0
   -6.0634    7.8872   -0.4674 C   0  0  0  0  0  0  0  0  0  0  0  0
   -4.8906    7.9750    0.2525 C   0  0  0  0  0  0  0  0  0  0  0  0
   -3.7851    7.2072   -0.1155 C   0  0  0  0  0  0  0  0  0  0  0  0
   -3.8644    6.3303   -1.1672 C   0  0  0  0  0  0  0  0  0  0  0  0
   -5.0583    6.1773   -1.9007 C   0  0  0  0  0  0  0  0  0  0  0  0
   -6.1605    7.0045   -1.5626 C   0  0  0  0  0  0  0  0  0  0  0  0
    5.3281   -5.4900   -0.7347 H   0  0  0  0  0  0  0  0  0  0  0  0
    3.6430   -4.5658    5.2223 H   0  0  0  0  0  0  0  0  0  0  0  0
    7.5205   -7.4820    3.7683 H   0  0  0  0  0  0  0  0  0  0  0  0
    7.0027   -7.7760    7.1504 H   0  0  0  0  0  0  0  0  0  0  0  0
    9.1222   -6.4745    7.2564 H   0  0  0  0  0  0  0  0  0  0  0  0
    8.8606   -4.4798    5.5865 H   0  0  0  0  0  0  0  0  0  0  0  0
    6.8265   -2.9772    6.3971 H   0  0  0  0  0  0  0  0  0  0  0  0
    5.8315   -4.0481    8.5668 H   0  0  0  0  0  0  0  0  0  0  0  0
    7.3786   -6.1321    9.2793 H   0  0  0  0  0  0  0  0  0  0  0  0
    8.3628   -4.6670    9.0370 H   0  0  0  0  0  0  0  0  0  0  0  0
    5.0213   -6.3156    7.9280 H   0  0  0  0  0  0  0  0  0  0  0  0
   -2.9026    5.0115   -6.2284 H   0  0  0  0  0  0  0  0  0  0  0  0
   -4.4526    5.6079   -5.6117 H   0  0  0  0  0  0  0  0  0  0  0  0
   -3.9771    2.9375   -7.0376 H   0  0  0  0  0  0  0  0  0  0  0  0
   -5.5380    3.4720   -6.4138 H   0  0  0  0  0  0  0  0  0  0  0  0
   -4.7647    4.3563   -7.7310 H   0  0  0  0  0  0  0  0  0  0  0  0
    2.1349   -3.8598    0.7753 H   0  0  0  0  0  0  0  0  0  0  0  0
   -1.1330   -1.7502   -0.4189 H   0  0  0  0  0  0  0  0  0  0  0  0
   -0.3123   -3.2342    0.0514 H   0  0  0  0  0  0  0  0  0  0  0  0
    0.4789   -0.5244    1.2309 H   0  0  0  0  0  0  0  0  0  0  0  0
    1.0397   -2.1146    1.7269 H   0  0  0  0  0  0  0  0  0  0  0  0
   -0.6412   -1.6610    1.9942 H   0  0  0  0  0  0  0  0  0  0  0  0
   -1.2083    0.1396   -0.0487 H   0  0  0  0  0  0  0  0  0  0  0  0
   -2.0324    1.5875   -0.6155 H   0  0  0  0  0  0  0  0  0  0  0  0
    1.0096    1.2573   -0.4604 H   0  0  0  0  0  0  0  0  0  0  0  0
    0.0124    2.1754    0.6789 H   0  0  0  0  0  0  0  0  0  0  0  0
    0.1588    2.7054   -0.9994 H   0  0  0  0  0  0  0  0  0  0  0  0
   -6.4745    4.5641   -4.5419 H   0  0  0  0  0  0  0  0  0  0  0  0
   -8.3420    6.0817   -3.9820 H   0  0  0  0  0  0  0  0  0  0  0  0
  -10.0331    9.6921   -1.4030 H   0  0  0  0  0  0  0  0  0  0  0  0
   -9.1107   10.3413   -0.0121 H   0  0  0  0  0  0  0  0  0  0  0  0
  -11.2508    9.3070    0.7438 H   0  0  0  0  0  0  0  0  0  0  0  0
  -10.7812    7.7767   -0.0055 H   0  0  0  0  0  0  0  0  0  0  0  0
   -9.8624    8.4114    1.3716 H   0  0  0  0  0  0  0  0  0  0  0  0
   -4.8431    8.6577    1.0873 H   0  0  0  0  0  0  0  0  0  0  0  0
   -2.8603    7.3101    0.4316 H   0  0  0  0  0  0  0  0  0  0  0  0
   -2.9930    5.7603   -1.4495 H   0  0  0  0  0  0  0  0  0  0  0  0
  1  2  2  0  0  0  0
  2  3  1  0  0  0  0
  3  4  2  0  0  0  0
  3  5  1  0  0  0  0
  5  6  2  0  0  0  0
  6  7  1  0  0  0  0
  7  8  2  0  0  0  0
  8  9  1  0  0  0  0
  9 10  2  0  0  0  0
 10 11  1  0  0  0  0
 11 12  2  0  0  0  0
 12 13  1  0  0  0  0
 13 14  3  0  0  0  0
 12 15  1  0  0  0  0
 15 16  3  0  0  0  0
  8 17  1  0  0  0  0
 17 18  1  0  0  0  0
 18 19  1  0  0  0  0
 19 20  2  0  0  0  0
 20 21  1  0  0  0  0
 21 22  1  0  0  0  0
 21 23  1  0  0  0  0
  1 24  1  0  0  0  0
 24 25  1  0  0  0  0
 25 26  1  0  0  0  0
 26 27  1  0  0  0  0
 27 28  1  0  0  0  0
 28 29  1  0  0  0  0
 29 30  2  0  0  0  0
 30 31  1  0  0  0  0
 31 32  1  0  0  0  0
 29 33  1  0  0  0  0
 33 34  1  0  0  0  0
 34 35  1  0  0  0  0
 35 36  1  0  0  0  0
 36 37  1  0  0  0  0
 37 38  1  0  0  0  0
 38 39  1  0  0  0  0
 37 40  2  0  0  0  0
 40 41  1  0  0  0  0
 41 42  1  0  0  0  0
 42 43  1  0  0  0  0
 43 44  1  0  0  0  0
 44 45  1  0  0  0  0
 45 46  1  0  0  0  0
 46 47  1  0  0  0  0
 47 48  1  0  0  0  0
 48 49  1  0  0  0  0
 47 50  1  0  0  0  0
 50 51  1  0  0  0  0
 44 52  1  0  0  0  0
 52 53  1  0  0  0  0
 40 54  1  0  0  0  0
 54 55  2  0  0  0  0
 55 56  1  0  0  0  0
 56 57  2  0  0  0  0
 57 58  1  0  0  0  0
 58 59  2  0  0  0  0
 58 60  1  0  0  0  0
 60 61  1  0  0  0  0
 61 62  1  0  0  0  0
 60 63  1  0  0  0  0
 63 64  2  0  0  0  0
 63 65  1  0  0  0  0
 65 66  1  0  0  0  0
 66 67  2  0  0  0  0
 67 68  1  0  0  0  0
 68 69  2  0  0  0  0
 69 70  1  0  0  0  0
 11  2  1  0  0  0  0
 23 17  1  0  0  0  0
 49 24  2  0  0  0  0
 69 54  1  0  0  0  0
 10  5  1  0  0  0  0
 22 18  1  0  0  0  0
 48 26  2  0  0  0  0
 70 57  1  0  0  0  0
 23  7  1  0  0  0  0
 46 27  2  0  0  0  0
 70 65  2  0  0  0  0
 32 28  2  0  0  0  0
 45 33  2  0  0  0  0
 43 34  2  0  0  0  0
 42 36  2  0  0  0  0
  1 71  1  0  0  0  0
  6 72  1  0  0  0  0
  9 73  1  0  0  0  0
 17 74  1  0  0  0  0
 18 75  1  0  0  0  0
 19 76  1  0  0  0  0
 20 77  1  0  0  0  0
 21 78  1  0  0  0  0
 22 79  1  0  0  0  0
 22 80  1  0  0  0  0
 23 81  1  0  0  0  0
 38 82  1  0  0  0  0
 38 83  1  0  0  0  0
 39 84  1  0  0  0  0
 39 85  1  0  0  0  0
 39 86  1  0  0  0  0
 49 87  1  0  0  0  0
 50 88  1  0  0  0  0
 50 89  1  0  0  0  0
 51 90  1  0  0  0  0
 51 91  1  0  0  0  0
 51 92  1  0  0  0  0
 52 93  1  0  0  0  0
 52 94  1  0  0  0  0
 53 95  1  0  0  0  0
 53 96  1  0  0  0  0
 53 97  1  0  0  0  0
 55 98  1  0  0  0  0
 56 99  1  0  0  0  0
 61100  1  0  0  0  0
 61101  1  0  0  0  0
 62102  1  0  0  0  0
 62103  1  0  0  0  0
 62104  1  0  0  0  0
 66105  1  0  0  0  0
 67106  1  0  0  0  0
 68107  1  0  0  0  0
M  END
