
  xtb     02022220443D
 energy: -176.669583803938 gnorm: 0.000266411845 xtb: 6.4.1 (unknown)
103116  0     0  0            999 V2000
    5.5453    2.6893    1.2583 C   0  0  0  0  0  0  0  0  0  0  0  0
    5.1628    3.4106    2.3577 C   0  0  0  0  0  0  0  0  0  0  0  0
    3.7630    3.5465    2.8209 C   0  0  0  0  0  0  0  0  0  0  0  0
    2.7949    2.8814    2.5075 O   0  0  0  0  0  0  0  0  0  0  0  0
    3.7501    4.7373    3.6912 C   0  0  0  0  0  0  0  0  0  0  0  0
    2.6351    5.3074    4.3003 C   0  0  0  0  0  0  0  0  0  0  0  0
    2.9182    6.4186    5.0569 C   0  0  0  0  0  0  0  0  0  0  0  0
    4.2145    6.9331    5.1919 C   0  0  0  0  0  0  0  0  0  0  0  0
    5.3226    6.3845    4.5905 C   0  0  0  0  0  0  0  0  0  0  0  0
    5.0568    5.2483    3.8216 C   0  0  0  0  0  0  0  0  0  0  0  0
    5.9597    4.4052    3.0440 C   0  0  0  0  0  0  0  0  0  0  0  0
    7.3284    4.4756    3.0312 C   0  0  0  0  0  0  0  0  0  0  0  0
    8.1561    3.5535    2.3564 C   0  0  0  0  0  0  0  0  0  0  0  0
    8.8842    2.8182    1.8587 N   0  0  0  0  0  0  0  0  0  0  0  0
    8.0834    5.4384    3.7301 C   0  0  0  0  0  0  0  0  0  0  0  0
    8.7505    6.1998    4.2723 N   0  0  0  0  0  0  0  0  0  0  0  0
    3.7605    8.0526    6.0955 C   0  0  0  0  0  0  0  0  0  0  0  0
    4.0316    7.9082    7.6134 C   0  0  0  0  0  0  0  0  0  0  0  0
    4.0946    6.4282    7.8988 C   0  0  0  0  0  0  0  0  0  0  0  0
    2.8683    5.9390    7.7722 C   0  0  0  0  0  0  0  0  0  0  0  0
    1.9540    7.0794    7.3983 C   0  0  0  0  0  0  0  0  0  0  0  0
    2.6312    8.2300    8.1596 C   0  0  0  0  0  0  0  0  0  0  0  0
    2.3168    7.4774    5.9461 C   0  0  0  0  0  0  0  0  0  0  0  0
    4.7594    1.6995    0.6313 C   0  0  0  0  0  0  0  0  0  0  0  0
    4.7836    1.6502   -1.1374 S   0  0  0  0  0  0  0  0  0  0  0  0
    3.5058    0.5153   -1.1051 C   0  0  0  0  0  0  0  0  0  0  0  0
    2.6494   -0.1397   -2.0003 C   0  0  0  0  0  0  0  0  0  0  0  0
    2.5158   -0.0335   -3.4018 C   0  0  0  0  0  0  0  0  0  0  0  0
    1.4140   -0.6912   -4.0419 C   0  0  0  0  0  0  0  0  0  0  0  0
    1.3705   -0.4551   -5.3439 N   0  0  0  0  0  0  0  0  0  0  0  0
    2.6144    0.5058   -5.7317 S   0  0  0  0  0  0  0  0  0  0  0  0
    3.2536    0.6616   -4.2530 N   0  0  0  0  0  0  0  0  0  0  0  0
    0.5634   -1.5081   -3.2656 C   0  0  0  0  0  0  0  0  0  0  0  0
   -0.5378   -2.2987   -3.6256 C   0  0  0  0  0  0  0  0  0  0  0  0
   -1.5115   -2.6384   -5.0130 S   0  0  0  0  0  0  0  0  0  0  0  0
   -2.4932   -3.7082   -4.0369 C   0  0  0  0  0  0  0  0  0  0  0  0
   -3.6482   -4.4560   -4.3248 C   0  0  0  0  0  0  0  0  0  0  0  0
   -4.3453   -4.3559   -5.6429 C   0  0  0  0  0  0  0  0  0  0  0  0
   -3.4897   -4.8955   -6.7886 C   0  0  0  0  0  0  0  0  0  0  0  0
   -4.1055   -5.1179   -3.1978 C   0  0  0  0  0  0  0  0  0  0  0  0
   -3.1149   -4.7821   -1.7751 S   0  0  0  0  0  0  0  0  0  0  0  0
   -2.0629   -3.7864   -2.7085 C   0  0  0  0  0  0  0  0  0  0  0  0
   -0.9425   -2.9813   -2.4746 C   0  0  0  0  0  0  0  0  0  0  0  0
   -0.1491   -2.6319   -1.4160 N   0  0  0  0  0  0  0  0  0  0  0  0
    0.7721   -1.7002   -1.8693 C   0  0  0  0  0  0  0  0  0  0  0  0
    1.7598   -0.9204   -1.2132 C   0  0  0  0  0  0  0  0  0  0  0  0
    2.0649   -0.7271    0.1262 N   0  0  0  0  0  0  0  0  0  0  0  0
    3.1313    0.1462    0.1945 C   0  0  0  0  0  0  0  0  0  0  0  0
    3.8806    0.7817    1.2011 C   0  0  0  0  0  0  0  0  0  0  0  0
    3.9695    0.3770    2.6401 C   0  0  0  0  0  0  0  0  0  0  0  0
    4.3435   -1.1015    2.7632 C   0  0  0  0  0  0  0  0  0  0  0  0
    1.1452   -0.8367    1.2410 C   0  0  0  0  0  0  0  0  0  0  0  0
   -0.1737   -0.1202    0.9629 C   0  0  0  0  0  0  0  0  0  0  0  0
   -0.1274   -3.4612   -0.2308 C   0  0  0  0  0  0  0  0  0  0  0  0
    1.2233   -4.1464   -0.0456 C   0  0  0  0  0  0  0  0  0  0  0  0
   -5.2805   -5.8811   -2.9671 C   0  0  0  0  0  0  0  0  0  0  0  0
   -5.9081   -6.7583   -3.7897 C   0  0  0  0  0  0  0  0  0  0  0  0
   -5.4091   -7.4389   -4.9993 C   0  0  0  0  0  0  0  0  0  0  0  0
   -4.2774   -7.4463   -5.4341 O   0  0  0  0  0  0  0  0  0  0  0  0
   -6.5484   -8.2517   -5.4945 C   0  0  0  0  0  0  0  0  0  0  0  0
   -6.6389   -9.0246   -6.6369 C   0  0  0  0  0  0  0  0  0  0  0  0
   -7.8250   -9.7072   -6.8738 C   0  0  0  0  0  0  0  0  0  0  0  0
   -8.8873   -9.6256   -5.9837 C   0  0  0  0  0  0  0  0  0  0  0  0
   -8.7969   -8.8563   -4.8310 C   0  0  0  0  0  0  0  0  0  0  0  0
   -7.6199   -8.1702   -4.5960 C   0  0  0  0  0  0  0  0  0  0  0  0
   -7.2530   -7.2866   -3.4648 C   0  0  0  0  0  0  0  0  0  0  0  0
   -7.9170   -7.0258   -2.4857 O   0  0  0  0  0  0  0  0  0  0  0  0
    6.4597    2.9662    0.7469 H   0  0  0  0  0  0  0  0  0  0  0  0
    1.6524    4.8828    4.1663 H   0  0  0  0  0  0  0  0  0  0  0  0
    6.3129    6.7966    4.6924 H   0  0  0  0  0  0  0  0  0  0  0  0
    3.9469    9.0621    5.7348 H   0  0  0  0  0  0  0  0  0  0  0  0
    4.8625    8.5036    7.9819 H   0  0  0  0  0  0  0  0  0  0  0  0
    5.0057    5.8959    8.1000 H   0  0  0  0  0  0  0  0  0  0  0  0
    2.5499    4.9156    7.8465 H   0  0  0  0  0  0  0  0  0  0  0  0
    0.8927    6.9206    7.5713 H   0  0  0  0  0  0  0  0  0  0  0  0
    2.2680    9.2149    7.8696 H   0  0  0  0  0  0  0  0  0  0  0  0
    2.5644    8.1167    9.2406 H   0  0  0  0  0  0  0  0  0  0  0  0
    1.5599    8.1117    5.4885 H   0  0  0  0  0  0  0  0  0  0  0  0
   -5.2952   -4.8895   -5.6034 H   0  0  0  0  0  0  0  0  0  0  0  0
   -4.5543   -3.2965   -5.8256 H   0  0  0  0  0  0  0  0  0  0  0  0
   -4.0263   -4.7898   -7.7279 H   0  0  0  0  0  0  0  0  0  0  0  0
   -2.5541   -4.3468   -6.8585 H   0  0  0  0  0  0  0  0  0  0  0  0
   -3.2722   -5.9468   -6.6255 H   0  0  0  0  0  0  0  0  0  0  0  0
    3.0324    0.5824    3.1627 H   0  0  0  0  0  0  0  0  0  0  0  0
    4.7408    0.9764    3.1252 H   0  0  0  0  0  0  0  0  0  0  0  0
    4.4119   -1.3800    3.8119 H   0  0  0  0  0  0  0  0  0  0  0  0
    5.3098   -1.2799    2.2969 H   0  0  0  0  0  0  0  0  0  0  0  0
    3.6092   -1.7421    2.2821 H   0  0  0  0  0  0  0  0  0  0  0  0
    1.6211   -0.3510    2.0900 H   0  0  0  0  0  0  0  0  0  0  0  0
    0.9861   -1.8831    1.5063 H   0  0  0  0  0  0  0  0  0  0  0  0
   -0.6817   -0.5296    0.0937 H   0  0  0  0  0  0  0  0  0  0  0  0
   -0.8283   -0.2117    1.8258 H   0  0  0  0  0  0  0  0  0  0  0  0
    0.0165    0.9356    0.7845 H   0  0  0  0  0  0  0  0  0  0  0  0
   -0.4084   -2.8821    0.6509 H   0  0  0  0  0  0  0  0  0  0  0  0
   -0.9001   -4.2211   -0.3718 H   0  0  0  0  0  0  0  0  0  0  0  0
    1.2049   -4.7612    0.8503 H   0  0  0  0  0  0  0  0  0  0  0  0
    2.0276   -3.4204    0.0419 H   0  0  0  0  0  0  0  0  0  0  0  0
    1.4358   -4.7856   -0.8995 H   0  0  0  0  0  0  0  0  0  0  0  0
   -5.7455   -5.7391   -1.9939 H   0  0  0  0  0  0  0  0  0  0  0  0
   -5.8075   -9.0844   -7.3225 H   0  0  0  0  0  0  0  0  0  0  0  0
   -7.9233  -10.3122   -7.7632 H   0  0  0  0  0  0  0  0  0  0  0  0
   -9.7964  -10.1707   -6.1908 H   0  0  0  0  0  0  0  0  0  0  0  0
   -9.6156   -8.7903   -4.1310 H   0  0  0  0  0  0  0  0  0  0  0  0
  1  2  2  0  0  0  0
  2  3  1  0  0  0  0
  3  4  2  0  0  0  0
  3  5  1  0  0  0  0
  5  6  2  0  0  0  0
  6  7  1  0  0  0  0
  7  8  2  0  0  0  0
  8  9  1  0  0  0  0
  9 10  2  0  0  0  0
 10 11  1  0  0  0  0
 11 12  2  0  0  0  0
 12 13  1  0  0  0  0
 13 14  3  0  0  0  0
 12 15  1  0  0  0  0
 15 16  3  0  0  0  0
  8 17  1  0  0  0  0
 17 18  1  0  0  0  0
 18 19  1  0  0  0  0
 19 20  2  0  0  0  0
 20 21  1  0  0  0  0
 21 22  1  0  0  0  0
 21 23  1  0  0  0  0
  1 24  1  0  0  0  0
 24 25  1  0  0  0  0
 25 26  1  0  0  0  0
 26 27  1  0  0  0  0
 27 28  1  0  0  0  0
 28 29  1  0  0  0  0
 29 30  2  0  0  0  0
 30 31  1  0  0  0  0
 31 32  1  0  0  0  0
 29 33  1  0  0  0  0
 33 34  1  0  0  0  0
 34 35  1  0  0  0  0
 35 36  1  0  0  0  0
 36 37  1  0  0  0  0
 37 38  1  0  0  0  0
 38 39  1  0  0  0  0
 37 40  2  0  0  0  0
 40 41  1  0  0  0  0
 41 42  1  0  0  0  0
 42 43  1  0  0  0  0
 43 44  1  0  0  0  0
 44 45  1  0  0  0  0
 45 46  1  0  0  0  0
 46 47  1  0  0  0  0
 47 48  1  0  0  0  0
 48 49  1  0  0  0  0
 49 50  1  0  0  0  0
 50 51  1  0  0  0  0
 47 52  1  0  0  0  0
 52 53  1  0  0  0  0
 44 54  1  0  0  0  0
 54 55  1  0  0  0  0
 40 56  1  0  0  0  0
 56 57  2  0  0  0  0
 57 58  1  0  0  0  0
 58 59  2  0  0  0  0
 58 60  1  0  0  0  0
 60 61  2  0  0  0  0
 61 62  1  0  0  0  0
 62 63  2  0  0  0  0
 63 64  1  0  0  0  0
 64 65  2  0  0  0  0
 65 66  1  0  0  0  0
 66 67  2  0  0  0  0
 11  2  1  0  0  0  0
 23 17  1  0  0  0  0
 49 24  2  0  0  0  0
 66 57  1  0  0  0  0
 10  5  1  0  0  0  0
 22 18  1  0  0  0  0
 48 26  2  0  0  0  0
 65 60  1  0  0  0  0
 23  7  1  0  0  0  0
 46 27  2  0  0  0  0
 32 28  2  0  0  0  0
 45 33  2  0  0  0  0
 43 34  2  0  0  0  0
 42 36  2  0  0  0  0
  1 68  1  0  0  0  0
  6 69  1  0  0  0  0
  9 70  1  0  0  0  0
 17 71  1  0  0  0  0
 18 72  1  0  0  0  0
 19 73  1  0  0  0  0
 20 74  1  0  0  0  0
 21 75  1  0  0  0  0
 22 76  1  0  0  0  0
 22 77  1  0  0  0  0
 23 78  1  0  0  0  0
 38 79  1  0  0  0  0
 38 80  1  0  0  0  0
 39 81  1  0  0  0  0
 39 82  1  0  0  0  0
 39 83  1  0  0  0  0
 50 84  1  0  0  0  0
 50 85  1  0  0  0  0
 51 86  1  0  0  0  0
 51 87  1  0  0  0  0
 51 88  1  0  0  0  0
 52 89  1  0  0  0  0
 52 90  1  0  0  0  0
 53 91  1  0  0  0  0
 53 92  1  0  0  0  0
 53 93  1  0  0  0  0
 54 94  1  0  0  0  0
 54 95  1  0  0  0  0
 55 96  1  0  0  0  0
 55 97  1  0  0  0  0
 55 98  1  0  0  0  0
 56 99  1  0  0  0  0
 61100  1  0  0  0  0
 62101  1  0  0  0  0
 63102  1  0  0  0  0
 64103  1  0  0  0  0
M  END
