104

C         -0.10190        5.77620       -5.53170
C         -1.38450        6.26710       -5.52890
C         -2.45690        5.81720       -4.65090
O         -2.37910        4.97470       -3.76160
C         -3.66150        6.56440       -5.02890
C         -4.93560        6.44630       -4.47630
C         -5.87060        7.27390       -5.04970
C         -5.56210        8.15290       -6.09640
C         -4.30970        8.27760       -6.65140
C         -3.34060        7.44680       -6.08190
C         -1.92100        7.29390       -6.40320
C         -1.24340        8.00950       -7.35540
C         -1.82160        9.00850       -8.16740
N         -2.21890        9.83100       -8.86300
C          0.12580        7.87450       -7.66940
N          1.22810        7.83170       -7.99050
C         -6.97320        8.67880       -6.17760
C         -7.22940       10.06400       -5.54650
C         -8.72740       10.09780       -5.34590
C         -9.02080        9.26490       -4.35560
C         -7.72590        8.65400       -3.87000
C         -6.77470        9.83560       -4.09910
C         -7.31760        7.69800       -5.01090
C          0.49210        4.77470       -4.75040
C          1.82330        4.40260       -4.95440
C          2.28090        3.38430       -4.13970
S          3.84400        2.58690       -4.07890
C          3.23770        1.56530       -2.82350
C          3.64350        0.46960       -2.05630
C          4.84150       -0.27860       -2.10530
C          4.95810       -1.45150       -1.29590
N          6.10590       -2.08210       -1.47930
S          6.97050       -1.26500       -2.57690
N          5.90880       -0.07530       -2.86040
C          3.90980       -1.77040       -0.40020
C          3.77840       -2.75890        0.55710
C          2.60040       -2.53200        1.24630
N          1.94830       -1.44090        0.75630
C          0.75360       -0.96570        1.41300
C         -0.45860       -1.82410        1.05730
C          2.71300       -0.95670       -0.28900
C          2.54990        0.11930       -1.20220
N          1.50210        0.97480       -1.49320
C          1.91420        1.84620       -2.46340
C          1.34530        2.87920       -3.21270
Se        -0.30040        3.74950       -3.36430
C          0.11140        0.99280       -1.10750
C         -0.19390        2.11670       -0.11750
C          2.69280       -3.54990        2.24490
C          2.02290       -3.96520        3.32920
S          4.26840       -4.16750        1.56100
C          2.25290       -4.99530        4.28220
C          1.20170       -4.82140        5.15170
Se         0.40430       -3.29890        4.21640
C          0.71240       -5.36010        6.34390
C          1.08600       -6.50930        6.99140
C          1.99630       -7.55860        6.47500
O          2.69480       -7.52770        5.48580
C          1.86180       -8.69230        7.41540
C          2.45170       -9.93640        7.34190
C          2.16190      -10.85730        8.34840
C          2.74210      -12.22710        8.34780
O          2.51420      -13.05720        9.19220
O          3.54580      -12.43970        7.29990
C          4.13510      -13.72930        7.22170
C          1.30100      -10.51240        9.39060
C          0.71130       -9.26050        9.46270
C          0.99360       -8.33930        8.46420
C          0.53580       -6.96690        8.25310
C         -0.22160       -6.24130        9.13540
C         -0.70580       -6.74070       10.36360
N         -1.13530       -7.07830       11.37300
C         -0.60100       -4.89080        8.97700
N         -0.94120       -3.79480        8.93330
H          0.58050        6.20490       -6.25690
H         -5.12970        5.75170       -3.67420
H         -4.09390        8.95440       -7.46070
H         -7.47430        8.54810       -7.13470
H         -6.78820       10.89780       -6.08550
H         -9.40220       10.66350       -5.96090
H         -9.98970        8.99560       -3.97800
H         -7.73780        8.20400       -2.88090
H         -7.00870       10.68250       -3.45630
H         -5.72060        9.58330       -3.99910
H         -8.04800        6.91140       -5.19010
H          2.43480        4.87780       -5.70290
H          0.92840       -1.04940        2.49390
H          0.59380        0.08370        1.18520
H         -0.30670       -2.84200        1.41220
H         -0.62480       -1.86660       -0.01720
H         -1.34610       -1.42260        1.53840
H         -0.47470        1.17280       -2.01950
H         -0.17490        0.01880       -0.72140
H         -1.21050        2.01640        0.25170
H          0.49390        2.10910        0.72580
H         -0.10520        3.08330       -0.61240
H          3.05500       -5.70930        4.30560
H         -0.09390       -4.78520        6.78690
H          3.11390      -10.18510        6.52790
H          4.79870      -13.70840        6.36120
H          4.69290      -13.94740        8.13470
H          3.36300      -14.49080        7.09280
H          1.10030      -11.25430       10.14910
H          0.04610       -9.02670       10.27770
