105

C         -6.78850        1.14140        0.90540
C         -7.35290        1.02680       -0.33700
C         -6.86340        0.28840       -1.52260
O         -6.06840       -0.63060       -1.58200
C         -7.55140        0.88800       -2.67990
C         -7.30590        0.61530       -4.02360
C         -8.05710        1.36910       -4.89190
C         -8.98920        2.32120       -4.45690
C         -9.25670        2.58360       -3.13410
C         -8.49940        1.82870       -2.23400
C         -8.47850        1.83970       -0.77440
C         -9.40520        2.44970        0.02860
C         -9.44910        2.35590        1.43640
N         -9.57010        2.30710        2.57740
C        -10.49220        3.20920       -0.45280
N        -11.39400        3.84110       -0.77750
C         -9.34120        2.73420       -5.86400
C         -8.73860        4.05920       -6.39490
C         -7.45310        4.28230       -5.63760
C         -6.57680        3.37660       -6.05100
C         -7.25460        2.52390       -7.09500
C         -8.17820        3.56930       -7.73990
C         -8.30820        1.66850       -6.34820
C         -5.62770        0.55580        1.44800
Se        -4.91220        1.34450        3.05270
C         -3.49750        0.18370        2.82800
C         -2.23590       -0.11030        3.36940
C         -1.54860        0.37800        4.50160
C         -0.22760       -0.11140        4.78510
N          0.27060        0.40570        5.89690
S         -0.82010        1.42020        6.52940
N         -1.97410        1.24410        5.40660
C          0.40150       -0.96380        3.84700
C          1.73610       -1.37390        3.70170
S          3.25010       -1.22550        4.52160
C          4.04580       -2.00700        3.17120
C          5.39310       -2.25980        2.86960
C          6.52860       -2.04080        3.81010
C          6.23520       -2.53570        5.22420
C          5.52320       -2.83070        1.60960
S          3.96110       -3.13960        0.84680
C          3.14840       -2.38430        2.16230
C          1.83280       -2.02150        2.46400
N          0.60650       -2.06850        1.85450
C         -0.28930       -1.42300        2.69090
C         -1.65950       -1.10820        2.53970
N         -2.58050       -1.48710        1.58460
C         -3.68010       -0.67160        1.72300
C         -4.83660       -0.47810        0.97540
C         -2.68990       -2.79390        0.97120
C         -3.87350       -3.58200        1.53170
C          0.52680       -2.26340        0.42020
C          0.25390       -0.95380       -0.31340
C          6.64970       -3.23400        0.86340
C          7.88480       -2.64920        0.75790
C          8.88750       -3.40770        0.00660
O          8.67200       -4.50470       -0.46980
N         10.13940       -2.82170       -0.10460
C         11.15730       -3.59160       -0.81130
C         11.21670       -3.20600       -2.28320
C         10.44850       -1.57790        0.36820
S         11.98150       -0.97870        0.22620
N          9.46060       -0.83450        0.94780
C          9.75610        0.52680        1.38150
C         10.31060        0.54790        2.79960
C          8.16210       -1.28210        1.17510
O          7.32950       -0.52300        1.63330
H         -7.24640        1.87240        1.56530
H         -6.57420       -0.12190       -4.31520
H         -9.97500        3.31990       -2.81420
H        -10.38190        2.60690       -6.15470
H         -9.43370        4.89410       -6.41590
H         -7.33420        5.01670       -4.86250
H         -5.57990        3.20310       -5.68990
H         -6.59920        1.96010       -7.75380
H         -7.62920        4.34330       -8.27420
H         -8.93410        3.13640       -8.39350
H         -8.67510        0.84060       -6.95160
H          7.41190       -2.55120        3.42120
H          6.74910       -0.96930        3.82840
H          5.43900       -1.95950        5.68670
H          7.12770       -2.43690        5.83690
H          5.94300       -3.58350        5.20780
H         -5.08950       -1.02550        0.08520
H         -2.79610       -2.68000       -0.11250
H         -1.78200       -3.34970        1.19930
H         -3.79220       -3.66420        2.61360
H         -4.81740       -3.10330        1.29010
H         -3.87350       -4.58180        1.10580
H          1.49550       -2.66190        0.10980
H         -0.22840       -3.00530        0.16050
H          1.02170       -0.22180       -0.07370
H          0.26300       -1.12840       -1.38550
H         -0.71380       -0.54450       -0.03550
H          6.51480       -4.11700        0.24360
H         10.87990       -4.64200       -0.70940
H         12.11900       -3.41210       -0.32840
H         11.96630       -3.81010       -2.78560
H         11.48470       -2.15770       -2.39180
H         10.25260       -3.37920       -2.75550
H          8.81590        1.07930        1.33650
H         10.47440        0.96030        0.68420
H         11.24740       -0.00170        2.84910
H         10.49380        1.57500        3.10090
H          9.59820        0.10180        3.48970
