
  xtb     02022211363D
 energy: -183.944527496622 gnorm: 0.000494761704 xtb: 6.4.1 (unknown)
101115  0     0  0            999 V2000
   -0.9610   -0.6281    4.8312 C   0  0  0  0  0  0  0  0  0  0  0  0
   -2.0593   -1.0902    5.4916 C   0  0  0  0  0  0  0  0  0  0  0  0
   -3.2027   -1.7570    4.8198 C   0  0  0  0  0  0  0  0  0  0  0  0
   -3.2685   -2.1299    3.6682 O   0  0  0  0  0  0  0  0  0  0  0  0
   -4.3020   -1.7349    5.8026 C   0  0  0  0  0  0  0  0  0  0  0  0
   -5.6057   -2.1854    5.6033 C   0  0  0  0  0  0  0  0  0  0  0  0
   -6.4310   -2.0085    6.6876 C   0  0  0  0  0  0  0  0  0  0  0  0
   -5.9967   -1.4184    7.8826 C   0  0  0  0  0  0  0  0  0  0  0  0
   -4.7170   -0.9624    8.0910 C   0  0  0  0  0  0  0  0  0  0  0  0
   -3.8589   -1.1377    7.0006 C   0  0  0  0  0  0  0  0  0  0  0  0
   -2.4566   -0.7683    6.8461 C   0  0  0  0  0  0  0  0  0  0  0  0
   -1.6271   -0.2878    7.8257 C   0  0  0  0  0  0  0  0  0  0  0  0
   -0.2500   -0.0423    7.6414 C   0  0  0  0  0  0  0  0  0  0  0  0
    0.8793    0.1508    7.5633 N   0  0  0  0  0  0  0  0  0  0  0  0
   -2.0282   -0.0153    9.1491 C   0  0  0  0  0  0  0  0  0  0  0  0
   -2.2955    0.2291   10.2387 N   0  0  0  0  0  0  0  0  0  0  0  0
   -7.3499   -1.5535    8.5346 C   0  0  0  0  0  0  0  0  0  0  0  0
   -7.5122   -2.6968    9.5587 C   0  0  0  0  0  0  0  0  0  0  0  0
   -9.0093   -2.8819    9.6577 C   0  0  0  0  0  0  0  0  0  0  0  0
   -9.4226   -3.4391    8.5266 C   0  0  0  0  0  0  0  0  0  0  0  0
   -8.2118   -3.6407    7.6442 C   0  0  0  0  0  0  0  0  0  0  0  0
   -7.1499   -3.9253    8.7141 C   0  0  0  0  0  0  0  0  0  0  0  0
   -7.8344   -2.2110    7.2024 C   0  0  0  0  0  0  0  0  0  0  0  0
   -0.5105   -1.0730    3.5603 C   0  0  0  0  0  0  0  0  0  0  0  0
   -0.3547   -2.3561    3.0601 C   0  0  0  0  0  0  0  0  0  0  0  0
   -0.5851   -3.6222    3.8204 C   0  0  0  0  0  0  0  0  0  0  0  0
   -1.5581   -4.5602    3.1067 C   0  0  0  0  0  0  0  0  0  0  0  0
    0.2097   -2.3275    1.7747 C   0  0  0  0  0  0  0  0  0  0  0  0
    0.4684   -1.0417    1.2849 C   0  0  0  0  0  0  0  0  0  0  0  0
    0.0820    0.1638    2.4516 S   0  0  0  0  0  0  0  0  0  0  0  0
    0.9999   -1.0698   -0.0068 C   0  0  0  0  0  0  0  0  0  0  0  0
    1.1625   -2.3774   -0.4818 C   0  0  0  0  0  0  0  0  0  0  0  0
    0.6612   -3.5866    0.6471 S   0  0  0  0  0  0  0  0  0  0  0  0
    1.6645   -2.2824   -1.7917 C   0  0  0  0  0  0  0  0  0  0  0  0
    1.8871   -3.2357   -2.8125 C   0  0  0  0  0  0  0  0  0  0  0  0
    1.7430   -4.5498   -2.7549 N   0  0  0  0  0  0  0  0  0  0  0  0
    2.0207   -5.1657   -4.2252 S   0  0  0  0  0  0  0  0  0  0  0  0
    2.3389   -3.7795   -4.9966 N   0  0  0  0  0  0  0  0  0  0  0  0
    2.2437   -2.7823   -4.1322 C   0  0  0  0  0  0  0  0  0  0  0  0
    2.5058   -1.4086   -4.3437 C   0  0  0  0  0  0  0  0  0  0  0  0
    2.9669   -0.6747   -5.4485 C   0  0  0  0  0  0  0  0  0  0  0  0
    3.3232   -0.9174   -7.1249 S   0  0  0  0  0  0  0  0  0  0  0  0
    3.7593    0.7749   -7.2486 C   0  0  0  0  0  0  0  0  0  0  0  0
    4.1814    1.5757   -8.2928 C   0  0  0  0  0  0  0  0  0  0  0  0
    4.3860    2.9016   -7.9072 C   0  0  0  0  0  0  0  0  0  0  0  0
    4.0517    3.1425   -6.1963 S   0  0  0  0  0  0  0  0  0  0  0  0
    3.6391    1.4766   -6.0328 C   0  0  0  0  0  0  0  0  0  0  0  0
    3.1851    0.6408   -5.0114 C   0  0  0  0  0  0  0  0  0  0  0  0
    2.8633    0.7534   -3.6807 N   0  0  0  0  0  0  0  0  0  0  0  0
    3.4983    1.7587   -2.8508 C   0  0  0  0  0  0  0  0  0  0  0  0
    5.0212    1.6685   -2.9392 C   0  0  0  0  0  0  0  0  0  0  0  0
    2.4073   -0.4825   -3.2698 C   0  0  0  0  0  0  0  0  0  0  0  0
    1.8335   -0.8968   -2.0498 C   0  0  0  0  0  0  0  0  0  0  0  0
    1.3976   -0.1650   -0.9601 N   0  0  0  0  0  0  0  0  0  0  0  0
    0.8041    1.1577   -0.9928 C   0  0  0  0  0  0  0  0  0  0  0  0
   -0.7187    1.0777   -1.0978 C   0  0  0  0  0  0  0  0  0  0  0  0
    4.7882    3.8894   -8.8188 C   0  0  0  0  0  0  0  0  0  0  0  0
    5.0071    5.2290   -8.6400 C   0  0  0  0  0  0  0  0  0  0  0  0
    4.8795    5.9774   -7.3737 C   0  0  0  0  0  0  0  0  0  0  0  0
    4.5778    5.5335   -6.2803 O   0  0  0  0  0  0  0  0  0  0  0  0
    5.1956    7.3712   -7.7076 C   0  0  0  0  0  0  0  0  0  0  0  0
    5.2746    8.6131   -7.0560 C   0  0  0  0  0  0  0  0  0  0  0  0
    5.6305    9.5986   -7.9290 C   0  0  0  0  0  0  0  0  0  0  0  0
    5.8762    9.0455   -9.5467 S   0  0  0  0  0  0  0  0  0  0  0  0
    5.4946    7.4480   -9.0601 C   0  0  0  0  0  0  0  0  0  0  0  0
    5.3973    6.1582   -9.6904 C   0  0  0  0  0  0  0  0  0  0  0  0
    5.6320    5.9236  -11.0220 C   0  0  0  0  0  0  0  0  0  0  0  0
    6.0004    6.9802  -11.8811 C   0  0  0  0  0  0  0  0  0  0  0  0
    6.2984    7.8361  -12.5850 N   0  0  0  0  0  0  0  0  0  0  0  0
    5.5425    4.6799  -11.6738 C   0  0  0  0  0  0  0  0  0  0  0  0
    5.4861    3.6971  -12.2661 N   0  0  0  0  0  0  0  0  0  0  0  0
   -0.3996    0.1934    5.2623 H   0  0  0  0  0  0  0  0  0  0  0  0
   -5.9022   -2.6256    4.6641 H   0  0  0  0  0  0  0  0  0  0  0  0
   -4.3997   -0.4947    9.0082 H   0  0  0  0  0  0  0  0  0  0  0  0
   -7.8155   -0.6242    8.8572 H   0  0  0  0  0  0  0  0  0  0  0  0
   -6.9734   -2.5523   10.4910 H   0  0  0  0  0  0  0  0  0  0  0  0
   -9.6012   -2.5482   10.4896 H   0  0  0  0  0  0  0  0  0  0  0  0
  -10.4289   -3.6637    8.2249 H   0  0  0  0  0  0  0  0  0  0  0  0
   -8.3115   -4.3569    6.8330 H   0  0  0  0  0  0  0  0  0  0  0  0
   -7.3384   -4.8581    9.2430 H   0  0  0  0  0  0  0  0  0  0  0  0
   -6.1284   -3.9201    8.3383 H   0  0  0  0  0  0  0  0  0  0  0  0
   -8.6221   -1.7186    6.6351 H   0  0  0  0  0  0  0  0  0  0  0  0
    0.3808   -4.1265    3.9279 H   0  0  0  0  0  0  0  0  0  0  0  0
   -0.9586   -3.3885    4.8180 H   0  0  0  0  0  0  0  0  0  0  0  0
   -2.5071   -4.0571    2.9457 H   0  0  0  0  0  0  0  0  0  0  0  0
   -1.1578   -4.8693    2.1449 H   0  0  0  0  0  0  0  0  0  0  0  0
   -1.7263   -5.4461    3.7139 H   0  0  0  0  0  0  0  0  0  0  0  0
    4.3346    1.2378   -9.3017 H   0  0  0  0  0  0  0  0  0  0  0  0
    3.2063    1.5973   -1.8145 H   0  0  0  0  0  0  0  0  0  0  0  0
    3.1685    2.7489   -3.1807 H   0  0  0  0  0  0  0  0  0  0  0  0
    5.4644    2.3864   -2.2550 H   0  0  0  0  0  0  0  0  0  0  0  0
    5.3561    0.6703   -2.6650 H   0  0  0  0  0  0  0  0  0  0  0  0
    5.3685    1.8928   -3.9434 H   0  0  0  0  0  0  0  0  0  0  0  0
    1.0874    1.6875   -0.0779 H   0  0  0  0  0  0  0  0  0  0  0  0
    1.1783    1.6985   -1.8592 H   0  0  0  0  0  0  0  0  0  0  0  0
   -1.1481    0.5919   -0.2263 H   0  0  0  0  0  0  0  0  0  0  0  0
   -1.0044    0.5176   -1.9857 H   0  0  0  0  0  0  0  0  0  0  0  0
   -1.1297    2.0807   -1.1702 H   0  0  0  0  0  0  0  0  0  0  0  0
    4.9315    3.5047   -9.8219 H   0  0  0  0  0  0  0  0  0  0  0  0
    5.0804    8.7679   -6.0110 H   0  0  0  0  0  0  0  0  0  0  0  0
    5.7670   10.6412   -7.7182 H   0  0  0  0  0  0  0  0  0  0  0  0
  1  2  2  0  0  0  0
  2  3  1  0  0  0  0
  3  4  2  0  0  0  0
  3  5  1  0  0  0  0
  5  6  2  0  0  0  0
  6  7  1  0  0  0  0
  7  8  2  0  0  0  0
  8  9  1  0  0  0  0
  9 10  2  0  0  0  0
 10 11  1  0  0  0  0
 11 12  2  0  0  0  0
 12 13  1  0  0  0  0
 13 14  3  0  0  0  0
 12 15  1  0  0  0  0
 15 16  3  0  0  0  0
  8 17  1  0  0  0  0
 17 18  1  0  0  0  0
 18 19  1  0  0  0  0
 19 20  2  0  0  0  0
 20 21  1  0  0  0  0
 21 22  1  0  0  0  0
 21 23  1  0  0  0  0
  1 24  1  0  0  0  0
 24 25  2  0  0  0  0
 25 26  1  0  0  0  0
 26 27  1  0  0  0  0
 25 28  1  0  0  0  0
 28 29  2  0  0  0  0
 29 30  1  0  0  0  0
 29 31  1  0  0  0  0
 31 32  2  0  0  0  0
 32 33  1  0  0  0  0
 32 34  1  0  0  0  0
 34 35  1  0  0  0  0
 35 36  2  0  0  0  0
 36 37  1  0  0  0  0
 37 38  1  0  0  0  0
 38 39  2  0  0  0  0
 39 40  1  0  0  0  0
 40 41  1  0  0  0  0
 41 42  1  0  0  0  0
 42 43  1  0  0  0  0
 43 44  1  0  0  0  0
 44 45  2  0  0  0  0
 45 46  1  0  0  0  0
 46 47  1  0  0  0  0
 47 48  1  0  0  0  0
 48 49  1  0  0  0  0
 49 50  1  0  0  0  0
 50 51  1  0  0  0  0
 49 52  1  0  0  0  0
 52 53  1  0  0  0  0
 53 54  1  0  0  0  0
 54 55  1  0  0  0  0
 55 56  1  0  0  0  0
 45 57  1  0  0  0  0
 57 58  2  0  0  0  0
 58 59  1  0  0  0  0
 59 60  2  0  0  0  0
 59 61  1  0  0  0  0
 61 62  1  0  0  0  0
 62 63  2  0  0  0  0
 63 64  1  0  0  0  0
 64 65  1  0  0  0  0
 65 66  1  0  0  0  0
 66 67  2  0  0  0  0
 67 68  1  0  0  0  0
 68 69  3  0  0  0  0
 67 70  1  0  0  0  0
 70 71  3  0  0  0  0
 11  2  1  0  0  0  0
 23 17  1  0  0  0  0
 30 24  1  0  0  0  0
 54 31  1  0  0  0  0
 66 58  1  0  0  0  0
 10  5  1  0  0  0  0
 22 18  1  0  0  0  0
 33 28  1  0  0  0  0
 53 34  2  0  0  0  0
 65 61  2  0  0  0  0
 23  7  1  0  0  0  0
 39 35  1  0  0  0  0
 52 40  2  0  0  0  0
 48 41  2  0  0  0  0
 47 43  2  0  0  0  0
  1 72  1  0  0  0  0
  6 73  1  0  0  0  0
  9 74  1  0  0  0  0
 17 75  1  0  0  0  0
 18 76  1  0  0  0  0
 19 77  1  0  0  0  0
 20 78  1  0  0  0  0
 21 79  1  0  0  0  0
 22 80  1  0  0  0  0
 22 81  1  0  0  0  0
 23 82  1  0  0  0  0
 26 83  1  0  0  0  0
 26 84  1  0  0  0  0
 27 85  1  0  0  0  0
 27 86  1  0  0  0  0
 27 87  1  0  0  0  0
 44 88  1  0  0  0  0
 50 89  1  0  0  0  0
 50 90  1  0  0  0  0
 51 91  1  0  0  0  0
 51 92  1  0  0  0  0
 51 93  1  0  0  0  0
 55 94  1  0  0  0  0
 55 95  1  0  0  0  0
 56 96  1  0  0  0  0
 56 97  1  0  0  0  0
 56 98  1  0  0  0  0
 57 99  1  0  0  0  0
 62100  1  0  0  0  0
 63101  1  0  0  0  0
M  END
