104

C         -5.33360        2.33230       -2.41940
C         -5.96370        1.11470       -2.38600
C         -5.43160       -0.12330       -1.80970
O         -4.34770       -0.28590       -1.27260
C         -6.47040       -1.14910       -1.99690
C         -6.41510       -2.48290       -1.59740
C         -7.54800       -3.20250       -1.89310
C         -8.65730       -2.63510       -2.53390
C         -8.72450       -1.32150       -2.93370
C         -7.57940       -0.57170       -2.64810
C         -7.28650        0.83660       -2.91110
C         -8.13100        1.71500       -3.54170
C         -7.86680        3.07600       -3.80040
N         -7.73470        4.18990       -4.05130
C         -9.41020        1.38180       -4.03480
N        -10.45760        1.19040       -4.46490
C         -9.43510       -3.92700       -2.50790
C         -9.51070       -4.71420       -3.83300
C         -9.89360       -6.11150       -3.40170
C         -8.84150       -6.65020       -2.79870
C         -7.72950       -5.62590       -2.81220
C         -8.02540       -4.93330       -4.14880
C         -8.19660       -4.56120       -1.79680
C         -4.08360        2.73510       -1.93370
C         -3.60860        4.05130       -2.05470
C         -4.30120        5.17280       -2.75720
C         -4.03030        5.11860       -4.26330
C         -2.35310        4.19100       -1.47650
C         -1.84770        3.01030       -0.90770
S         -2.93970        1.68820       -1.09280
C         -0.58960        3.22850       -0.33560
C         -0.16650        4.55710       -0.46420
S         -1.28520        5.57170       -1.30550
C          1.06940        4.65640        0.18480
C          1.87730        5.78320        0.45560
N          1.68420        7.04340        0.09990
S          2.87040        7.94280        0.73550
N          3.67710        6.75780        1.48720
C          3.04600        5.61580        1.26560
C          3.40900        4.31330        1.67540
C          4.53660        3.85740        2.36550
S          5.94770        4.50120        3.13210
C          6.45370        2.86390        3.49640
C          7.55150        2.33590        4.14200
C          7.53280        0.93740        4.19180
S          6.09890        0.28220        3.40490
C          5.55550        1.87620        3.03470
C          4.45960        2.45780        2.39550
N          3.31170        2.04030        1.77530
C          3.18240        0.65300        1.38530
C          3.33720        0.48150       -0.12360
C          2.63600        3.16250        1.33010
C          1.39430        3.35230        0.66660
N          0.35270        2.50090        0.33850
C         -0.00090        1.20230        0.86820
C         -0.17270        1.24570        2.38440
C          8.55000        0.20560        4.81000
C          8.71300       -1.15320        4.95530
C          7.80680       -2.17970        4.44170
O          6.76770       -2.02330        3.82380
C          8.40400       -3.47740        4.81920
C          7.93120       -4.74780        4.55840
C          8.67950       -5.81840        5.02090
F          8.25980       -7.06890        4.79070
C          9.86540       -5.60510        5.72340
F         10.56810       -6.65710        6.15810
C         10.33920       -4.32750        5.98490
C          9.59700       -3.25110        5.52560
C          9.81510       -1.80640        5.63120
C         10.87670       -1.21770        6.26830
C         11.10440        0.16970        6.38710
N         11.36370        1.27900        6.53580
C         11.90970       -1.93400        6.91000
N         12.77990       -2.45410        7.44800
H         -5.88190        3.13500       -2.89260
H         -5.54330       -2.87590       -1.09810
H         -9.58840       -0.90250       -3.42110
H        -10.38350       -3.89790       -1.97500
H        -10.12460       -4.25310       -4.60170
H        -10.87510       -6.52980       -3.52600
H         -8.76870       -7.60840       -2.31870
H         -6.72070       -5.99710       -2.65230
H         -7.46480       -4.01360       -4.30620
H         -7.87930       -5.59850       -4.99810
H         -8.32000       -4.95830       -0.79080
H         -5.37750        5.14410       -2.58230
H         -3.91510        6.11360       -2.35970
H         -4.40680        4.19140       -4.68900
H         -4.52670        5.94940       -4.75620
H         -2.96230        5.18280       -4.45820
H          8.34890        2.91620        4.56980
H          3.98450        0.11190        1.89290
H          2.24020        0.23880        1.74370
H          3.22700       -0.56620       -0.38930
H          4.32430        0.81460       -0.43560
H          2.59590        1.06310       -0.66710
H          0.72930        0.45180        0.56580
H         -0.95250        0.92810        0.40680
H         -0.42630        0.25660        2.75540
H         -0.97720        1.92890        2.64630
H          0.73500        1.58610        2.87760
H          9.32210        0.83510        5.23500
H          7.01380       -4.90750        4.01470
H         11.26130       -4.21890        6.53160
