
  xtb     02022205383D
 energy: -187.981019552884 gnorm: 0.000270078190 xtb: 6.4.1 (unknown)
110123  0     0  0            999 V2000
    5.1950    0.1009   -4.2244 C   0  0  0  0  0  0  0  0  0  0  0  0
    5.2562    0.9699   -5.2806 C   0  0  0  0  0  0  0  0  0  0  0  0
    4.1413    1.3850   -6.1454 C   0  0  0  0  0  0  0  0  0  0  0  0
    3.0818    0.8154   -6.3216 O   0  0  0  0  0  0  0  0  0  0  0  0
    4.5593    2.6635   -6.7515 C   0  0  0  0  0  0  0  0  0  0  0  0
    3.7726    3.5279   -7.5087 C   0  0  0  0  0  0  0  0  0  0  0  0
    4.4089    4.6932   -7.8645 C   0  0  0  0  0  0  0  0  0  0  0  0
    5.7345    4.9735   -7.5071 C   0  0  0  0  0  0  0  0  0  0  0  0
    6.5292    4.1193   -6.7794 C   0  0  0  0  0  0  0  0  0  0  0  0
    5.8960    2.9338   -6.3951 C   0  0  0  0  0  0  0  0  0  0  0  0
    6.3851    1.8321   -5.5704 C   0  0  0  0  0  0  0  0  0  0  0  0
    7.6854    1.6309   -5.1846 C   0  0  0  0  0  0  0  0  0  0  0  0
    8.1373    0.5135   -4.4529 C   0  0  0  0  0  0  0  0  0  0  0  0
    8.5733   -0.3759   -3.8701 N   0  0  0  0  0  0  0  0  0  0  0  0
    8.7531    2.4918   -5.5101 C   0  0  0  0  0  0  0  0  0  0  0  0
    9.6636    3.1543   -5.7351 N   0  0  0  0  0  0  0  0  0  0  0  0
    5.7042    6.3370   -8.1521 C   0  0  0  0  0  0  0  0  0  0  0  0
    5.5503    7.5402   -7.1970 C   0  0  0  0  0  0  0  0  0  0  0  0
    5.0710    8.6576   -8.0952 C   0  0  0  0  0  0  0  0  0  0  0  0
    3.8166    8.3913   -8.4361 C   0  0  0  0  0  0  0  0  0  0  0  0
    3.4272    7.0895   -7.7739 C   0  0  0  0  0  0  0  0  0  0  0  0
    4.2386    7.2016   -6.4767 C   0  0  0  0  0  0  0  0  0  0  0  0
    4.2271    6.0230   -8.5528 C   0  0  0  0  0  0  0  0  0  0  0  0
    4.1251   -0.6660   -3.7353 C   0  0  0  0  0  0  0  0  0  0  0  0
    2.6249   -0.9513   -4.6210 S   0  0  0  0  0  0  0  0  0  0  0  0
    2.0065   -1.8012   -3.2772 C   0  0  0  0  0  0  0  0  0  0  0  0
    0.7831   -2.3538   -2.8479 C   0  0  0  0  0  0  0  0  0  0  0  0
   -0.4383   -2.6381   -3.5010 C   0  0  0  0  0  0  0  0  0  0  0  0
   -1.5362   -3.1730   -2.7366 C   0  0  0  0  0  0  0  0  0  0  0  0
   -2.5942   -3.4302   -3.4878 N   0  0  0  0  0  0  0  0  0  0  0  0
   -2.2475   -3.0360   -5.0196 S   0  0  0  0  0  0  0  0  0  0  0  0
   -0.7349   -2.5159   -4.7842 N   0  0  0  0  0  0  0  0  0  0  0  0
   -1.4183   -3.2508   -1.3285 C   0  0  0  0  0  0  0  0  0  0  0  0
   -2.3701   -3.3727   -0.3063 C   0  0  0  0  0  0  0  0  0  0  0  0
   -4.0751   -3.6172   -0.1297 S   0  0  0  0  0  0  0  0  0  0  0  0
   -3.9276   -3.2101    1.5716 C   0  0  0  0  0  0  0  0  0  0  0  0
   -4.8718   -3.0075    2.5690 C   0  0  0  0  0  0  0  0  0  0  0  0
   -6.3272   -3.2813    2.3733 C   0  0  0  0  0  0  0  0  0  0  0  0
   -6.7070   -4.6487    2.9477 C   0  0  0  0  0  0  0  0  0  0  0  0
   -4.2738   -2.5386    3.7523 C   0  0  0  0  0  0  0  0  0  0  0  0
   -2.5200   -2.4081    3.6048 S   0  0  0  0  0  0  0  0  0  0  0  0
   -2.6062   -2.9483    1.9721 C   0  0  0  0  0  0  0  0  0  0  0  0
   -1.7187   -3.0723    0.9006 C   0  0  0  0  0  0  0  0  0  0  0  0
   -0.3908   -2.8416    0.6675 N   0  0  0  0  0  0  0  0  0  0  0  0
   -0.1834   -2.9413   -0.6892 C   0  0  0  0  0  0  0  0  0  0  0  0
    0.9503   -2.6513   -1.4761 C   0  0  0  0  0  0  0  0  0  0  0  0
    2.2678   -2.4159   -1.0887 N   0  0  0  0  0  0  0  0  0  0  0  0
    2.9013   -1.8521   -2.1915 C   0  0  0  0  0  0  0  0  0  0  0  0
    4.1188   -1.2254   -2.4435 C   0  0  0  0  0  0  0  0  0  0  0  0
    5.2422   -1.0757   -1.4614 C   0  0  0  0  0  0  0  0  0  0  0  0
    6.3489   -2.1115   -1.6775 C   0  0  0  0  0  0  0  0  0  0  0  0
    2.9637   -3.3767   -0.2495 C   0  0  0  0  0  0  0  0  0  0  0  0
    3.3611   -4.6181   -1.0482 C   0  0  0  0  0  0  0  0  0  0  0  0
    0.4618   -2.2671    1.6835 C   0  0  0  0  0  0  0  0  0  0  0  0
    0.8382   -3.2851    2.7581 C   0  0  0  0  0  0  0  0  0  0  0  0
   -5.0085   -2.1542    4.8791 C   0  0  0  0  0  0  0  0  0  0  0  0
   -4.6136   -1.5268    6.0354 C   0  0  0  0  0  0  0  0  0  0  0  0
   -3.2551   -1.0858    6.3632 C   0  0  0  0  0  0  0  0  0  0  0  0
   -2.2231   -1.3385    5.7634 O   0  0  0  0  0  0  0  0  0  0  0  0
   -3.3764   -0.2572    7.5757 C   0  0  0  0  0  0  0  0  0  0  0  0
   -2.3966    0.4498    8.2388 C   0  0  0  0  0  0  0  0  0  0  0  0
   -2.7480    1.1985    9.3613 C   0  0  0  0  0  0  0  0  0  0  0  0
   -1.7139    2.0039   10.0815 C   0  0  0  0  0  0  0  0  0  0  0  0
   -4.0757    1.2030    9.7798 C   0  0  0  0  0  0  0  0  0  0  0  0
   -5.0656    0.4885    9.1194 C   0  0  0  0  0  0  0  0  0  0  0  0
   -4.7167   -0.2513    8.0010 C   0  0  0  0  0  0  0  0  0  0  0  0
   -5.5038   -1.0768    7.0883 C   0  0  0  0  0  0  0  0  0  0  0  0
   -6.8346   -1.3739    7.2374 C   0  0  0  0  0  0  0  0  0  0  0  0
   -7.5904   -2.2063    6.3869 C   0  0  0  0  0  0  0  0  0  0  0  0
   -8.2696   -2.8775    5.7473 N   0  0  0  0  0  0  0  0  0  0  0  0
   -7.6351   -0.8967    8.2960 C   0  0  0  0  0  0  0  0  0  0  0  0
   -8.3437   -0.5420    9.1270 N   0  0  0  0  0  0  0  0  0  0  0  0
    6.0826    0.0575   -3.6066 H   0  0  0  0  0  0  0  0  0  0  0  0
    2.7541    3.2753   -7.7589 H   0  0  0  0  0  0  0  0  0  0  0  0
    7.5463    4.3483   -6.5074 H   0  0  0  0  0  0  0  0  0  0  0  0
    6.4340    6.5095   -8.9404 H   0  0  0  0  0  0  0  0  0  0  0  0
    6.4215    7.7467   -6.5812 H   0  0  0  0  0  0  0  0  0  0  0  0
    5.6908    9.4712   -8.4234 H   0  0  0  0  0  0  0  0  0  0  0  0
    3.1790    8.9379   -9.1060 H   0  0  0  0  0  0  0  0  0  0  0  0
    2.3637    6.8852   -7.6834 H   0  0  0  0  0  0  0  0  0  0  0  0
    3.8935    8.0187   -5.8451 H   0  0  0  0  0  0  0  0  0  0  0  0
    4.2750    6.2827   -5.8943 H   0  0  0  0  0  0  0  0  0  0  0  0
    3.9702    5.9848   -9.6095 H   0  0  0  0  0  0  0  0  0  0  0  0
   -6.9383   -2.5094    2.8436 H   0  0  0  0  0  0  0  0  0  0  0  0
   -6.5327   -3.2733    1.3009 H   0  0  0  0  0  0  0  0  0  0  0  0
   -7.7596   -4.8445    2.7647 H   0  0  0  0  0  0  0  0  0  0  0  0
   -6.1178   -5.4329    2.4780 H   0  0  0  0  0  0  0  0  0  0  0  0
   -6.5357   -4.6776    4.0208 H   0  0  0  0  0  0  0  0  0  0  0  0
    4.8422   -1.1709   -0.4507 H   0  0  0  0  0  0  0  0  0  0  0  0
    5.6707   -0.0749   -1.5397 H   0  0  0  0  0  0  0  0  0  0  0  0
    6.8058   -1.9916   -2.6562 H   0  0  0  0  0  0  0  0  0  0  0  0
    7.1237   -1.9860   -0.9254 H   0  0  0  0  0  0  0  0  0  0  0  0
    5.9548   -3.1217   -1.6020 H   0  0  0  0  0  0  0  0  0  0  0  0
    2.3038   -3.6795    0.5598 H   0  0  0  0  0  0  0  0  0  0  0  0
    3.8494   -2.9026    0.1754 H   0  0  0  0  0  0  0  0  0  0  0  0
    3.9851   -4.3470   -1.8965 H   0  0  0  0  0  0  0  0  0  0  0  0
    2.4734   -5.1221   -1.4253 H   0  0  0  0  0  0  0  0  0  0  0  0
    3.9114   -5.3073   -0.4132 H   0  0  0  0  0  0  0  0  0  0  0  0
   -0.0896   -1.4493    2.1611 H   0  0  0  0  0  0  0  0  0  0  0  0
    1.3442   -1.8444    1.2018 H   0  0  0  0  0  0  0  0  0  0  0  0
    1.5403   -2.8364    3.4547 H   0  0  0  0  0  0  0  0  0  0  0  0
   -0.0458   -3.5869    3.3125 H   0  0  0  0  0  0  0  0  0  0  0  0
    1.2915   -4.1755    2.3274 H   0  0  0  0  0  0  0  0  0  0  0  0
   -6.0699   -2.3387    4.7807 H   0  0  0  0  0  0  0  0  0  0  0  0
   -1.3772    0.4218    7.8836 H   0  0  0  0  0  0  0  0  0  0  0  0
   -1.5468    2.9440    9.5545 H   0  0  0  0  0  0  0  0  0  0  0  0
   -0.7664    1.4709   10.1180 H   0  0  0  0  0  0  0  0  0  0  0  0
   -2.0322    2.2355   11.0945 H   0  0  0  0  0  0  0  0  0  0  0  0
   -4.3479    1.7848   10.6485 H   0  0  0  0  0  0  0  0  0  0  0  0
   -6.0807    0.5257    9.4790 H   0  0  0  0  0  0  0  0  0  0  0  0
  1  2  2  0  0  0  0
  2  3  1  0  0  0  0
  3  4  2  0  0  0  0
  3  5  1  0  0  0  0
  5  6  2  0  0  0  0
  6  7  1  0  0  0  0
  7  8  2  0  0  0  0
  8  9  1  0  0  0  0
  9 10  2  0  0  0  0
 10 11  1  0  0  0  0
 11 12  2  0  0  0  0
 12 13  1  0  0  0  0
 13 14  3  0  0  0  0
 12 15  1  0  0  0  0
 15 16  3  0  0  0  0
  8 17  1  0  0  0  0
 17 18  1  0  0  0  0
 18 19  1  0  0  0  0
 19 20  2  0  0  0  0
 20 21  1  0  0  0  0
 21 22  1  0  0  0  0
 21 23  1  0  0  0  0
  1 24  1  0  0  0  0
 24 25  1  0  0  0  0
 25 26  1  0  0  0  0
 26 27  1  0  0  0  0
 27 28  1  0  0  0  0
 28 29  1  0  0  0  0
 29 30  2  0  0  0  0
 30 31  1  0  0  0  0
 31 32  1  0  0  0  0
 29 33  1  0  0  0  0
 33 34  1  0  0  0  0
 34 35  1  0  0  0  0
 35 36  1  0  0  0  0
 36 37  1  0  0  0  0
 37 38  1  0  0  0  0
 38 39  1  0  0  0  0
 37 40  2  0  0  0  0
 40 41  1  0  0  0  0
 41 42  1  0  0  0  0
 42 43  1  0  0  0  0
 43 44  1  0  0  0  0
 44 45  1  0  0  0  0
 45 46  1  0  0  0  0
 46 47  1  0  0  0  0
 47 48  1  0  0  0  0
 48 49  1  0  0  0  0
 49 50  1  0  0  0  0
 50 51  1  0  0  0  0
 47 52  1  0  0  0  0
 52 53  1  0  0  0  0
 44 54  1  0  0  0  0
 54 55  1  0  0  0  0
 40 56  1  0  0  0  0
 56 57  2  0  0  0  0
 57 58  1  0  0  0  0
 58 59  2  0  0  0  0
 58 60  1  0  0  0  0
 60 61  2  0  0  0  0
 61 62  1  0  0  0  0
 62 63  1  0  0  0  0
 62 64  2  0  0  0  0
 64 65  1  0  0  0  0
 65 66  2  0  0  0  0
 66 67  1  0  0  0  0
 67 68  2  0  0  0  0
 68 69  1  0  0  0  0
 69 70  3  0  0  0  0
 68 71  1  0  0  0  0
 71 72  3  0  0  0  0
 11  2  1  0  0  0  0
 23 17  1  0  0  0  0
 49 24  2  0  0  0  0
 67 57  1  0  0  0  0
 10  5  1  0  0  0  0
 22 18  1  0  0  0  0
 48 26  2  0  0  0  0
 66 60  1  0  0  0  0
 23  7  1  0  0  0  0
 46 27  2  0  0  0  0
 32 28  2  0  0  0  0
 45 33  2  0  0  0  0
 43 34  2  0  0  0  0
 42 36  2  0  0  0  0
  1 73  1  0  0  0  0
  6 74  1  0  0  0  0
  9 75  1  0  0  0  0
 17 76  1  0  0  0  0
 18 77  1  0  0  0  0
 19 78  1  0  0  0  0
 20 79  1  0  0  0  0
 21 80  1  0  0  0  0
 22 81  1  0  0  0  0
 22 82  1  0  0  0  0
 23 83  1  0  0  0  0
 38 84  1  0  0  0  0
 38 85  1  0  0  0  0
 39 86  1  0  0  0  0
 39 87  1  0  0  0  0
 39 88  1  0  0  0  0
 50 89  1  0  0  0  0
 50 90  1  0  0  0  0
 51 91  1  0  0  0  0
 51 92  1  0  0  0  0
 51 93  1  0  0  0  0
 52 94  1  0  0  0  0
 52 95  1  0  0  0  0
 53 96  1  0  0  0  0
 53 97  1  0  0  0  0
 53 98  1  0  0  0  0
 54 99  1  0  0  0  0
 54100  1  0  0  0  0
 55101  1  0  0  0  0
 55102  1  0  0  0  0
 55103  1  0  0  0  0
 56104  1  0  0  0  0
 61105  1  0  0  0  0
 63106  1  0  0  0  0
 63107  1  0  0  0  0
 63108  1  0  0  0  0
 64109  1  0  0  0  0
 65110  1  0  0  0  0
M  END
