109

C         -1.59230        5.77690        3.57690
C         -2.29060        6.42730        2.59080
C         -2.57220        5.91800        1.24660
O         -2.26630        4.83040        0.78400
C         -3.30830        6.98070        0.54370
C         -3.77590        6.94970       -0.76760
C         -4.42420        8.09710       -1.15670
C         -4.59760        9.19370       -0.30200
C         -4.14530        9.23410        0.99590
C         -3.47920        8.07800        1.41180
C         -2.86380        7.75500        2.69880
C         -2.85460        8.57580        3.79830
C         -2.27940        8.27520        5.05020
N         -1.84040        8.11210        6.10000
C         -3.43370        9.86150        3.84220
N         -3.87770       10.91410        3.95820
C         -5.31700       10.00060       -1.35340
C         -4.52330       11.12200       -2.06850
C         -3.07000       10.72120       -2.01340
C         -2.90530        9.68310       -2.82240
C         -4.24460        9.36310       -3.43920
C         -4.84440       10.77530       -3.53120
C         -5.12370        8.77860       -2.30570
C         -0.99000        4.51350        3.59390
C         -0.27950        4.01970        4.70080
C         -0.02470        4.75520        5.97580
C          1.18350        5.68530        5.83600
C          0.22750        2.75030        4.45260
S          1.19410        1.65290        5.42350
C          1.16320        0.52130        4.11690
C          1.67720       -0.74170        3.79370
C          2.56330       -1.57800        4.51420
C          3.03380       -2.78090        3.88290
N          3.89760       -3.48160        4.59150
Se         4.16990       -2.65530        6.12520
N          3.05810       -1.34990        5.71520
C          2.50520       -3.12660        2.61620
C          2.69470       -4.28170        1.84440
S          3.61540       -5.74360        1.88300
C          2.83630       -6.24210        0.39670
C          2.96210       -7.40430       -0.37740
C          3.88360       -8.50170        0.04100
C          5.33240       -8.16190       -0.31520
C          2.12140       -7.36780       -1.48170
S          1.15090       -5.88380       -1.51470
C          1.90900       -5.30830       -0.08120
C          1.83740       -4.18130        0.74390
N          1.15260       -2.99720        0.79010
C          1.55100       -2.32130        1.93100
C          1.21240       -1.05580        2.48250
N          0.46710        0.01270        2.01970
C          0.44310        0.96540        3.00190
C         -0.09110        2.24520        3.18140
S         -1.02270        3.36240        2.25680
C          0.07400        0.37350        0.67490
C          1.28410        0.48120       -0.24940
C         -0.01190       -2.81700       -0.04750
C         -1.30270       -2.90680        0.76270
C          1.84090       -8.23400       -2.56300
C          2.48880       -9.27930       -3.13730
S          4.04870       -9.99110       -2.79080
C          3.90740      -11.08360       -4.15140
C          4.93340      -11.95070       -4.43190
C          4.98030      -12.88450       -5.48040
N          5.08090      -13.66930       -6.31310
C          6.08230      -11.93620       -3.61370
N          7.01540      -11.92540       -2.94660
N          2.72890      -10.91930       -4.80370
C          2.27940      -11.71850       -5.92900
C          1.69450      -13.04930       -5.47150
C          1.88880       -9.93520       -4.30010
O          0.81360       -9.66920       -4.78900
H         -1.46810        6.31830        4.50450
H         -3.62100        6.08290       -1.39100
H         -4.28950       10.08630        1.63840
H         -6.33380       10.30240       -1.11030
H         -4.75700       12.12720       -1.72860
H         -2.34570       11.18300       -1.36830
H         -2.01570        9.10400       -2.98800
H         -4.22470        8.76730       -4.34800
H         -5.91030       10.78040       -3.75460
H         -4.31670       11.41130       -4.24020
H         -6.01470        8.28230       -2.68540
H         -0.89730        5.33740        6.27540
H          0.18100        4.02040        6.75680
H          2.07190        5.11450        5.57580
H          1.00920        6.42960        5.06250
H          1.36140        6.20060        6.77540
H          3.58850       -9.44300       -0.41820
H          3.80670       -8.61330        1.12530
H          5.65020       -7.26830        0.21630
H          5.98520       -8.98460       -0.03850
H          5.43500       -7.98570       -1.38320
H         -0.41130        1.34990        0.74550
H         -0.66880       -0.32630        0.29080
H          1.95080        1.26370        0.10450
H          1.84440       -0.45060       -0.28200
H          0.95990        0.73420       -1.25500
H          0.05240       -1.87960       -0.59940
H          0.00780       -3.62440       -0.78340
H         -1.32300       -2.16280        1.55550
H         -1.38700       -3.89030        1.21870
H         -2.15930       -2.75270        0.11240
H          0.92330       -7.98830       -3.09420
H          1.50540      -11.12410       -6.42260
H          3.11200      -11.87390       -6.61700
H          0.85850      -12.87970       -4.79650
H          2.44370      -13.65450       -4.96640
H          1.33890      -13.60030       -6.33680
