
  xtb     02022207263D
 energy: -159.439006186520 gnorm: 0.000924314258 xtb: 6.4.1 (unknown)
 93104  0     0  0            999 V2000
   -3.3866   -0.6166   -0.3735 C   0  0  0  0  0  0  0  0  0  0  0  0
   -4.3674    0.3394   -0.4368 C   0  0  0  0  0  0  0  0  0  0  0  0
   -4.2462    1.7529   -0.0581 C   0  0  0  0  0  0  0  0  0  0  0  0
   -3.2778    2.3144    0.4202 O   0  0  0  0  0  0  0  0  0  0  0  0
   -5.5443    2.3766   -0.3716 C   0  0  0  0  0  0  0  0  0  0  0  0
   -5.8935    3.7138   -0.1976 C   0  0  0  0  0  0  0  0  0  0  0  0
   -7.1788    4.0100   -0.5834 C   0  0  0  0  0  0  0  0  0  0  0  0
   -8.0542    3.0453   -1.0994 C   0  0  0  0  0  0  0  0  0  0  0  0
   -7.7230    1.7224   -1.2725 C   0  0  0  0  0  0  0  0  0  0  0  0
   -6.4169    1.3995   -0.8906 C   0  0  0  0  0  0  0  0  0  0  0  0
   -5.7139    0.1180   -0.9271 C   0  0  0  0  0  0  0  0  0  0  0  0
   -6.2624   -1.0713   -1.3396 C   0  0  0  0  0  0  0  0  0  0  0  0
   -5.6109   -2.3212   -1.3622 C   0  0  0  0  0  0  0  0  0  0  0  0
   -5.1640   -3.3802   -1.4054 N   0  0  0  0  0  0  0  0  0  0  0  0
   -7.5859   -1.2255   -1.8022 C   0  0  0  0  0  0  0  0  0  0  0  0
   -8.6444   -1.4354   -2.1954 N   0  0  0  0  0  0  0  0  0  0  0  0
   -9.1727    4.0409   -1.2815 C   0  0  0  0  0  0  0  0  0  0  0  0
   -9.4244    4.5391   -2.7203 C   0  0  0  0  0  0  0  0  0  0  0  0
  -10.2097    5.8165   -2.5284 C   0  0  0  0  0  0  0  0  0  0  0  0
   -9.3805    6.7307   -2.0413 C   0  0  0  0  0  0  0  0  0  0  0  0
   -8.0204    6.0867   -1.8958 C   0  0  0  0  0  0  0  0  0  0  0  0
   -8.0554    5.1244   -3.0902 C   0  0  0  0  0  0  0  0  0  0  0  0
   -8.1961    5.1172   -0.7076 C   0  0  0  0  0  0  0  0  0  0  0  0
   -2.0594   -0.5611    0.0748 C   0  0  0  0  0  0  0  0  0  0  0  0
   -1.2954    0.8770    0.7590 S   0  0  0  0  0  0  0  0  0  0  0  0
    0.1498   -0.0090    0.9636 C   0  0  0  0  0  0  0  0  0  0  0  0
    1.4645    0.2006    1.4159 C   0  0  0  0  0  0  0  0  0  0  0  0
    2.0970    1.3006    2.0375 C   0  0  0  0  0  0  0  0  0  0  0  0
    3.4734    1.1800    2.4352 C   0  0  0  0  0  0  0  0  0  0  0  0
    3.9186    2.2639    3.0508 N   0  0  0  0  0  0  0  0  0  0  0  0
    2.7144    3.3442    3.1221 S   0  0  0  0  0  0  0  0  0  0  0  0
    1.5804    2.4727    2.3692 N   0  0  0  0  0  0  0  0  0  0  0  0
    4.1930    0.0188    2.0714 C   0  0  0  0  0  0  0  0  0  0  0  0
    5.5607   -0.2849    2.1077 C   0  0  0  0  0  0  0  0  0  0  0  0
    7.0340    0.4295    2.6607 S   0  0  0  0  0  0  0  0  0  0  0  0
    7.9160   -0.8913    1.9273 C   0  0  0  0  0  0  0  0  0  0  0  0
    9.2808   -1.1704    1.8394 C   0  0  0  0  0  0  0  0  0  0  0  0
   10.3309   -0.2714    2.4056 C   0  0  0  0  0  0  0  0  0  0  0  0
   10.7983    0.7410    1.3563 C   0  0  0  0  0  0  0  0  0  0  0  0
    9.5109   -2.3390    1.1152 C   0  0  0  0  0  0  0  0  0  0  0  0
    8.0122   -3.0906    0.5687 S   0  0  0  0  0  0  0  0  0  0  0  0
    7.0872   -1.8338    1.2994 C   0  0  0  0  0  0  0  0  0  0  0  0
    5.7363   -1.4925    1.4164 C   0  0  0  0  0  0  0  0  0  0  0  0
    4.5221   -1.9661    0.9926 N   0  0  0  0  0  0  0  0  0  0  0  0
    3.5589   -1.0595    1.3931 C   0  0  0  0  0  0  0  0  0  0  0  0
    2.1595   -1.0147    1.1971 C   0  0  0  0  0  0  0  0  0  0  0  0
    1.2834   -1.9705    0.7039 N   0  0  0  0  0  0  0  0  0  0  0  0
    0.0569   -1.3452    0.5312 C   0  0  0  0  0  0  0  0  0  0  0  0
   -1.1958   -1.6746    0.0166 C   0  0  0  0  0  0  0  0  0  0  0  0
   -1.5570   -2.9734   -0.6373 C   0  0  0  0  0  0  0  0  0  0  0  0
   -1.3536   -2.8822   -2.1528 C   0  0  0  0  0  0  0  0  0  0  0  0
    1.3801   -3.3698    1.0703 C   0  0  0  0  0  0  0  0  0  0  0  0
    0.4818   -3.7036    2.2617 C   0  0  0  0  0  0  0  0  0  0  0  0
    4.4367   -2.9924   -0.0265 C   0  0  0  0  0  0  0  0  0  0  0  0
    4.7592   -4.3861    0.5086 C   0  0  0  0  0  0  0  0  0  0  0  0
   10.7699   -2.8941    0.8162 C   0  0  0  0  0  0  0  0  0  0  0  0
   11.0315   -4.0255    0.0949 C   0  0  0  0  0  0  0  0  0  0  0  0
   12.3657   -4.4336   -0.1165 C   0  0  0  0  0  0  0  0  0  0  0  0
   13.4541   -4.7540   -0.2844 N   0  0  0  0  0  0  0  0  0  0  0  0
   10.0605   -4.8632   -0.4870 C   0  0  0  0  0  0  0  0  0  0  0  0
    9.3017   -5.5761   -0.9719 N   0  0  0  0  0  0  0  0  0  0  0  0
   -3.6754   -1.5922   -0.7376 H   0  0  0  0  0  0  0  0  0  0  0  0
   -5.1878    4.4213    0.2088 H   0  0  0  0  0  0  0  0  0  0  0  0
   -8.4110    0.9944   -1.6681 H   0  0  0  0  0  0  0  0  0  0  0  0
  -10.0910    3.8278   -0.7379 H   0  0  0  0  0  0  0  0  0  0  0  0
   -9.8510    3.7978   -3.3905 H   0  0  0  0  0  0  0  0  0  0  0  0
  -11.2651    5.9045   -2.7083 H   0  0  0  0  0  0  0  0  0  0  0  0
   -9.6049    7.7349   -1.7328 H   0  0  0  0  0  0  0  0  0  0  0  0
   -7.1681    6.7562   -1.8160 H   0  0  0  0  0  0  0  0  0  0  0  0
   -8.0770    5.6514   -4.0426 H   0  0  0  0  0  0  0  0  0  0  0  0
   -7.2476    4.3949   -3.0961 H   0  0  0  0  0  0  0  0  0  0  0  0
   -8.4638    5.6230    0.2182 H   0  0  0  0  0  0  0  0  0  0  0  0
   11.1820   -0.8527    2.7637 H   0  0  0  0  0  0  0  0  0  0  0  0
    9.9017    0.2657    3.2537 H   0  0  0  0  0  0  0  0  0  0  0  0
   11.2291    0.2338    0.4956 H   0  0  0  0  0  0  0  0  0  0  0  0
    9.9600    1.3450    1.0175 H   0  0  0  0  0  0  0  0  0  0  0  0
   11.5494    1.4000    1.7835 H   0  0  0  0  0  0  0  0  0  0  0  0
   -2.5942   -3.2418   -0.4309 H   0  0  0  0  0  0  0  0  0  0  0  0
   -0.9316   -3.7747   -0.2476 H   0  0  0  0  0  0  0  0  0  0  0  0
   -1.6170   -3.8274   -2.6198 H   0  0  0  0  0  0  0  0  0  0  0  0
   -1.9807   -2.1020   -2.5769 H   0  0  0  0  0  0  0  0  0  0  0  0
   -0.3159   -2.6518   -2.3853 H   0  0  0  0  0  0  0  0  0  0  0  0
    1.1275   -3.9954    0.2089 H   0  0  0  0  0  0  0  0  0  0  0  0
    2.4076   -3.5690    1.3611 H   0  0  0  0  0  0  0  0  0  0  0  0
   -0.5641   -3.5128    2.0378 H   0  0  0  0  0  0  0  0  0  0  0  0
    0.7639   -3.0982    3.1208 H   0  0  0  0  0  0  0  0  0  0  0  0
    0.5968   -4.7526    2.5219 H   0  0  0  0  0  0  0  0  0  0  0  0
    3.4429   -2.9573   -0.4734 H   0  0  0  0  0  0  0  0  0  0  0  0
    5.1647   -2.7473   -0.8085 H   0  0  0  0  0  0  0  0  0  0  0  0
    5.7907   -4.4355    0.8447 H   0  0  0  0  0  0  0  0  0  0  0  0
    4.1191   -4.6612    1.3434 H   0  0  0  0  0  0  0  0  0  0  0  0
    4.6280   -5.1151   -0.2855 H   0  0  0  0  0  0  0  0  0  0  0  0
   11.6277   -2.3553    1.1994 H   0  0  0  0  0  0  0  0  0  0  0  0
  1  2  2  0  0  0  0
  2  3  1  0  0  0  0
  3  4  2  0  0  0  0
  3  5  1  0  0  0  0
  5  6  2  0  0  0  0
  6  7  1  0  0  0  0
  7  8  2  0  0  0  0
  8  9  1  0  0  0  0
  9 10  2  0  0  0  0
 10 11  1  0  0  0  0
 11 12  2  0  0  0  0
 12 13  1  0  0  0  0
 13 14  3  0  0  0  0
 12 15  1  0  0  0  0
 15 16  3  0  0  0  0
  8 17  1  0  0  0  0
 17 18  1  0  0  0  0
 18 19  1  0  0  0  0
 19 20  2  0  0  0  0
 20 21  1  0  0  0  0
 21 22  1  0  0  0  0
 21 23  1  0  0  0  0
  1 24  1  0  0  0  0
 24 25  1  0  0  0  0
 25 26  1  0  0  0  0
 26 27  1  0  0  0  0
 27 28  1  0  0  0  0
 28 29  1  0  0  0  0
 29 30  2  0  0  0  0
 30 31  1  0  0  0  0
 31 32  1  0  0  0  0
 29 33  1  0  0  0  0
 33 34  1  0  0  0  0
 34 35  1  0  0  0  0
 35 36  1  0  0  0  0
 36 37  1  0  0  0  0
 37 38  1  0  0  0  0
 38 39  1  0  0  0  0
 37 40  2  0  0  0  0
 40 41  1  0  0  0  0
 41 42  1  0  0  0  0
 42 43  1  0  0  0  0
 43 44  1  0  0  0  0
 44 45  1  0  0  0  0
 45 46  1  0  0  0  0
 46 47  1  0  0  0  0
 47 48  1  0  0  0  0
 48 49  1  0  0  0  0
 49 50  1  0  0  0  0
 50 51  1  0  0  0  0
 47 52  1  0  0  0  0
 52 53  1  0  0  0  0
 44 54  1  0  0  0  0
 54 55  1  0  0  0  0
 40 56  1  0  0  0  0
 56 57  2  0  0  0  0
 57 58  1  0  0  0  0
 58 59  3  0  0  0  0
 57 60  1  0  0  0  0
 60 61  3  0  0  0  0
 11  2  1  0  0  0  0
 23 17  1  0  0  0  0
 49 24  2  0  0  0  0
 10  5  1  0  0  0  0
 22 18  1  0  0  0  0
 48 26  2  0  0  0  0
 23  7  1  0  0  0  0
 46 27  2  0  0  0  0
 32 28  2  0  0  0  0
 45 33  2  0  0  0  0
 43 34  2  0  0  0  0
 42 36  2  0  0  0  0
  1 62  1  0  0  0  0
  6 63  1  0  0  0  0
  9 64  1  0  0  0  0
 17 65  1  0  0  0  0
 18 66  1  0  0  0  0
 19 67  1  0  0  0  0
 20 68  1  0  0  0  0
 21 69  1  0  0  0  0
 22 70  1  0  0  0  0
 22 71  1  0  0  0  0
 23 72  1  0  0  0  0
 38 73  1  0  0  0  0
 38 74  1  0  0  0  0
 39 75  1  0  0  0  0
 39 76  1  0  0  0  0
 39 77  1  0  0  0  0
 50 78  1  0  0  0  0
 50 79  1  0  0  0  0
 51 80  1  0  0  0  0
 51 81  1  0  0  0  0
 51 82  1  0  0  0  0
 52 83  1  0  0  0  0
 52 84  1  0  0  0  0
 53 85  1  0  0  0  0
 53 86  1  0  0  0  0
 53 87  1  0  0  0  0
 54 88  1  0  0  0  0
 54 89  1  0  0  0  0
 55 90  1  0  0  0  0
 55 91  1  0  0  0  0
 55 92  1  0  0  0  0
 56 93  1  0  0  0  0
M  END
