108

C         -0.07940       -1.15070       -5.49880
C          0.95960       -1.95150       -5.87060
C          1.38940       -1.97100       -7.29240
O          0.78140       -1.51370       -8.23580
C          2.71770       -2.61350       -7.29350
C          3.58570       -2.75920       -8.37280
C          4.77210       -3.37780       -8.05830
C          5.08290       -3.80910       -6.76170
C          4.23450       -3.67750       -5.68820
C          3.01630       -3.06500       -5.99070
C          1.86480       -2.79800       -5.13020
C          1.59680       -3.44740       -3.95120
C          2.48780       -4.33160       -3.31180
N          3.17620       -5.03820       -2.72360
C          0.36530       -3.37630       -3.27090
N         -0.62320       -3.39600       -2.68630
C          6.43270       -4.33890       -7.17500
C          6.58060       -5.87170       -7.33820
C          5.20720       -6.40010       -7.67100
C          4.90700       -6.00050       -8.89950
C          6.07190       -5.19490       -9.41960
C          7.23510       -5.92350       -8.72790
C          6.08260       -3.86710       -8.62160
C         -0.41270       -0.67620       -4.21330
C          0.41690       -0.56380       -3.08240
C         -0.36210        0.02370       -2.09940
C         -1.64390        0.25230       -2.63920
N         -1.65860       -0.14290       -3.92830
C         -2.82430       -0.20280       -4.77510
C         -3.33210       -1.63530       -4.91780
C         -2.43420        0.78540       -1.60680
C         -3.80480        1.12000       -1.55500
C         -4.37170        1.54660       -0.30970
N         -5.67100        1.78180       -0.39430
S         -6.14900        1.49890       -1.91260
N         -4.70880        1.06560       -2.52370
C         -3.51900        1.71970        0.80160
C         -3.77490        2.22850        2.07820
S         -5.11090        2.79720        3.01710
C         -3.99530        3.16220        4.32230
C         -4.17970        3.71400        5.57790
C         -5.52370        4.07720        6.11750
C         -6.07810        2.95160        6.99580
C         -2.95730        3.82640        6.27560
S         -1.59460        3.22330        5.32530
C         -2.65470        2.84480        4.02240
C         -2.54130        2.30570        2.74100
N         -1.54490        1.83680        1.92820
C         -2.11510        1.45820        0.72730
C         -1.58680        0.89000       -0.46000
N         -0.32040        0.41640       -0.78560
C          0.70230       -0.15200        0.06750
C          0.13860       -1.24950        0.96590
C         -0.16470        2.09260        2.27580
C          0.46260        3.13040        1.34940
C         -2.86320        4.37220        7.55190
C         -1.77740        4.55890        8.38460
C         -0.40110        4.16310        8.09950
O          0.03530        3.64160        7.09100
C          0.38080        4.53290        9.30390
C         -0.47180        5.13300       10.24700
C          0.02390        5.56840       11.46360
C          1.37720        5.39340       11.71850
F          1.87560        5.80550       12.88700
C          2.23390        4.80060       10.79470
F          3.53100        4.64940       11.07820
C          1.72730        4.36430        9.56830
F          2.54770        3.79800        8.68700
C         -1.82770        5.17080        9.69060
C         -2.91730        5.71780       10.32340
C         -2.87620        6.31770       11.59910
N         -2.91480        6.82120       12.63010
C         -4.22750        5.77700        9.80540
N         -5.31960        5.86830        9.45910
H         -0.66920       -0.77200       -6.32790
H          3.31340       -2.40640       -9.35510
H          4.48590       -4.00750       -4.69340
H          7.29380       -3.88740       -6.68630
H          7.09930       -6.36490       -6.52060
H          4.59120       -6.94330       -6.97860
H          3.98940       -6.14370       -9.43950
H          6.12800       -5.07300      -10.49810
H          8.17970       -5.38400       -8.78330
H          7.37050       -6.94080       -9.09160
H          6.71830       -3.11250       -9.08100
H          1.45290       -0.83650       -3.04330
H         -3.59330        0.41430       -4.30350
H         -2.58220        0.21450       -5.75760
H         -3.56550       -2.04600       -3.93900
H         -4.23110       -1.64770       -5.52710
H         -2.58150       -2.26890       -5.38500
H         -6.19860        4.23540        5.27410
H         -5.47870        5.00020        6.69750
H         -6.17010        2.03340        6.42040
H         -5.42370        2.76560        7.84420
H         -7.05870        3.22850        7.37170
H          1.44470       -0.58840       -0.60400
H          1.20800        0.62310        0.64370
H         -0.64640       -0.86530        1.61310
H         -0.28090       -2.04480        0.35370
H          0.92960       -1.66700        1.58300
H          0.40450        1.16300        2.28790
H         -0.16720        2.47890        3.29770
H         -0.08420        4.06800        1.42020
H          0.44200        2.80220        0.31280
H          1.49300        3.31000        1.64300
H         -3.81370        4.70250        7.94720
H         -0.58890        6.03310       12.21790
