133

C          5.16310       -5.68470        0.47590
C          6.23710       -4.86350        0.31030
C          7.51180       -5.11920        1.02870
O          7.83690       -6.13900        1.59420
C          8.25680       -3.84400        0.95760
C          9.45800       -3.53060        1.58940
C          9.89790       -2.24950        1.35510
C          9.19840       -1.34010        0.55000
C          8.01810       -1.63680       -0.08870
C          7.55440       -2.93400        0.13900
C          6.37690       -3.60980       -0.39500
C          5.70130       -3.26110       -1.53750
C          5.88520       -2.05460       -2.23730
N          5.96660       -1.07280       -2.82790
C          4.79550       -4.13350       -2.17460
N          4.09620       -4.84730       -2.74080
C         10.20870       -0.24310        0.77120
C          9.84370        0.88510        1.76750
C          8.86650        0.29030        2.75080
C          9.53030       -0.57010        3.51130
C         10.96860       -0.57230        3.05610
C         11.11860        0.89570        2.62580
C         10.98980       -1.25600        1.66630
C          3.79920       -5.37870        0.27210
C          2.76420       -6.29770        0.13910
C          3.01960       -7.73530       -0.00520
C          3.80600       -8.14060       -1.08120
C          4.07200       -9.47990       -1.29010
C          3.56180      -10.42310       -0.41490
C          2.79480      -10.02000        0.66370
C          2.50780       -8.68040        0.88820
C          1.74320       -8.27070        2.11490
C          2.68200       -7.68890        3.17390
C          1.52110       -5.66120        0.01910
S         -0.10130       -6.25120       -0.26720
C         -0.66580       -4.61640       -0.29770
C         -1.85100       -3.90330       -0.52700
C         -3.13970       -4.35040       -0.89330
C         -4.14580       -3.37940       -1.20730
N         -5.28510       -3.93630       -1.58660
S         -5.10810       -5.54450       -1.54720
N         -3.56970       -5.59300       -1.04530
C         -3.84640       -2.00880       -1.04380
C         -4.64840       -0.87020       -1.19420
S         -6.24950       -0.44880       -1.70140
C         -5.87300        1.23260       -1.37190
C         -6.59620        2.40860       -1.52250
C         -7.95560        2.50980       -2.07490
C         -9.07390        2.09820       -1.34850
C         -8.95080        1.60850        0.06600
C         -8.87300        2.79310        1.03220
C        -10.32690        2.23550       -1.93000
C        -10.47740        2.76150       -3.19930
C         -9.36430        3.16830       -3.91380
C         -8.10960        3.04580       -3.35050
C         -5.84690        3.53350       -1.13450
S         -4.22770        3.10250       -0.59450
C         -4.56940        1.43610       -0.88410
C         -3.87510        0.22650       -0.79480
N         -2.62360       -0.18920       -0.42950
C         -2.56950       -1.56240       -0.58750
C         -1.53150       -2.51770       -0.42440
N         -0.17570       -2.40380       -0.15920
C          0.34260       -3.66850       -0.09330
C          1.59300       -4.26390        0.08550
S          3.21280       -3.71850        0.31240
C          0.72370       -1.28640       -0.34870
C          0.69130       -0.77890       -1.78760
C         -1.77200        0.70430        0.32390
C         -1.64160        0.25750        1.77790
C         -6.39650        4.81890       -1.14850
C         -5.84310        6.02910       -0.81140
C         -4.45540        6.25420       -0.40380
O         -3.58610        5.41540       -0.22480
C         -4.30230        7.70990       -0.25410
C         -3.17460        8.41380        0.09030
C         -3.27240        9.80680        0.16300
C         -2.26920       10.76210        0.49020
C         -2.73010       12.03140        0.45830
S         -4.40210       12.15120        0.03190
C         -4.51360       10.42550       -0.11660
C         -5.65590        9.71210       -0.46310
C         -5.54340        8.33710       -0.53150
C         -6.52570        7.30600       -0.85370
C         -7.85570        7.52690       -1.11190
C         -8.82820        6.53440       -1.35420
N         -9.69060        5.79790       -1.54120
C         -8.44920        8.80550       -1.14380
N         -8.98940        9.81790       -1.18960
H          5.36980       -6.66510        0.89430
H          9.97040       -4.25820        2.19910
H          7.48250       -0.93230       -0.70420
H         10.70280        0.13580       -0.12120
H          9.54600        1.82040        1.30070
H          7.81400        0.50590        2.75450
H          9.14320       -1.21650        4.27710
H         11.69530       -0.96340        3.76320
H         11.05680        1.58860        3.46360
H         12.02490        1.08990        2.05380
H         11.99460       -1.53810        1.35820
H          4.18350       -7.39300       -1.76370
H          4.67550       -9.78420       -2.13160
H          3.76510      -11.47250       -0.56850
H          2.41010      -10.75990        1.35100
H          0.98310       -7.53070        1.86190
H          1.23500       -9.14340        2.52870
H          3.16950       -6.78920        2.80480
H          2.12510       -7.43420        4.07260
H          3.45180       -8.41130        3.43600
H         -8.06190        0.98640        0.18180
H         -9.82290        1.00120        0.31450
H         -9.72360        3.45460        0.88460
H         -7.96430        3.36730        0.86390
H         -8.87480        2.44410        2.06230
H        -11.19900        1.93070       -1.36990
H        -11.46270        2.86270       -3.62800
H         -9.47180        3.58610       -4.90330
H         -7.23200        3.36110       -3.89770
H          0.50840       -0.49270        0.36610
H          1.72720       -1.65510       -0.12250
H          0.99930       -1.57080       -2.46650
H          1.37690        0.05640       -1.90090
H         -0.30820       -0.45720       -2.07090
H         -2.24800        1.68710        0.29190
H         -0.79920        0.80640       -0.15760
H         -0.98670        0.93740        2.31600
H         -2.61780        0.26720        2.25690
H         -1.23980       -0.75070        1.84930
H         -7.42540        4.83000       -1.48840
H         -2.24570        7.90490        0.29650
H         -1.25690       10.49460        0.73440
H         -2.18740       12.93400        0.66170
H         -6.57660       10.23200       -0.66780
