101

C          5.56380        5.11280        0.90830
C          5.47910        4.96800        2.25860
C          6.68290        5.13540        3.11770
O          7.72330        5.67110        2.81100
C          6.35180        4.44700        4.38280
C          7.19950        4.19980        5.46050
C          6.61110        3.50230        6.48880
C          5.28100        3.06110        6.44660
C          4.42920        3.30420        5.39600
C          5.00410        4.02940        4.35070
C          4.40320        4.50790        3.11050
C          3.06620        4.75960        2.92490
C          2.05860        4.39860        3.84010
N          1.19440        4.10960        4.53870
C          2.57120        5.49330        1.82620
N          2.13770        6.11080        0.96020
C          5.36610        2.41770        7.80720
C          4.70080        3.15960        8.99220
C          4.69270        4.62370        8.62730
C          5.94520        5.05790        8.67160
C          6.82250        3.89600        9.06790
C          5.86260        3.13700        9.99810
C          6.84230        2.92310        7.86210
C          4.70760        4.57830       -0.08340
C          4.68010        4.95540       -1.41300
C          3.79190        4.23100       -2.20680
S          3.37780        4.37440       -3.90250
C          2.26710        3.06200       -3.72440
C          1.36960        2.30380       -4.48910
C          1.07910        2.35670       -5.86950
C          0.16140        1.40560       -6.41910
N          0.00450        1.54850       -7.72610
S          0.93250        2.77930       -8.22020
N          1.57110        3.17460       -6.78710
C         -0.46370        0.48310       -5.55250
C         -1.42500       -0.50060       -5.82000
C         -1.74980       -1.08940       -4.59500
N         -1.03220       -0.50510       -3.58890
C         -1.32490       -0.90240       -2.23290
C         -0.59360       -2.18800       -1.84720
C         -0.20820        0.45710       -4.14640
C          0.76770        1.34590       -3.61520
N          1.33100        1.51160       -2.36200
C          2.21940        2.54770       -2.42550
C          3.09300        3.20220       -1.55410
Se         3.56510        3.09760        0.24070
C          1.17950        0.83260       -1.09840
C          0.23330        1.58620       -0.16330
C         -2.72770       -2.08170       -4.71180
C         -3.13860       -2.23400       -6.04990
S         -2.31200       -1.15290       -7.15350
C         -4.11120       -3.20200       -6.27710
C         -4.52880       -3.87980       -5.14200
Se        -3.62840       -3.26330       -3.58730
C         -5.49710       -4.90020       -5.10860
C         -5.90420       -5.60690       -4.02240
S         -5.29830       -5.41380       -2.39220
C         -6.36460       -6.67760       -1.81180
C         -6.41020       -7.01530       -0.48450
C         -5.54960       -6.36600        0.42270
N         -4.83910       -5.83550        1.15080
C         -7.28440       -7.96360        0.07590
N         -7.97930       -8.70910        0.60480
N         -7.10380       -7.20640       -2.81870
C         -7.99400       -8.30660       -2.62760
C         -9.36170       -8.08900       -2.65180
C        -10.21700       -9.16120       -2.47340
C         -9.70700      -10.43310       -2.27780
C         -8.33850      -10.64290       -2.27090
C         -7.47340       -9.57980       -2.45050
C         -6.91730       -6.65550       -4.08530
O         -7.51640       -7.02040       -5.06880
H          6.44880        5.62640        0.54470
H          8.22160        4.54440        5.45340
H          3.40880        2.95790        5.36540
H          5.19430        1.34360        7.83800
H          3.75130        2.73930        9.31230
H          3.81190        5.16050        8.32750
H          6.32040        6.03160        8.41640
H          7.80460        4.14790        9.45950
H          5.63920        3.68630       10.91120
H          6.20220        2.13240       10.24660
H          7.63470        2.18130        7.94200
H          5.27140        5.77320       -1.78710
H         -2.40620       -1.09260       -2.18190
H         -1.10970       -0.08630       -1.54970
H         -0.76330       -2.41010       -0.79750
H         -0.97110       -3.02160       -2.43850
H          0.47670       -2.10990       -2.02820
H          2.17490        0.80070       -0.63320
H          0.86690       -0.19470       -1.25870
H         -0.72910        1.77380       -0.63490
H          0.66310        2.55090        0.10470
H          0.07750        1.01570        0.74800
H         -4.51200       -3.41860       -7.25210
H         -5.97450       -5.16060       -6.04620
H         -9.74530       -7.09180       -2.80580
H        -11.28380       -8.99920       -2.48360
H        -10.37850      -11.26510       -2.13140
H         -7.94090      -11.63510       -2.12390
H         -6.40360       -9.73060       -2.44720
