111

C         -2.31700        3.64610       -4.18750
C         -3.66440        3.47260       -4.05340
C         -4.35910        2.71810       -2.98230
O         -3.89270        1.96410       -2.15150
C         -5.77360        3.12970       -3.05470
C         -6.80010        2.71090       -2.21020
C         -8.02260        3.26540       -2.50010
C         -8.21070        4.17620       -3.54850
C         -7.20830        4.59320       -4.39140
C         -5.95480        4.03590       -4.11670
C         -4.66970        4.22770       -4.78170
C         -4.46780        4.94170       -5.93460
C         -3.24360        5.03780       -6.62940
N         -2.29900        5.15360       -7.27290
C         -5.47190        5.66300       -6.61240
N         -6.23790        6.27560       -7.20980
C         -9.68030        4.33970       -3.24830
C        -10.09390        5.62680       -2.50340
C        -11.45510        5.29430       -1.93620
C        -11.27960        4.42690       -0.94750
C         -9.79660        4.15870       -0.82990
C         -9.24700        5.53470       -1.22740
C         -9.47150        3.31950       -2.08360
C         -1.26330        2.93830       -3.52990
C         -0.06160        3.63830       -3.26400
C          0.95560        3.08180       -2.53560
C          0.81650        1.77190       -2.06020
C          1.56750        0.88700       -1.26080
C          0.86220       -0.31860       -1.18080
N         -0.28900       -0.24760       -1.90340
C         -0.36010        1.02700       -2.41560
C         -1.37970        1.59950       -3.14500
C         -1.32760       -1.24530       -1.94360
C         -2.44940       -0.92880       -0.95640
C          1.61280       -1.18520       -0.37540
C          1.41310       -2.53330       -0.02270
C          2.35680       -3.18520        0.80780
N          1.95960       -4.45170        0.95970
N          0.85310       -4.52660        0.25770
C          0.07280       -5.72770        0.20290
C         -0.99430       -5.72670        1.29420
N          0.47310       -3.42550       -0.34760
C          3.44690       -2.45820        1.32250
C          3.66200       -1.08360        0.98050
C          2.76680       -0.45760        0.06160
N          2.72510        0.79870       -0.52780
C          3.66980        1.88460       -0.60990
C          3.26000        3.05800        0.28330
N          4.75160       -0.63090        1.71060
C          5.37060        0.66010        1.87200
C          6.66850        0.76560        1.06900
C          5.21920       -1.67370        2.47060
C          4.43410       -2.80980        2.25190
N          4.86270       -3.84360        3.03010
C          4.23140       -5.13320        3.15370
C          3.32880       -5.20330        4.38370
C          5.90830       -3.36800        3.78400
C          6.17850       -1.99460        3.45130
C          7.22730       -1.33650        4.10270
C          7.95130       -2.00810        5.05250
C          7.66820       -3.34910        5.40630
C          6.64170       -4.03130        4.74350
C          8.45130       -3.94510        6.44320
C          8.25960       -5.13390        7.08400
C          7.20680       -6.04910        6.88680
N          6.36570       -6.82540        6.78720
C          9.16460       -5.53230        8.09400
N          9.90590       -5.84780        8.91060
H         -1.98820        4.47380       -4.80600
H         -6.60910        2.00900       -1.41340
H         -7.36950        5.29400       -5.19330
H        -10.36200        4.07800       -4.05530
H        -10.01740        6.53730       -3.09130
H        -12.37930        5.66870       -2.33580
H        -12.02770        3.93180       -0.35650
H         -9.44930        3.73170        0.10720
H         -9.50700        6.30620       -0.50440
H         -8.17320        5.54920       -1.40490
H        -10.01170        2.37500       -2.11630
H          0.02820        4.65530       -3.61650
H          1.84870        3.65390       -2.33320
H         -2.24360        1.02600       -3.43160
H         -0.86620       -2.20250       -1.68740
H         -1.72510       -1.29730       -2.96160
H         -2.90610        0.03060       -1.18520
H         -2.05340       -0.89570        0.05600
H         -3.21130       -1.70200       -1.00640
H         -0.39240       -5.77700       -0.78390
H          0.75640       -6.56840        0.33650
H         -0.52770       -5.66570        2.27450
H         -1.58010       -6.63970        1.24060
H         -1.65770       -4.87460        1.16670
H          3.67640        2.22330       -1.65200
H          4.67110        1.53000       -0.38260
H          2.30530        3.45880       -0.04680
H          4.00760        3.84550        0.23200
H          3.14240        2.75010        1.32030
H          5.60360        0.76960        2.93670
H          4.67170        1.44860        1.61420
H          6.49650        0.58030        0.01050
H          7.38340        0.02570        1.42060
H          7.10200        1.75540        1.18670
H          3.63260       -5.28780        2.25310
H          5.00590       -5.90350        3.21250
H          2.55430       -4.44250        4.32040
H          2.85650       -6.17980        4.43640
H          3.90090       -5.04690        5.29500
H          7.46890       -0.31070        3.86760
H          8.75560       -1.50000        5.56430
H          6.43300       -5.06190        4.97510
H          9.30100       -3.36210        6.78180
