94

C          4.34380        1.77670        1.27180
C          5.54800        1.73740        1.92090
C          6.03450        0.75980        2.92010
O          5.44560       -0.18310        3.41120
C          7.42300        1.14800        3.22530
C          8.28910        0.50200        4.10460
C          9.53190        1.08080        4.19120
C          9.89020        2.21380        3.44800
C          9.04550        2.85910        2.57730
C          7.77020        2.29310        2.48320
C          6.61480        2.69930        1.68740
C          6.56860        3.81690        0.89250
C          5.46810        4.27130        0.13500
N          4.63360        4.72760       -0.51130
C          7.63870        4.72090        0.72020
N          8.45300        5.50670        0.52470
C         11.28060        2.25460        4.03020
C         11.57110        3.31260        5.12310
C         10.25230        3.60850        5.79360
C          9.90950        2.54030        6.50120
C         10.99040        1.50290        6.32230
C         12.22070        2.41450        6.18790
C         10.87950        0.99600        4.86260
C          3.19760        0.96340        1.34460
C          2.87980       -0.14940        2.10290
C          1.60910       -0.66040        1.86740
S          0.79000       -2.03010        2.58800
C         -0.58890       -1.69450        1.60380
C         -1.88920       -2.17190        1.39750
C         -2.59040       -3.20920        2.05020
C         -3.96080       -3.43650        1.70720
N         -4.50690       -4.41070        2.41800
S         -3.38690       -4.99320        3.43150
N         -2.16380       -4.02410        3.00220
C         -4.54050       -2.66560        0.67600
C         -5.81040       -2.74710        0.09400
C         -5.83740       -1.82070       -0.95330
N         -4.63630       -1.16960       -1.02900
C         -4.42290       -0.26480       -2.13260
C         -5.05060        1.10510       -1.87570
C         -3.81600       -1.65150       -0.02630
C         -2.48900       -1.35220        0.39290
N         -1.56760       -0.38250        0.03810
C         -0.42290       -0.59270        0.75780
C          0.82970        0.01170        0.90200
Se         1.75790        1.45800        0.18950
C         -1.65070        0.79580       -0.79040
C         -0.95280        0.59730       -2.13590
C         -7.03690       -1.83040       -1.67080
C         -7.92450       -2.78450       -1.12830
S         -7.27410       -3.65360        0.25130
C         -9.14590       -2.89130       -1.76620
C         -9.31860       -2.04250       -2.86080
Se        -7.78310       -0.95930       -3.14280
C        -10.49040       -2.04130       -3.62600
C        -10.82300       -1.30070       -4.73140
C        -12.11500       -1.45730       -5.42220
O        -13.02130       -2.20370       -5.12970
C        -12.06900       -0.50000       -6.56390
C        -13.01200       -0.24440       -7.53700
C        -12.71540        0.71000       -8.50690
Cl       -13.86730        1.05150       -9.73440
C        -11.49350        1.39000       -8.49140
Cl       -11.15300        2.56310       -9.70030
C        -10.54480        1.12880       -7.50740
C        -10.84460        0.18100       -6.54980
C        -10.03120       -0.29470       -5.40550
O         -8.91050        0.09900       -5.10520
H          4.23420        2.58130        0.55210
H          7.97150       -0.37260        4.65050
H          9.34170        3.72730        2.01330
H         12.09830        2.15620        3.31910
H         12.13810        4.17320        4.77860
H          9.69400        4.51380        5.64260
H          9.00690        2.37470        7.05970
H         11.02940        0.71630        7.07140
H         12.45000        2.95050        7.10760
H         13.10970        1.89450        5.83350
H         11.43850        0.07650        4.69970
H          3.57080       -0.57130        2.81190
H         -3.36180       -0.19360       -2.35200
H         -4.91380       -0.70650       -3.01100
H         -6.13680        1.02080       -1.86800
H         -4.73990        1.51590       -0.91690
H         -4.76900        1.79420       -2.66660
H         -1.13920        1.60510       -0.25200
H         -2.68930        1.08980       -0.90970
H         -1.30780       -0.29700       -2.64410
H          0.12080        0.49030       -1.98730
H         -1.12590        1.46020       -2.77270
H         -9.91470       -3.57860       -1.45630
H        -11.25590       -2.74130       -3.29970
H        -13.95450       -0.76870       -7.54940
H         -9.60250        1.65330       -7.49680
