128

C         -1.33460        4.08230        5.65520
C         -1.87710        5.33210        5.68870
C         -2.34190        6.12670        4.52310
O         -2.50570        5.76830        3.37610
C         -2.48920        7.51000        5.01980
C         -2.84960        8.62530        4.26740
C         -2.90490        9.79300        4.98900
C         -2.61460        9.85040        6.35880
C         -2.25050        8.75950        7.11090
C         -2.19420        7.55900        6.39580
C         -1.85240        6.21320        6.84310
C         -1.61950        5.83800        8.14140
C         -1.38300        4.51720        8.57740
N         -1.20380        3.47390        9.02420
C         -1.60920        6.72230        9.23940
N         -1.58250        7.38040       10.18050
C         -2.87710       11.33380        6.43320
C         -4.21980       11.79780        7.05000
C         -5.20200       10.67320        6.83480
C         -5.47790       10.61910        5.53860
C         -4.68620       11.70570        4.85380
C         -4.68360       12.77490        5.95780
C         -3.20110       11.26950        4.90730
C         -1.36720        3.11950        4.59640
C         -2.45380        3.00490        3.70370
C         -2.45170        2.09050        2.68250
C         -1.34120        1.25950        2.50520
C         -0.94370        0.26690        1.58580
C          0.30940       -0.20870        1.98240
N          0.73360        0.44200        3.10280
C         -0.25450        1.33800        3.44300
C         -0.28370        2.23720        4.48630
C          1.92430        0.14850        3.85660
C          1.62180       -0.75220        5.05320
C          0.68910       -1.19320        1.06160
C          1.81680       -2.03410        1.01090
C          1.92430       -2.99910       -0.02030
N          3.05700       -3.67990        0.17690
N          3.57610       -3.13440        1.25230
C          4.79470       -3.61600        1.83340
C          4.50200       -4.53780        3.01400
N          2.89150       -2.15420        1.79530
C          0.93970       -3.05370       -1.02550
C         -0.19770       -2.18160       -1.00950
C         -0.35800       -1.28210        0.08670
N         -1.35560       -0.39100        0.45440
C         -2.68660       -0.13250       -0.03560
C         -2.74590        1.16590       -0.84330
N         -0.92490       -2.41180       -2.16850
C         -2.07210       -1.77420       -2.76390
C         -3.34270       -2.60300       -2.56480
C         -0.29210       -3.39920       -2.88040
C          0.85950       -3.81260       -2.20060
N          1.51620       -4.76770       -2.91470
C          2.80320       -5.33270       -2.59850
C          3.92090       -4.66570       -3.39800
C          0.81490       -4.94490       -4.08540
C         -0.35190       -4.10530       -4.09720
C         -1.22260       -4.17150       -5.19220
C         -0.91780       -5.00240       -6.23620
C          0.26850       -5.77640       -6.25900
C          1.11650       -5.77050       -5.14630
C          0.53410       -6.55530       -7.42510
C          1.73940       -6.92800       -7.95110
C          3.06380       -6.34160       -7.63620
O          3.37750       -5.60700       -6.72070
C          3.95770       -6.77410       -8.72820
C          5.27450       -6.43330       -8.92040
C          5.92790       -6.95780      -10.03980
C          7.27180       -6.76420      -10.46820
C          7.55530       -7.42980      -11.60870
S          6.21860       -8.33170      -12.23560
C          5.21550       -7.80640      -10.91940
C          3.88310       -8.15200      -10.72490
C          3.25320       -7.62560       -9.61340
C          1.89040       -7.77390       -9.12180
C          0.94510       -8.62560       -9.63480
C         -0.33680       -8.84020       -9.08740
N         -1.38720       -9.09380       -8.69710
C          1.14660       -9.43770      -10.76890
N          1.24620      -10.11850      -11.68850
H         -0.74790        3.78070        6.51600
H         -3.06040        8.53660        3.21300
H         -2.02050        8.82090        8.16150
H         -2.03940       11.95150        6.75110
H         -4.14240       12.17960        8.06440
H         -5.53940       10.01600        7.61460
H         -6.09180        9.90710        5.01870
H         -5.03380       12.00440        3.86820
H         -3.98030       13.58610        5.77430
H         -5.67440       13.18370        6.15110
H         -2.57480       11.84570        4.22860
H         -3.31560        3.63290        3.84950
H         -3.30430        2.02300        2.02420
H          0.53320        2.30470        5.18930
H          2.37000        1.08920        4.19410
H          2.61940       -0.36100        3.18540
H          1.22090       -1.70210        4.70810
H          2.53260       -0.94140        5.61440
H          0.89340       -0.28660        5.71300
H          5.33590       -4.14950        1.04990
H          5.37520       -2.75170        2.16520
H          3.92990       -5.40190        2.68480
H          3.92910       -4.00390        3.76810
H          5.43270       -4.88130        3.45630
H         -3.33390       -0.03050        0.84230
H         -3.05040       -0.98320       -0.60380
H         -3.74650        1.31320       -1.24170
H         -2.49490        2.01070       -0.20710
H         -2.03580        1.15510       -1.66790
H         -2.18320       -0.76450       -2.38240
H         -1.86800       -1.69340       -3.83700
H         -3.53150       -2.79400       -1.51020
H         -3.23890       -3.56570       -3.05910
H         -4.19870       -2.08300       -2.98690
H          2.77860       -6.40640       -2.80890
H          2.97070       -5.17710       -1.53010
H          3.95530       -3.60310       -3.16960
H          4.87660       -5.10900       -3.13180
H          3.76180       -4.79020       -4.46610
H         -2.12450       -3.57850       -5.22020
H         -1.57790       -5.05170       -7.08970
H          1.97320       -6.42030       -5.11480
H         -0.34750       -6.82090       -7.99830
H          5.78370       -5.78050       -8.22830
H          7.97810       -6.15220       -9.93670
H          8.48520       -7.45490      -12.14280
H          3.38140       -8.79670      -11.42710
