130

C          4.08070        0.13420        5.12780
C          5.26480        0.47110        4.52750
C          5.43100        0.93880        3.14870
O          4.56580        1.04700        2.29450
C          6.85700        1.27290        2.99610
C          7.48640        1.77640        1.85940
C          8.83490        1.99160        2.01520
C          9.50930        1.72460        3.21390
C          8.90170        1.22590        4.34170
C          7.52900        0.99970        4.20560
C          6.56460        0.46750        5.16690
C          6.86370       -0.00600        6.41890
C          8.15440        0.00660        6.98820
N          9.17390       -0.01140        7.51630
C          5.95420       -0.60800        7.31460
N          5.29740       -1.13150        8.09890
C         10.83720        2.17930        2.66280
C         11.32350        3.57650        3.10190
C         12.36120        3.94030        2.06470
C         11.72430        4.19350        0.92860
C         10.24520        4.00580        1.17890
C         10.16430        4.46860        2.63930
C         10.08590        2.47750        1.32560
C          2.79180        0.01270        4.59350
C          1.71570       -0.42780        5.38000
C          1.81980       -0.62580        6.83390
C          1.93290        0.50040        7.64430
C          2.03840        0.37140        9.01520
C          2.04020       -0.88980        9.58510
C          1.93670       -2.00920        8.78110
C          1.82350       -1.90070        7.40190
C          1.80700       -3.13790        6.55070
C          3.21900       -3.45720        6.05340
C          0.56520       -0.60620        4.62090
S         -1.04950       -1.15390        5.02810
C         -1.49200       -0.95870        3.36680
C         -2.61640       -1.11130        2.54720
C         -3.94000       -1.48310        2.87010
C         -4.92890       -1.48050        1.83560
N         -6.13100       -1.81000        2.28160
S         -6.02410       -2.10210        3.87030
N         -4.44070       -1.81880        4.04870
C         -4.52820       -1.18840        0.51320
C         -5.25690       -1.21400       -0.68040
S         -6.87680       -1.50070       -1.21580
C         -6.33190       -1.26510       -2.86610
C         -6.99100       -1.29410       -4.08500
C         -8.42890       -1.53140       -4.27910
C         -8.99230       -2.79600       -4.09780
C         -8.14550       -3.99260       -3.77070
C         -7.48480       -4.53930       -5.03860
C        -10.35410       -2.94990       -4.31840
C        -11.14640       -1.88470       -4.70330
C        -10.58150       -0.63400       -4.88170
C         -9.22700       -0.46130       -4.67490
C         -6.11600       -1.02330       -5.15650
S         -4.46920       -0.71730       -4.60910
C         -4.95650       -0.97460       -2.97450
C         -4.35220       -0.94570       -1.71610
N         -3.10140       -0.73380       -1.20000
C         -3.17650       -0.87190        0.17480
C         -2.22410       -0.74880        1.22300
N         -0.89390       -0.36280        1.26160
C         -0.45520       -0.48910        2.55200
C          0.73360       -0.28700        3.26210
S          2.34110        0.23780        2.90810
C         -0.11490        0.42640        0.33260
C         -0.75690        1.79010        0.08840
C         -1.96140       -0.74880       -2.08960
C         -1.17520       -2.05170       -1.96540
C         -6.54610       -1.08140       -6.48050
C         -5.86420       -0.85320       -7.65500
C         -4.49170       -0.36800       -7.76660
O         -3.68490       -0.17540       -6.87300
C         -4.26270       -0.13770       -9.20910
C         -3.13730        0.35240       -9.83570
C         -3.16470        0.49310      -11.21750
Br        -1.63750        1.16500      -12.10740
C         -4.30650        0.14410      -11.93850
Br        -4.33830        0.34530      -13.81930
C         -5.43920       -0.35440      -11.30270
C         -5.41750       -0.49760       -9.92620
C         -6.42240       -0.98810       -8.98140
C         -7.63720       -1.52540       -9.32520
C         -8.57090       -2.08790       -8.42900
N         -9.37690       -2.58180       -7.77600
C         -8.10240       -1.62610      -10.65300
N         -8.53510       -1.72660      -11.71160
H          4.11760       -0.10530        6.18420
H          6.92980        1.96300        0.95430
H          9.43620        1.02500        5.25480
H         11.63000        1.43380        2.66050
H         11.62600        3.64630        4.14320
H         13.42010        3.92220        2.24370
H         12.14510        4.42930       -0.03120
H          9.56630        4.46880        0.46780
H          9.21440        4.24830        3.12290
H         10.39140        5.52780        2.74850
H         10.37850        1.93110        0.43090
H          1.93230        1.48000        7.18670
H          2.12560        1.25170        9.63400
H          2.13170       -1.00050       10.65490
H          1.95270       -2.99240        9.22810
H          1.43870       -3.97720        7.14310
H          1.14120       -3.00980        5.69590
H          3.90860       -3.51330        6.89240
H          3.22970       -4.40750        5.52460
H          3.57270       -2.68220        5.37650
H         -8.77510       -4.76910       -3.33330
H         -7.37560       -3.73310       -3.04250
H         -8.23720       -4.73800       -5.79830
H         -6.77570       -3.82060       -5.44420
H         -6.95310       -5.46260       -4.82100
H        -10.79610       -3.92750       -4.19350
H        -12.20220       -2.03140       -4.87280
H        -11.19070        0.20310       -5.18740
H         -8.77360        0.51060       -4.81190
H          0.86550        0.56900        0.79310
H          0.04540       -0.11800       -0.59730
H         -1.76830        1.68880       -0.29920
H         -0.16160        2.35770       -0.62150
H         -0.80640        2.34790        1.02070
H         -1.33040        0.12270       -1.91930
H         -2.35770       -0.66390       -3.10420
H         -0.31250       -2.02770       -2.62560
H         -0.83510       -2.21310       -0.94490
H         -1.80370       -2.89230       -2.24980
H         -7.59280       -1.34710       -6.57200
H         -2.26070        0.62020       -9.26670
H         -6.30280       -0.61200      -11.89400
