101

C          2.64000       -1.45950        5.51150
C          3.87250       -0.97100        5.83110
C          4.41780        0.34840        5.42450
O          3.81260        1.33820        5.07290
C          5.88460        0.19060        5.46810
C          6.83260        1.10680        5.01860
C          8.13090        0.67390        5.14180
C          8.46600       -0.57830        5.67550
C          7.54160       -1.49060        6.12590
C          6.21410       -1.07010        6.00580
C          4.97710       -1.77120        6.32730
C          4.86250       -2.93700        7.03660
C          5.95570       -3.66730        7.54600
N          6.80550       -4.30520        7.98060
C          3.63030       -3.52520        7.39360
N          2.66150       -4.04400        7.72620
C          9.94440       -0.35380        5.48140
C         10.78970        0.01900        6.72410
C          9.85320        0.69880        7.69200
C          9.53780        1.88350        7.18610
C         10.25460        2.02610        5.86610
C         11.54040        1.24030        6.16930
C          9.57120        1.04070        4.88650
C          1.53510       -0.74320        4.99820
C          1.15340        0.56950        5.17850
C          0.02970        0.94620        4.44380
S         -0.78710        2.48800        4.31840
C         -1.83430        1.81640        3.11880
C         -2.87480        2.21530        2.26250
C         -3.62030        3.41200        2.15840
C         -4.65780        3.50520        1.16790
N         -5.30300        4.65870        1.22130
S         -4.66330        5.55320        2.40900
N         -3.53400        4.50380        2.90070
C         -4.80190        2.45940        0.22620
C         -5.48930        2.39180       -0.99270
C         -5.06990        1.21850       -1.63770
N         -4.19050        0.53820       -0.83640
C         -3.39780       -0.53760       -1.38540
C         -4.19340       -1.83680       -1.50540
C         -4.01310        1.27520        0.31460
C         -3.16470        1.09680        1.43260
N         -2.38870        0.02340        1.83600
C         -1.57340        0.46790        2.84540
C         -0.53080       -0.04630        3.62010
Se         0.35300       -1.67150        3.82320
C         -2.69750       -1.38680        1.74670
C         -3.39310       -1.88110        3.01460
C         -5.55090        1.10410       -2.94260
C         -6.37620        2.20580       -3.26180
S         -6.55470        3.35960       -1.95050
C         -6.86280        2.23250       -4.55250
C         -6.43900        1.17900       -5.37130
Se        -5.32630       -0.02550       -4.41100
C         -6.80310        1.12680       -6.71960
C         -6.43850        0.24410       -7.71280
C         -5.55190       -0.89500       -7.53730
O         -5.05230       -1.29430       -6.48980
C         -5.35860       -1.49110       -8.86700
C         -4.57820       -2.56620       -9.21540
C         -4.54400       -2.93470      -10.56460
C         -3.81780       -3.99180      -11.17800
C         -4.02760       -4.04230      -12.51490
Br        -3.27030       -5.27110      -13.71240
S         -5.11530       -2.81710      -13.11130
C         -5.30670       -2.19670      -11.50010
C         -6.09920       -1.11060      -11.14490
C         -6.12140       -0.75700       -9.80980
C         -6.82200        0.31730       -9.10860
C         -7.68400        1.20990       -9.69340
C         -8.37860        2.24130       -9.02800
N         -8.98370        3.10070       -8.56430
C         -8.00620        1.21270      -11.06660
N         -8.30970        1.26750      -12.17250
H          2.50180       -2.53610        5.56070
H          6.53260        2.05830        4.60800
H          7.80950       -2.45660        6.52110
H         10.45180       -1.06570        4.83320
H         11.38560       -0.79640        7.12510
H          9.48320        0.23870        8.58930
H          8.85120        2.61190        7.57610
H         10.36410        3.03810        5.48520
H         12.16460        1.72660        6.91730
H         12.13310        1.01940        5.28260
H          9.83340        1.23820        3.84880
H          1.67240        1.23830        5.83950
H         -3.08330       -0.23550       -2.39410
H         -2.49900       -0.66340       -0.78080
H         -4.68230       -2.10040       -0.56990
H         -3.53140       -2.64640       -1.79860
H         -4.96460       -1.73340       -2.26850
H         -3.35220       -1.56200        0.90000
H         -1.75800       -1.93490        1.60270
H         -3.65020       -2.93080        2.90370
H         -2.74430       -1.77570        3.88150
H         -4.30400       -1.31290        3.19070
H         -7.50270        3.01440       -4.92570
H         -7.45480        1.94150       -7.01460
H         -4.00950       -3.10360       -8.47290
H         -3.17710       -4.67040      -10.64500
H         -6.65900       -0.58160      -11.89760
