
  xtb     02112200223D
 energy: -171.993682806193 gnorm: 0.000207143027 xtb: 6.4.1 (unknown)
 95107  0     0  0            999 V2000
    0.2684   -2.9752    3.9800 C   0  0  0  0  0  0  0  0  0  0  0  0
   -0.0390   -2.7150    5.2868 C   0  0  0  0  0  0  0  0  0  0  0  0
   -1.1864   -1.9289    5.7659 C   0  0  0  0  0  0  0  0  0  0  0  0
   -2.1569   -1.5689    5.1265 O   0  0  0  0  0  0  0  0  0  0  0  0
   -0.9233   -1.6472    7.1872 C   0  0  0  0  0  0  0  0  0  0  0  0
   -1.6798   -0.8396    8.0335 C   0  0  0  0  0  0  0  0  0  0  0  0
   -1.1542   -0.7092    9.2964 C   0  0  0  0  0  0  0  0  0  0  0  0
    0.0322   -1.3419    9.6920 C   0  0  0  0  0  0  0  0  0  0  0  0
    0.7786   -2.1547    8.8721 C   0  0  0  0  0  0  0  0  0  0  0  0
    0.2655   -2.2957    7.5788 C   0  0  0  0  0  0  0  0  0  0  0  0
    0.7929   -3.0335    6.4328 C   0  0  0  0  0  0  0  0  0  0  0  0
    1.8605   -3.8928    6.4615 C   0  0  0  0  0  0  0  0  0  0  0  0
    2.3378   -4.6376    5.3628 C   0  0  0  0  0  0  0  0  0  0  0  0
    2.7840   -5.2799    4.5211 N   0  0  0  0  0  0  0  0  0  0  0  0
    2.6224   -4.1802    7.6134 C   0  0  0  0  0  0  0  0  0  0  0  0
    3.2871   -4.4594    8.5070 N   0  0  0  0  0  0  0  0  0  0  0  0
   -0.0130   -0.7386   11.0739 C   0  0  0  0  0  0  0  0  0  0  0  0
    0.9355    0.4517   11.3325 C   0  0  0  0  0  0  0  0  0  0  0  0
    0.3469    1.1258   12.5508 C   0  0  0  0  0  0  0  0  0  0  0  0
   -0.7781    1.7226   12.1779 C   0  0  0  0  0  0  0  0  0  0  0  0
   -0.9685    1.4619   10.7011 C   0  0  0  0  0  0  0  0  0  0  0  0
    0.4966    1.4425   10.2463 C   0  0  0  0  0  0  0  0  0  0  0  0
   -1.3371   -0.0358   10.6335 C   0  0  0  0  0  0  0  0  0  0  0  0
   -0.3946   -2.6026    2.7965 C   0  0  0  0  0  0  0  0  0  0  0  0
   -1.9753   -1.8281    2.6826 S   0  0  0  0  0  0  0  0  0  0  0  0
   -1.7911   -1.7207    0.9834 C   0  0  0  0  0  0  0  0  0  0  0  0
   -2.4523   -1.1924   -0.1393 C   0  0  0  0  0  0  0  0  0  0  0  0
   -3.7380   -0.6327   -0.3157 C   0  0  0  0  0  0  0  0  0  0  0  0
   -4.1234   -0.1644   -1.6194 C   0  0  0  0  0  0  0  0  0  0  0  0
   -5.3660    0.2893   -1.6457 N   0  0  0  0  0  0  0  0  0  0  0  0
   -5.9986    0.1417   -0.1630 S   0  0  0  0  0  0  0  0  0  0  0  0
   -4.7099   -0.5000    0.5723 N   0  0  0  0  0  0  0  0  0  0  0  0
   -3.1533   -0.1326   -2.6479 C   0  0  0  0  0  0  0  0  0  0  0  0
   -3.1235    0.5371   -3.8782 C   0  0  0  0  0  0  0  0  0  0  0  0
   -1.8048    0.4580   -4.3633 C   0  0  0  0  0  0  0  0  0  0  0  0
   -1.0450   -0.2916   -3.5038 N   0  0  0  0  0  0  0  0  0  0  0  0
    0.3893   -0.3581   -3.6657 C   0  0  0  0  0  0  0  0  0  0  0  0
    0.7871   -1.2658   -4.8293 C   0  0  0  0  0  0  0  0  0  0  0  0
   -1.8477   -0.6682   -2.4471 C   0  0  0  0  0  0  0  0  0  0  0  0
   -1.5636   -1.3438   -1.2386 C   0  0  0  0  0  0  0  0  0  0  0  0
   -0.4384   -2.0412   -0.8265 N   0  0  0  0  0  0  0  0  0  0  0  0
   -0.5658   -2.2451    0.5301 C   0  0  0  0  0  0  0  0  0  0  0  0
    0.2102   -2.7718    1.5481 C   0  0  0  0  0  0  0  0  0  0  0  0
    0.3361   -2.9611   -1.6341 C   0  0  0  0  0  0  0  0  0  0  0  0
   -0.1198   -4.4055   -1.4271 C   0  0  0  0  0  0  0  0  0  0  0  0
   -1.5816    1.2085   -5.5103 C   0  0  0  0  0  0  0  0  0  0  0  0
   -2.7454    1.8326   -5.9448 C   0  0  0  0  0  0  0  0  0  0  0  0
   -4.1189    1.4995   -4.8800 S   0  0  0  0  0  0  0  0  0  0  0  0
   -2.9486    2.7504   -6.9899 C   0  0  0  0  0  0  0  0  0  0  0  0
   -2.1096    3.1916   -7.9753 C   0  0  0  0  0  0  0  0  0  0  0  0
   -2.4023    4.5140   -8.5941 C   0  0  0  0  0  0  0  0  0  0  0  0
   -3.4371    5.1355   -8.5240 O   0  0  0  0  0  0  0  0  0  0  0  0
   -1.1416    4.9200   -9.2500 C   0  0  0  0  0  0  0  0  0  0  0  0
   -0.8228    6.1259   -9.8420 C   0  0  0  0  0  0  0  0  0  0  0  0
    0.4538    6.3166  -10.3605 C   0  0  0  0  0  0  0  0  0  0  0  0
    0.8719    7.5987  -11.0023 C   0  0  0  0  0  0  0  0  0  0  0  0
    1.3574    5.2573  -10.2582 C   0  0  0  0  0  0  0  0  0  0  0  0
    2.6000    5.4383  -10.7438 F   0  0  0  0  0  0  0  0  0  0  0  0
    1.0598    4.0330   -9.6810 C   0  0  0  0  0  0  0  0  0  0  0  0
   -0.2147    3.8667   -9.1660 C   0  0  0  0  0  0  0  0  0  0  0  0
   -0.8526    2.7270   -8.5071 C   0  0  0  0  0  0  0  0  0  0  0  0
   -0.4239    1.4267   -8.6014 C   0  0  0  0  0  0  0  0  0  0  0  0
    0.7996    1.0403   -9.1837 C   0  0  0  0  0  0  0  0  0  0  0  0
    1.7990    0.6674   -9.6084 N   0  0  0  0  0  0  0  0  0  0  0  0
   -1.1802    0.3187   -8.1734 C   0  0  0  0  0  0  0  0  0  0  0  0
   -1.7530   -0.6203   -7.8437 N   0  0  0  0  0  0  0  0  0  0  0  0
    1.2039   -3.4902    3.7945 H   0  0  0  0  0  0  0  0  0  0  0  0
   -2.5862   -0.3691    7.6859 H   0  0  0  0  0  0  0  0  0  0  0  0
    1.6893   -2.6330    9.1916 H   0  0  0  0  0  0  0  0  0  0  0  0
   -0.0461   -1.4442   11.9015 H   0  0  0  0  0  0  0  0  0  0  0  0
    1.9896    0.1919   11.3779 H   0  0  0  0  0  0  0  0  0  0  0  0
    0.7668    1.0553   13.5369 H   0  0  0  0  0  0  0  0  0  0  0  0
   -1.4858    2.2501   12.7901 H   0  0  0  0  0  0  0  0  0  0  0  0
   -1.6492    2.1228   10.1711 H   0  0  0  0  0  0  0  0  0  0  0  0
    0.6416    1.0813    9.2297 H   0  0  0  0  0  0  0  0  0  0  0  0
    0.9749    2.4141   10.3585 H   0  0  0  0  0  0  0  0  0  0  0  0
   -2.2557   -0.2732   11.1664 H   0  0  0  0  0  0  0  0  0  0  0  0
    0.8441   -0.6803   -2.7291 H   0  0  0  0  0  0  0  0  0  0  0  0
    0.7447    0.6583   -3.8726 H   0  0  0  0  0  0  0  0  0  0  0  0
    0.4608   -2.2907   -4.6702 H   0  0  0  0  0  0  0  0  0  0  0  0
    1.8668   -1.2601   -4.9492 H   0  0  0  0  0  0  0  0  0  0  0  0
    0.3307   -0.9197   -5.7530 H   0  0  0  0  0  0  0  0  0  0  0  0
    1.1798   -3.2229    1.4350 H   0  0  0  0  0  0  0  0  0  0  0  0
    1.3938   -2.8613   -1.3697 H   0  0  0  0  0  0  0  0  0  0  0  0
    0.1993   -2.7077   -2.6814 H   0  0  0  0  0  0  0  0  0  0  0  0
    0.0216   -4.7178   -0.3963 H   0  0  0  0  0  0  0  0  0  0  0  0
    0.4554   -5.0642   -2.0722 H   0  0  0  0  0  0  0  0  0  0  0  0
   -1.1738   -4.5055   -1.6774 H   0  0  0  0  0  0  0  0  0  0  0  0
   -0.6235    1.3594   -5.9708 H   0  0  0  0  0  0  0  0  0  0  0  0
   -3.8925    3.2870   -6.9489 H   0  0  0  0  0  0  0  0  0  0  0  0
   -1.5618    6.9107   -9.8941 H   0  0  0  0  0  0  0  0  0  0  0  0
    1.1684    7.4229  -12.0358 H   0  0  0  0  0  0  0  0  0  0  0  0
    1.7361    8.0135  -10.4843 H   0  0  0  0  0  0  0  0  0  0  0  0
    0.0629    8.3227  -10.9823 H   0  0  0  0  0  0  0  0  0  0  0  0
    1.8180    3.2682   -9.6384 H   0  0  0  0  0  0  0  0  0  0  0  0
  1  2  2  0  0  0  0
  2  3  1  0  0  0  0
  3  4  2  0  0  0  0
  3  5  1  0  0  0  0
  5  6  2  0  0  0  0
  6  7  1  0  0  0  0
  7  8  2  0  0  0  0
  8  9  1  0  0  0  0
  9 10  2  0  0  0  0
 10 11  1  0  0  0  0
 11 12  2  0  0  0  0
 12 13  1  0  0  0  0
 13 14  3  0  0  0  0
 12 15  1  0  0  0  0
 15 16  3  0  0  0  0
  8 17  1  0  0  0  0
 17 18  1  0  0  0  0
 18 19  1  0  0  0  0
 19 20  2  0  0  0  0
 20 21  1  0  0  0  0
 21 22  1  0  0  0  0
 21 23  1  0  0  0  0
  1 24  1  0  0  0  0
 24 25  1  0  0  0  0
 25 26  1  0  0  0  0
 26 27  1  0  0  0  0
 27 28  1  0  0  0  0
 28 29  1  0  0  0  0
 29 30  2  0  0  0  0
 30 31  1  0  0  0  0
 31 32  1  0  0  0  0
 29 33  1  0  0  0  0
 33 34  1  0  0  0  0
 34 35  2  0  0  0  0
 35 36  1  0  0  0  0
 36 37  1  0  0  0  0
 37 38  1  0  0  0  0
 36 39  1  0  0  0  0
 39 40  1  0  0  0  0
 40 41  1  0  0  0  0
 41 42  1  0  0  0  0
 42 43  1  0  0  0  0
 41 44  1  0  0  0  0
 44 45  1  0  0  0  0
 35 46  1  0  0  0  0
 46 47  2  0  0  0  0
 47 48  1  0  0  0  0
 47 49  1  0  0  0  0
 49 50  2  0  0  0  0
 50 51  1  0  0  0  0
 51 52  2  0  0  0  0
 51 53  1  0  0  0  0
 53 54  2  0  0  0  0
 54 55  1  0  0  0  0
 55 56  1  0  0  0  0
 55 57  2  0  0  0  0
 57 58  1  0  0  0  0
 57 59  1  0  0  0  0
 59 60  2  0  0  0  0
 60 61  1  0  0  0  0
 61 62  2  0  0  0  0
 62 63  1  0  0  0  0
 63 64  3  0  0  0  0
 62 65  1  0  0  0  0
 65 66  3  0  0  0  0
 11  2  1  0  0  0  0
 23 17  1  0  0  0  0
 43 24  2  0  0  0  0
 61 50  1  0  0  0  0
 10  5  1  0  0  0  0
 22 18  1  0  0  0  0
 42 26  2  0  0  0  0
 60 53  1  0  0  0  0
 23  7  1  0  0  0  0
 40 27  2  0  0  0  0
 32 28  2  0  0  0  0
 39 33  2  0  0  0  0
 48 34  1  0  0  0  0
  1 67  1  0  0  0  0
  6 68  1  0  0  0  0
  9 69  1  0  0  0  0
 17 70  1  0  0  0  0
 18 71  1  0  0  0  0
 19 72  1  0  0  0  0
 20 73  1  0  0  0  0
 21 74  1  0  0  0  0
 22 75  1  0  0  0  0
 22 76  1  0  0  0  0
 23 77  1  0  0  0  0
 37 78  1  0  0  0  0
 37 79  1  0  0  0  0
 38 80  1  0  0  0  0
 38 81  1  0  0  0  0
 38 82  1  0  0  0  0
 43 83  1  0  0  0  0
 44 84  1  0  0  0  0
 44 85  1  0  0  0  0
 45 86  1  0  0  0  0
 45 87  1  0  0  0  0
 45 88  1  0  0  0  0
 46 89  1  0  0  0  0
 49 90  1  0  0  0  0
 54 91  1  0  0  0  0
 56 92  1  0  0  0  0
 56 93  1  0  0  0  0
 56 94  1  0  0  0  0
 59 95  1  0  0  0  0
M  END
