
  xtb     02112203083D
 energy: -182.953396016960 gnorm: 0.000334417969 xtb: 6.4.1 (unknown)
105118  0     0  0            999 V2000
    0.1524    0.8231    5.7317 C   0  0  0  0  0  0  0  0  0  0  0  0
    0.0908   -0.3606    6.4258 C   0  0  0  0  0  0  0  0  0  0  0  0
    0.0041   -1.7413    5.9050 C   0  0  0  0  0  0  0  0  0  0  0  0
    0.2443   -2.1638    4.7904 O   0  0  0  0  0  0  0  0  0  0  0  0
   -0.4821   -2.5639    7.0311 C   0  0  0  0  0  0  0  0  0  0  0  0
   -0.8222   -3.9138    6.9853 C   0  0  0  0  0  0  0  0  0  0  0  0
   -1.2872   -4.4126    8.1780 C   0  0  0  0  0  0  0  0  0  0  0  0
   -1.4041   -3.6283    9.3331 C   0  0  0  0  0  0  0  0  0  0  0  0
   -1.0573   -2.2992    9.3953 C   0  0  0  0  0  0  0  0  0  0  0  0
   -0.5833   -1.7724    8.1901 C   0  0  0  0  0  0  0  0  0  0  0  0
   -0.1361   -0.4232    7.8574 C   0  0  0  0  0  0  0  0  0  0  0  0
    0.1138    0.5763    8.7644 C   0  0  0  0  0  0  0  0  0  0  0  0
    0.6843    1.8253    8.4470 C   0  0  0  0  0  0  0  0  0  0  0  0
    1.1727    2.8502    8.2672 N   0  0  0  0  0  0  0  0  0  0  0  0
   -0.1073    0.4658   10.1519 C   0  0  0  0  0  0  0  0  0  0  0  0
   -0.2707    0.4467   11.2886 N   0  0  0  0  0  0  0  0  0  0  0  0
   -1.9703   -4.7671   10.1451 C   0  0  0  0  0  0  0  0  0  0  0  0
   -3.4949   -4.7484   10.3858 C   0  0  0  0  0  0  0  0  0  0  0  0
   -3.8193   -6.1753   10.7651 C   0  0  0  0  0  0  0  0  0  0  0  0
   -3.7042   -6.9195    9.6726 C   0  0  0  0  0  0  0  0  0  0  0  0
   -3.2999   -6.0079    8.5366 C   0  0  0  0  0  0  0  0  0  0  0  0
   -4.0371   -4.7278    8.9507 C   0  0  0  0  0  0  0  0  0  0  0  0
   -1.8351   -5.6425    8.8581 C   0  0  0  0  0  0  0  0  0  0  0  0
    0.3633    1.0696    4.3654 C   0  0  0  0  0  0  0  0  0  0  0  0
    0.8220    0.2009    3.3543 C   0  0  0  0  0  0  0  0  0  0  0  0
    0.7958    0.9328    2.1834 C   0  0  0  0  0  0  0  0  0  0  0  0
    0.3544    2.2380    2.4898 C   0  0  0  0  0  0  0  0  0  0  0  0
    0.1023    2.3217    3.8106 N   0  0  0  0  0  0  0  0  0  0  0  0
   -0.3181    3.5260    4.4873 C   0  0  0  0  0  0  0  0  0  0  0  0
    0.8537    4.2401    5.1578 C   0  0  0  0  0  0  0  0  0  0  0  0
    0.3438    2.9624    1.2836 C   0  0  0  0  0  0  0  0  0  0  0  0
    0.0849    4.3203    0.9946 C   0  0  0  0  0  0  0  0  0  0  0  0
    0.2321    4.7906   -0.3537 C   0  0  0  0  0  0  0  0  0  0  0  0
    0.0048    6.0888   -0.4679 N   0  0  0  0  0  0  0  0  0  0  0  0
   -0.3698    6.6787    0.9906 S   0  0  0  0  0  0  0  0  0  0  0  0
   -0.2601    5.2921    1.8276 N   0  0  0  0  0  0  0  0  0  0  0  0
    0.5038    3.8553   -1.3759 C   0  0  0  0  0  0  0  0  0  0  0  0
    0.4904    3.9856   -2.7701 C   0  0  0  0  0  0  0  0  0  0  0  0
    0.2551    5.2119   -3.9675 S   0  0  0  0  0  0  0  0  0  0  0  0
    0.3105    3.9697   -5.2055 C   0  0  0  0  0  0  0  0  0  0  0  0
    0.1509    4.0157   -6.5842 C   0  0  0  0  0  0  0  0  0  0  0  0
   -0.0503    5.2907   -7.3357 C   0  0  0  0  0  0  0  0  0  0  0  0
    1.2780    5.8092   -7.8934 C   0  0  0  0  0  0  0  0  0  0  0  0
    0.2496    2.7346   -7.1534 C   0  0  0  0  0  0  0  0  0  0  0  0
    0.5481    1.4893   -5.9413 S   0  0  0  0  0  0  0  0  0  0  0  0
    0.5229    2.6775   -4.6946 C   0  0  0  0  0  0  0  0  0  0  0  0
    0.6354    2.6976   -3.3022 C   0  0  0  0  0  0  0  0  0  0  0  0
    0.7665    1.7884   -2.2883 N   0  0  0  0  0  0  0  0  0  0  0  0
    0.7004    2.4707   -1.0904 C   0  0  0  0  0  0  0  0  0  0  0  0
    0.7440    2.0453    0.2621 C   0  0  0  0  0  0  0  0  0  0  0  0
    1.0464    0.8227    0.8370 N   0  0  0  0  0  0  0  0  0  0  0  0
    1.9010   -0.2475    0.3714 C   0  0  0  0  0  0  0  0  0  0  0  0
    1.1953   -1.6019    0.3970 C   0  0  0  0  0  0  0  0  0  0  0  0
    0.6576    0.3758   -2.5726 C   0  0  0  0  0  0  0  0  0  0  0  0
    1.9359   -0.1954   -3.1848 C   0  0  0  0  0  0  0  0  0  0  0  0
    0.0939    2.4883   -8.5220 C   0  0  0  0  0  0  0  0  0  0  0  0
    0.1610    1.3220   -9.2404 C   0  0  0  0  0  0  0  0  0  0  0  0
    0.4716   -0.0237   -8.7234 C   0  0  0  0  0  0  0  0  0  0  0  0
    0.7052   -0.3396   -7.5702 O   0  0  0  0  0  0  0  0  0  0  0  0
    0.4415   -0.9110   -9.8936 C   0  0  0  0  0  0  0  0  0  0  0  0
    0.6321   -2.2723  -10.1819 C   0  0  0  0  0  0  0  0  0  0  0  0
    0.4576   -2.5169  -11.5122 C   0  0  0  0  0  0  0  0  0  0  0  0
    0.0609   -1.1123  -12.4357 S   0  0  0  0  0  0  0  0  0  0  0  0
    0.1274   -0.1577  -11.0145 C   0  0  0  0  0  0  0  0  0  0  0  0
   -0.0606    1.2281  -10.6746 C   0  0  0  0  0  0  0  0  0  0  0  0
   -0.3965    2.2103  -11.5741 C   0  0  0  0  0  0  0  0  0  0  0  0
   -0.5962    3.5706  -11.2780 C   0  0  0  0  0  0  0  0  0  0  0  0
   -0.7743    4.6919  -11.0992 N   0  0  0  0  0  0  0  0  0  0  0  0
   -0.5809    1.8996  -12.9372 C   0  0  0  0  0  0  0  0  0  0  0  0
   -0.7324    1.6523  -14.0476 N   0  0  0  0  0  0  0  0  0  0  0  0
   -0.0463    1.7100    6.3193 H   0  0  0  0  0  0  0  0  0  0  0  0
   -0.7186   -4.4807    6.0733 H   0  0  0  0  0  0  0  0  0  0  0  0
   -1.1525   -1.7075   10.2905 H   0  0  0  0  0  0  0  0  0  0  0  0
   -1.4032   -5.0492   11.0300 H   0  0  0  0  0  0  0  0  0  0  0  0
   -3.8392   -3.9716   11.0630 H   0  0  0  0  0  0  0  0  0  0  0  0
   -4.0374   -6.4950   11.7671 H   0  0  0  0  0  0  0  0  0  0  0  0
   -3.8068   -7.9848    9.5795 H   0  0  0  0  0  0  0  0  0  0  0  0
   -3.4666   -6.3784    7.5286 H   0  0  0  0  0  0  0  0  0  0  0  0
   -3.7505   -3.8463    8.3801 H   0  0  0  0  0  0  0  0  0  0  0  0
   -5.1189   -4.8469    8.9178 H   0  0  0  0  0  0  0  0  0  0  0  0
   -1.1755   -6.5079    8.8839 H   0  0  0  0  0  0  0  0  0  0  0  0
    1.1107   -0.8160    3.5111 H   0  0  0  0  0  0  0  0  0  0  0  0
   -0.7425    4.1843    3.7253 H   0  0  0  0  0  0  0  0  0  0  0  0
   -1.0933    3.2860    5.2200 H   0  0  0  0  0  0  0  0  0  0  0  0
    1.2882    3.6427    5.9554 H   0  0  0  0  0  0  0  0  0  0  0  0
    1.6222    4.4580    4.4204 H   0  0  0  0  0  0  0  0  0  0  0  0
    0.5078    5.1776    5.5829 H   0  0  0  0  0  0  0  0  0  0  0  0
   -0.7587    5.1556   -8.1546 H   0  0  0  0  0  0  0  0  0  0  0  0
   -0.4613    6.0312   -6.6467 H   0  0  0  0  0  0  0  0  0  0  0  0
    1.9835    5.9869   -7.0851 H   0  0  0  0  0  0  0  0  0  0  0  0
    1.1146    6.7414   -8.4264 H   0  0  0  0  0  0  0  0  0  0  0  0
    1.7133    5.0894   -8.5827 H   0  0  0  0  0  0  0  0  0  0  0  0
    2.2712   -0.0079   -0.6218 H   0  0  0  0  0  0  0  0  0  0  0  0
    2.7659   -0.2966    1.0449 H   0  0  0  0  0  0  0  0  0  0  0  0
    1.8630   -2.3662    0.0088 H   0  0  0  0  0  0  0  0  0  0  0  0
    0.9203   -1.8648    1.4141 H   0  0  0  0  0  0  0  0  0  0  0  0
    0.2882   -1.5959   -0.2027 H   0  0  0  0  0  0  0  0  0  0  0  0
   -0.1568    0.2451   -3.2939 H   0  0  0  0  0  0  0  0  0  0  0  0
    0.3798   -0.1424   -1.6584 H   0  0  0  0  0  0  0  0  0  0  0  0
    1.8624   -1.2777   -3.2365 H   0  0  0  0  0  0  0  0  0  0  0  0
    2.8150    0.0702   -2.6016 H   0  0  0  0  0  0  0  0  0  0  0  0
    2.0729    0.1844   -4.1932 H   0  0  0  0  0  0  0  0  0  0  0  0
   -0.1199    3.3799   -9.0966 H   0  0  0  0  0  0  0  0  0  0  0  0
    0.8818   -3.0218   -9.4540 H   0  0  0  0  0  0  0  0  0  0  0  0
    0.5388   -3.4579  -12.0205 H   0  0  0  0  0  0  0  0  0  0  0  0
  1  2  2  0  0  0  0
  2  3  1  0  0  0  0
  3  4  2  0  0  0  0
  3  5  1  0  0  0  0
  5  6  2  0  0  0  0
  6  7  1  0  0  0  0
  7  8  2  0  0  0  0
  8  9  1  0  0  0  0
  9 10  2  0  0  0  0
 10 11  1  0  0  0  0
 11 12  2  0  0  0  0
 12 13  1  0  0  0  0
 13 14  3  0  0  0  0
 12 15  1  0  0  0  0
 15 16  3  0  0  0  0
  8 17  1  0  0  0  0
 17 18  1  0  0  0  0
 18 19  1  0  0  0  0
 19 20  2  0  0  0  0
 20 21  1  0  0  0  0
 21 22  1  0  0  0  0
 21 23  1  0  0  0  0
  1 24  1  0  0  0  0
 24 25  2  0  0  0  0
 25 26  1  0  0  0  0
 26 27  2  0  0  0  0
 27 28  1  0  0  0  0
 28 29  1  0  0  0  0
 29 30  1  0  0  0  0
 27 31  1  0  0  0  0
 31 32  1  0  0  0  0
 32 33  1  0  0  0  0
 33 34  2  0  0  0  0
 34 35  1  0  0  0  0
 35 36  1  0  0  0  0
 33 37  1  0  0  0  0
 37 38  1  0  0  0  0
 38 39  1  0  0  0  0
 39 40  1  0  0  0  0
 40 41  1  0  0  0  0
 41 42  1  0  0  0  0
 42 43  1  0  0  0  0
 41 44  2  0  0  0  0
 44 45  1  0  0  0  0
 45 46  1  0  0  0  0
 46 47  1  0  0  0  0
 47 48  1  0  0  0  0
 48 49  1  0  0  0  0
 49 50  1  0  0  0  0
 50 51  1  0  0  0  0
 51 52  1  0  0  0  0
 52 53  1  0  0  0  0
 48 54  1  0  0  0  0
 54 55  1  0  0  0  0
 44 56  1  0  0  0  0
 56 57  2  0  0  0  0
 57 58  1  0  0  0  0
 58 59  2  0  0  0  0
 58 60  1  0  0  0  0
 60 61  1  0  0  0  0
 61 62  2  0  0  0  0
 62 63  1  0  0  0  0
 63 64  1  0  0  0  0
 64 65  1  0  0  0  0
 65 66  2  0  0  0  0
 66 67  1  0  0  0  0
 67 68  3  0  0  0  0
 66 69  1  0  0  0  0
 69 70  3  0  0  0  0
 11  2  1  0  0  0  0
 23 17  1  0  0  0  0
 28 24  1  0  0  0  0
 50 31  2  0  0  0  0
 65 57  1  0  0  0  0
 10  5  1  0  0  0  0
 22 18  1  0  0  0  0
 51 26  1  0  0  0  0
 64 60  2  0  0  0  0
 23  7  1  0  0  0  0
 36 32  2  0  0  0  0
 49 37  2  0  0  0  0
 47 38  2  0  0  0  0
 46 40  2  0  0  0  0
  1 71  1  0  0  0  0
  6 72  1  0  0  0  0
  9 73  1  0  0  0  0
 17 74  1  0  0  0  0
 18 75  1  0  0  0  0
 19 76  1  0  0  0  0
 20 77  1  0  0  0  0
 21 78  1  0  0  0  0
 22 79  1  0  0  0  0
 22 80  1  0  0  0  0
 23 81  1  0  0  0  0
 25 82  1  0  0  0  0
 29 83  1  0  0  0  0
 29 84  1  0  0  0  0
 30 85  1  0  0  0  0
 30 86  1  0  0  0  0
 30 87  1  0  0  0  0
 42 88  1  0  0  0  0
 42 89  1  0  0  0  0
 43 90  1  0  0  0  0
 43 91  1  0  0  0  0
 43 92  1  0  0  0  0
 52 93  1  0  0  0  0
 52 94  1  0  0  0  0
 53 95  1  0  0  0  0
 53 96  1  0  0  0  0
 53 97  1  0  0  0  0
 54 98  1  0  0  0  0
 54 99  1  0  0  0  0
 55100  1  0  0  0  0
 55101  1  0  0  0  0
 55102  1  0  0  0  0
 56103  1  0  0  0  0
 61104  1  0  0  0  0
 62105  1  0  0  0  0
M  END
