
  xtb     02022209483D
 energy: -196.249838949297 gnorm: 0.000488524377 xtb: 6.4.1 (unknown)
110124  0     0  0            999 V2000
    4.5121    1.6870    4.6534 C   0  0  0  0  0  0  0  0  0  0  0  0
    3.7859    2.5599    5.4248 C   0  0  0  0  0  0  0  0  0  0  0  0
    2.4570    3.0925    5.1158 C   0  0  0  0  0  0  0  0  0  0  0  0
    1.7819    2.8779    4.1215 O   0  0  0  0  0  0  0  0  0  0  0  0
    2.0824    3.9581    6.2459 C   0  0  0  0  0  0  0  0  0  0  0  0
    0.8973    4.6734    6.3971 C   0  0  0  0  0  0  0  0  0  0  0  0
    0.8239    5.3927    7.5657 C   0  0  0  0  0  0  0  0  0  0  0  0
    1.8579    5.4048    8.5108 C   0  0  0  0  0  0  0  0  0  0  0  0
    3.0348    4.7078    8.3703 C   0  0  0  0  0  0  0  0  0  0  0  0
    3.1275    3.9630    7.1916 C   0  0  0  0  0  0  0  0  0  0  0  0
    4.2052    3.1042    6.7008 C   0  0  0  0  0  0  0  0  0  0  0  0
    5.3906    2.8735    7.3532 C   0  0  0  0  0  0  0  0  0  0  0  0
    5.7365    3.4268    8.6038 C   0  0  0  0  0  0  0  0  0  0  0  0
    6.0906    3.8323    9.6183 N   0  0  0  0  0  0  0  0  0  0  0  0
    6.4449    2.0596    6.8905 C   0  0  0  0  0  0  0  0  0  0  0  0
    7.3509    1.4196    6.5885 N   0  0  0  0  0  0  0  0  0  0  0  0
    1.1068    6.3255    9.4392 C   0  0  0  0  0  0  0  0  0  0  0  0
    0.4390    5.7001   10.6887 C   0  0  0  0  0  0  0  0  0  0  0  0
    0.1476    4.2605   10.3445 C   0  0  0  0  0  0  0  0  0  0  0  0
   -0.8324    4.2482    9.4508 C   0  0  0  0  0  0  0  0  0  0  0  0
   -1.2210    5.6796    9.1741 C   0  0  0  0  0  0  0  0  0  0  0  0
   -0.9699    6.3003   10.5576 C   0  0  0  0  0  0  0  0  0  0  0  0
   -0.0462    6.3113    8.3866 C   0  0  0  0  0  0  0  0  0  0  0  0
    4.2131    1.0756    3.4312 C   0  0  0  0  0  0  0  0  0  0  0  0
    5.0782    0.1690    2.7971 C   0  0  0  0  0  0  0  0  0  0  0  0
    6.3935   -0.3033    3.3250 C   0  0  0  0  0  0  0  0  0  0  0  0
    6.1978   -1.4596    4.3083 C   0  0  0  0  0  0  0  0  0  0  0  0
    4.5370   -0.3164    1.6139 C   0  0  0  0  0  0  0  0  0  0  0  0
    5.1795   -1.5528    0.3231 Se  0  0  0  0  0  2  0  0  0  0  0  0
    3.5648   -1.2195   -0.5372 C   0  0  0  0  0  0  0  0  0  0  0  0
    2.8977   -1.6006   -1.7065 C   0  0  0  0  0  0  0  0  0  0  0  0
    3.3355   -2.4094   -2.7767 C   0  0  0  0  0  0  0  0  0  0  0  0
    2.4905   -2.5504   -3.9218 C   0  0  0  0  0  0  0  0  0  0  0  0
    3.0388   -3.2884   -4.8736 N   0  0  0  0  0  0  0  0  0  0  0  0
    4.5020   -3.7689   -4.3637 S   0  0  0  0  0  0  0  0  0  0  0  0
    4.4859   -3.0497   -2.9103 N   0  0  0  0  0  0  0  0  0  0  0  0
    1.2033   -1.9740   -3.8860 C   0  0  0  0  0  0  0  0  0  0  0  0
    0.1383   -2.1004   -4.7837 C   0  0  0  0  0  0  0  0  0  0  0  0
   -0.2291   -2.9152   -6.4104 Se  0  0  0  0  0  2  0  0  0  0  0  0
   -2.0041   -2.3103   -6.1319 C   0  0  0  0  0  0  0  0  0  0  0  0
   -3.2082   -2.5191   -6.8178 C   0  0  0  0  0  0  0  0  0  0  0  0
   -3.3106   -3.1993   -8.1456 C   0  0  0  0  0  0  0  0  0  0  0  0
   -2.3293   -2.6306   -9.1690 C   0  0  0  0  0  0  0  0  0  0  0  0
   -4.2816   -1.9362   -6.1507 C   0  0  0  0  0  0  0  0  0  0  0  0
   -3.7706   -1.0684   -4.7094 S   0  0  0  0  0  0  0  0  0  0  0  0
   -2.1444   -1.5831   -4.9398 C   0  0  0  0  0  0  0  0  0  0  0  0
   -0.9632   -1.4668   -4.1975 C   0  0  0  0  0  0  0  0  0  0  0  0
   -0.6035   -0.9443   -2.9829 N   0  0  0  0  0  0  0  0  0  0  0  0
    0.7324   -1.2235   -2.7710 C   0  0  0  0  0  0  0  0  0  0  0  0
    1.6394   -0.9340   -1.7153 C   0  0  0  0  0  0  0  0  0  0  0  0
    1.5696   -0.1350   -0.5859 N   0  0  0  0  0  0  0  0  0  0  0  0
    2.7335   -0.3057    0.1220 C   0  0  0  0  0  0  0  0  0  0  0  0
    3.2670    0.2045    1.3119 C   0  0  0  0  0  0  0  0  0  0  0  0
    2.7282    1.3181    2.5132 S   0  0  0  0  0  0  0  0  0  0  0  0
    0.8094    1.0769   -0.3659 C   0  0  0  0  0  0  0  0  0  0  0  0
    1.3354    2.2108   -1.2437 C   0  0  0  0  0  0  0  0  0  0  0  0
   -1.6245   -0.5067   -2.0591 C   0  0  0  0  0  0  0  0  0  0  0  0
   -2.0869    0.9211   -2.3460 C   0  0  0  0  0  0  0  0  0  0  0  0
   -5.6610   -1.9034   -6.4467 C   0  0  0  0  0  0  0  0  0  0  0  0
   -6.4430   -2.8234   -7.0834 C   0  0  0  0  0  0  0  0  0  0  0  0
   -7.7642   -2.4021   -7.6217 C   0  0  0  0  0  0  0  0  0  0  0  0
   -8.3171   -1.3461   -7.4196 O   0  0  0  0  0  0  0  0  0  0  0  0
   -8.2087   -3.5247   -8.4749 C   0  0  0  0  0  0  0  0  0  0  0  0
   -9.3153   -3.6317   -9.3016 C   0  0  0  0  0  0  0  0  0  0  0  0
  -10.4479   -2.3497   -9.4313 Cl  0  0  0  0  0  0  0  0  0  0  0  0
   -9.4963   -4.8049  -10.0326 C   0  0  0  0  0  0  0  0  0  0  0  0
   -8.5805   -5.8368   -9.9324 C   0  0  0  0  0  0  0  0  0  0  0  0
   -7.4699   -5.7470   -9.1007 C   0  0  0  0  0  0  0  0  0  0  0  0
   -7.2904   -4.5880   -8.3673 C   0  0  0  0  0  0  0  0  0  0  0  0
   -6.2565   -4.2176   -7.3987 C   0  0  0  0  0  0  0  0  0  0  0  0
   -5.4378   -5.1031   -6.7434 C   0  0  0  0  0  0  0  0  0  0  0  0
   -4.6527   -4.7650   -5.6237 C   0  0  0  0  0  0  0  0  0  0  0  0
   -4.0313   -4.5584   -4.6805 N   0  0  0  0  0  0  0  0  0  0  0  0
   -5.3570   -6.4772   -7.0451 C   0  0  0  0  0  0  0  0  0  0  0  0
   -5.2314   -7.5980   -7.2598 N   0  0  0  0  0  0  0  0  0  0  0  0
    5.4787    1.4017    5.0448 H   0  0  0  0  0  0  0  0  0  0  0  0
    0.1284    4.6377    5.6410 H   0  0  0  0  0  0  0  0  0  0  0  0
    3.8194    4.7325    9.1076 H   0  0  0  0  0  0  0  0  0  0  0  0
    1.5864    7.2775    9.6578 H   0  0  0  0  0  0  0  0  0  0  0  0
    0.9730    5.8722   11.6193 H   0  0  0  0  0  0  0  0  0  0  0  0
    0.7054    3.4278   10.7313 H   0  0  0  0  0  0  0  0  0  0  0  0
   -1.2570    3.4029    8.9415 H   0  0  0  0  0  0  0  0  0  0  0  0
   -2.1994    5.8336    8.7264 H   0  0  0  0  0  0  0  0  0  0  0  0
   -1.6577    5.9301   11.3164 H   0  0  0  0  0  0  0  0  0  0  0  0
   -0.9788    7.3895   10.5529 H   0  0  0  0  0  0  0  0  0  0  0  0
   -0.3205    7.2547    7.9182 H   0  0  0  0  0  0  0  0  0  0  0  0
    6.9893   -0.6551    2.4765 H   0  0  0  0  0  0  0  0  0  0  0  0
    6.9394    0.5041    3.8150 H   0  0  0  0  0  0  0  0  0  0  0  0
    5.5990   -1.1437    5.1594 H   0  0  0  0  0  0  0  0  0  0  0  0
    5.6941   -2.2896    3.8168 H   0  0  0  0  0  0  0  0  0  0  0  0
    7.1619   -1.8010    4.6739 H   0  0  0  0  0  0  0  0  0  0  0  0
   -3.1113   -4.2685   -8.0134 H   0  0  0  0  0  0  0  0  0  0  0  0
   -4.3249   -3.0885   -8.5326 H   0  0  0  0  0  0  0  0  0  0  0  0
   -1.2977   -2.8197   -8.8740 H   0  0  0  0  0  0  0  0  0  0  0  0
   -2.4706   -1.5573   -9.2733 H   0  0  0  0  0  0  0  0  0  0  0  0
   -2.4976   -3.0987  -10.1356 H   0  0  0  0  0  0  0  0  0  0  0  0
   -0.2474    0.9180   -0.5511 H   0  0  0  0  0  0  0  0  0  0  0  0
    0.9299    1.3420    0.6870 H   0  0  0  0  0  0  0  0  0  0  0  0
    2.3804    2.4086   -1.0164 H   0  0  0  0  0  0  0  0  0  0  0  0
    1.2569    1.9492   -2.2975 H   0  0  0  0  0  0  0  0  0  0  0  0
    0.7646    3.1166   -1.0595 H   0  0  0  0  0  0  0  0  0  0  0  0
   -1.2523   -0.6261   -1.0407 H   0  0  0  0  0  0  0  0  0  0  0  0
   -2.4804   -1.1809   -2.1730 H   0  0  0  0  0  0  0  0  0  0  0  0
   -2.5809    0.9628   -3.3130 H   0  0  0  0  0  0  0  0  0  0  0  0
   -1.2522    1.6164   -2.3625 H   0  0  0  0  0  0  0  0  0  0  0  0
   -2.7965    1.2375   -1.5867 H   0  0  0  0  0  0  0  0  0  0  0  0
   -6.1853   -1.0006   -6.1438 H   0  0  0  0  0  0  0  0  0  0  0  0
  -10.3561   -4.8969  -10.6768 H   0  0  0  0  0  0  0  0  0  0  0  0
   -8.7323   -6.7344  -10.5120 H   0  0  0  0  0  0  0  0  0  0  0  0
   -6.7689   -6.5634   -9.0446 H   0  0  0  0  0  0  0  0  0  0  0  0
  1  2  2  0  0  0  0
  2  3  1  0  0  0  0
  3  4  2  0  0  0  0
  3  5  1  0  0  0  0
  5  6  2  0  0  0  0
  6  7  1  0  0  0  0
  7  8  2  0  0  0  0
  8  9  1  0  0  0  0
  9 10  2  0  0  0  0
 10 11  1  0  0  0  0
 11 12  2  0  0  0  0
 12 13  1  0  0  0  0
 13 14  3  0  0  0  0
 12 15  1  0  0  0  0
 15 16  3  0  0  0  0
  8 17  1  0  0  0  0
 17 18  1  0  0  0  0
 18 19  1  0  0  0  0
 19 20  2  0  0  0  0
 20 21  1  0  0  0  0
 21 22  1  0  0  0  0
 21 23  1  0  0  0  0
  1 24  1  0  0  0  0
 24 25  2  0  0  0  0
 25 26  1  0  0  0  0
 26 27  1  0  0  0  0
 25 28  1  0  0  0  0
 28 29  1  0  0  0  0
 29 30  1  0  0  0  0
 30 31  1  0  0  0  0
 31 32  1  0  0  0  0
 32 33  1  0  0  0  0
 33 34  2  0  0  0  0
 34 35  1  0  0  0  0
 35 36  1  0  0  0  0
 33 37  1  0  0  0  0
 37 38  1  0  0  0  0
 38 39  1  0  0  0  0
 39 40  1  0  0  0  0
 40 41  1  0  0  0  0
 41 42  1  0  0  0  0
 42 43  1  0  0  0  0
 41 44  2  0  0  0  0
 44 45  1  0  0  0  0
 45 46  1  0  0  0  0
 46 47  1  0  0  0  0
 47 48  1  0  0  0  0
 48 49  1  0  0  0  0
 49 50  1  0  0  0  0
 50 51  1  0  0  0  0
 51 52  1  0  0  0  0
 52 53  1  0  0  0  0
 53 54  1  0  0  0  0
 51 55  1  0  0  0  0
 55 56  1  0  0  0  0
 48 57  1  0  0  0  0
 57 58  1  0  0  0  0
 44 59  1  0  0  0  0
 59 60  2  0  0  0  0
 60 61  1  0  0  0  0
 61 62  2  0  0  0  0
 61 63  1  0  0  0  0
 63 64  2  0  0  0  0
 64 65  1  0  0  0  0
 64 66  1  0  0  0  0
 66 67  2  0  0  0  0
 67 68  1  0  0  0  0
 68 69  2  0  0  0  0
 69 70  1  0  0  0  0
 70 71  2  0  0  0  0
 71 72  1  0  0  0  0
 72 73  3  0  0  0  0
 71 74  1  0  0  0  0
 74 75  3  0  0  0  0
 11  2  1  0  0  0  0
 23 17  1  0  0  0  0
 54 24  1  0  0  0  0
 70 60  1  0  0  0  0
 10  5  1  0  0  0  0
 22 18  1  0  0  0  0
 53 28  2  0  0  0  0
 69 63  1  0  0  0  0
 23  7  1  0  0  0  0
 52 30  2  0  0  0  0
 50 31  2  0  0  0  0
 36 32  2  0  0  0  0
 49 37  2  0  0  0  0
 47 38  2  0  0  0  0
 46 40  2  0  0  0  0
  1 76  1  0  0  0  0
  6 77  1  0  0  0  0
  9 78  1  0  0  0  0
 17 79  1  0  0  0  0
 18 80  1  0  0  0  0
 19 81  1  0  0  0  0
 20 82  1  0  0  0  0
 21 83  1  0  0  0  0
 22 84  1  0  0  0  0
 22 85  1  0  0  0  0
 23 86  1  0  0  0  0
 26 87  1  0  0  0  0
 26 88  1  0  0  0  0
 27 89  1  0  0  0  0
 27 90  1  0  0  0  0
 27 91  1  0  0  0  0
 42 92  1  0  0  0  0
 42 93  1  0  0  0  0
 43 94  1  0  0  0  0
 43 95  1  0  0  0  0
 43 96  1  0  0  0  0
 55 97  1  0  0  0  0
 55 98  1  0  0  0  0
 56 99  1  0  0  0  0
 56100  1  0  0  0  0
 56101  1  0  0  0  0
 57102  1  0  0  0  0
 57103  1  0  0  0  0
 58104  1  0  0  0  0
 58105  1  0  0  0  0
 58106  1  0  0  0  0
 59107  1  0  0  0  0
 66108  1  0  0  0  0
 67109  1  0  0  0  0
 68110  1  0  0  0  0
M  END
