
  xtb     02112205433D
 energy: -171.540691132237 gnorm: 0.000730375404 xtb: 6.4.1 (unknown)
101112  0     0  0            999 V2000
   -2.4231    3.2310    2.3054 C   0  0  0  0  0  0  0  0  0  0  0  0
   -2.3613    4.4737    2.8831 C   0  0  0  0  0  0  0  0  0  0  0  0
   -1.1942    5.3616    2.9612 C   0  0  0  0  0  0  0  0  0  0  0  0
   -0.0741    5.1595    2.5305 O   0  0  0  0  0  0  0  0  0  0  0  0
   -1.6430    6.5718    3.6738 C   0  0  0  0  0  0  0  0  0  0  0  0
   -0.8750    7.6910    3.9866 C   0  0  0  0  0  0  0  0  0  0  0  0
   -1.5644    8.6707    4.6603 C   0  0  0  0  0  0  0  0  0  0  0  0
   -2.9171    8.5434    5.0019 C   0  0  0  0  0  0  0  0  0  0  0  0
   -3.6846    7.4432    4.7019 C   0  0  0  0  0  0  0  0  0  0  0  0
   -3.0040    6.4356    4.0110 C   0  0  0  0  0  0  0  0  0  0  0  0
   -3.4772    5.1399    3.5262 C   0  0  0  0  0  0  0  0  0  0  0  0
   -4.7602    4.6693    3.6661 C   0  0  0  0  0  0  0  0  0  0  0  0
   -5.8088    5.3728    4.2942 C   0  0  0  0  0  0  0  0  0  0  0  0
   -6.7152    5.8791    4.7852 N   0  0  0  0  0  0  0  0  0  0  0  0
   -5.2448    3.4266    3.2108 C   0  0  0  0  0  0  0  0  0  0  0  0
   -5.7302    2.4383    2.8776 N   0  0  0  0  0  0  0  0  0  0  0  0
   -2.9622    9.9001    5.6597 C   0  0  0  0  0  0  0  0  0  0  0  0
   -3.6280   11.0349    4.8530 C   0  0  0  0  0  0  0  0  0  0  0  0
   -3.1077   12.2953    5.5053 C   0  0  0  0  0  0  0  0  0  0  0  0
   -1.8264   12.4171    5.1826 C   0  0  0  0  0  0  0  0  0  0  0  0
   -1.4593   11.2414    4.3061 C   0  0  0  0  0  0  0  0  0  0  0  0
   -2.7889   11.0371    3.5685 C   0  0  0  0  0  0  0  0  0  0  0  0
   -1.4536   10.0427    5.2784 C   0  0  0  0  0  0  0  0  0  0  0  0
   -1.4604    2.4522    1.6481 C   0  0  0  0  0  0  0  0  0  0  0  0
    0.2136    2.9671    1.4155 S   0  0  0  0  0  0  0  0  0  0  0  0
    0.5360    1.4905    0.6249 C   0  0  0  0  0  0  0  0  0  0  0  0
    1.6260    0.8348    0.0348 C   0  0  0  0  0  0  0  0  0  0  0  0
    2.9427    1.2748   -0.2240 C   0  0  0  0  0  0  0  0  0  0  0  0
    3.8290    0.4136   -0.9517 C   0  0  0  0  0  0  0  0  0  0  0  0
    5.0079    0.9719   -1.1768 N   0  0  0  0  0  0  0  0  0  0  0  0
    5.0038    2.4540   -0.5229 S   0  0  0  0  0  0  0  0  0  0  0  0
    3.4992    2.4388    0.0700 N   0  0  0  0  0  0  0  0  0  0  0  0
    3.3947   -0.8901   -1.2788 C   0  0  0  0  0  0  0  0  0  0  0  0
    4.0764   -1.9698   -1.8546 C   0  0  0  0  0  0  0  0  0  0  0  0
    5.6240   -2.3252   -2.5411 S   0  0  0  0  0  0  0  0  0  0  0  0
    5.1021   -3.9826   -2.7768 C   0  0  0  0  0  0  0  0  0  0  0  0
    5.7345   -5.0934   -3.3256 C   0  0  0  0  0  0  0  0  0  0  0  0
    7.1440   -5.0500   -3.8212 C   0  0  0  0  0  0  0  0  0  0  0  0
    8.1183   -5.5148   -2.7356 C   0  0  0  0  0  0  0  0  0  0  0  0
    4.9052   -6.2228   -3.2953 C   0  0  0  0  0  0  0  0  0  0  0  0
    3.3303   -5.8706   -2.5872 S   0  0  0  0  0  0  0  0  0  0  0  0
    3.7936   -4.2298   -2.3346 C   0  0  0  0  0  0  0  0  0  0  0  0
    3.2113   -3.0689   -1.8131 C   0  0  0  0  0  0  0  0  0  0  0  0
    2.0136   -2.7025   -1.2618 N   0  0  0  0  0  0  0  0  0  0  0  0
    2.0906   -1.3575   -0.9386 C   0  0  0  0  0  0  0  0  0  0  0  0
    1.1608   -0.4385   -0.3864 C   0  0  0  0  0  0  0  0  0  0  0  0
   -0.1977   -0.5287   -0.1150 N   0  0  0  0  0  0  0  0  0  0  0  0
   -0.5806    0.6420    0.5203 C   0  0  0  0  0  0  0  0  0  0  0  0
   -1.7309    1.1745    1.1126 C   0  0  0  0  0  0  0  0  0  0  0  0
   -3.0385    0.4549    1.2662 C   0  0  0  0  0  0  0  0  0  0  0  0
   -2.8944   -0.7270    2.2284 C   0  0  0  0  0  0  0  0  0  0  0  0
   -1.1432   -1.3506   -0.8424 C   0  0  0  0  0  0  0  0  0  0  0  0
   -0.9372   -1.2630   -2.3529 C   0  0  0  0  0  0  0  0  0  0  0  0
    1.1019   -3.7236   -0.7932 C   0  0  0  0  0  0  0  0  0  0  0  0
    0.9791   -3.7157    0.7277 C   0  0  0  0  0  0  0  0  0  0  0  0
    5.2998   -7.4817   -3.7767 C   0  0  0  0  0  0  0  0  0  0  0  0
    4.6576   -8.6921   -3.8154 C   0  0  0  0  0  0  0  0  0  0  0  0
    5.3627   -9.7791   -4.3747 C   0  0  0  0  0  0  0  0  0  0  0  0
    5.9636  -10.6414   -4.8354 N   0  0  0  0  0  0  0  0  0  0  0  0
    3.3062   -8.9824   -3.3369 C   0  0  0  0  0  0  0  0  0  0  0  0
    2.5419   -8.1728   -2.8488 O   0  0  0  0  0  0  0  0  0  0  0  0
    3.0031  -10.2738   -3.4949 O   0  0  0  0  0  0  0  0  0  0  0  0
    1.7013  -10.6942   -3.0931 C   0  0  0  0  0  0  0  0  0  0  0  0
    0.6648  -10.3993   -4.1684 C   0  0  0  0  0  0  0  0  0  0  0  0
   -3.3937    2.7609    2.3658 H   0  0  0  0  0  0  0  0  0  0  0  0
    0.1660    7.7429    3.7084 H   0  0  0  0  0  0  0  0  0  0  0  0
   -4.7222    7.3618    4.9781 H   0  0  0  0  0  0  0  0  0  0  0  0
   -3.2369    9.9085    6.7128 H   0  0  0  0  0  0  0  0  0  0  0  0
   -4.7059   10.9464    4.7479 H   0  0  0  0  0  0  0  0  0  0  0  0
   -3.6910   12.9175    6.1584 H   0  0  0  0  0  0  0  0  0  0  0  0
   -1.1256   13.1616    5.5125 H   0  0  0  0  0  0  0  0  0  0  0  0
   -0.5615   11.3428    3.7023 H   0  0  0  0  0  0  0  0  0  0  0  0
   -3.0327   11.8764    2.9193 H   0  0  0  0  0  0  0  0  0  0  0  0
   -2.8436   10.1100    3.0009 H   0  0  0  0  0  0  0  0  0  0  0  0
   -0.7220   10.1462    6.0777 H   0  0  0  0  0  0  0  0  0  0  0  0
    7.2608   -5.6684   -4.7128 H   0  0  0  0  0  0  0  0  0  0  0  0
    7.3776   -4.0180   -4.0906 H   0  0  0  0  0  0  0  0  0  0  0  0
    8.0315   -4.8794   -1.8576 H   0  0  0  0  0  0  0  0  0  0  0  0
    9.1395   -5.4597   -3.1034 H   0  0  0  0  0  0  0  0  0  0  0  0
    7.9089   -6.5408   -2.4415 H   0  0  0  0  0  0  0  0  0  0  0  0
   -3.3943    0.1046    0.2943 H   0  0  0  0  0  0  0  0  0  0  0  0
   -3.8144    1.1147    1.6493 H   0  0  0  0  0  0  0  0  0  0  0  0
   -3.8423   -1.2509    2.3173 H   0  0  0  0  0  0  0  0  0  0  0  0
   -2.1371   -1.4275    1.8844 H   0  0  0  0  0  0  0  0  0  0  0  0
   -2.6059   -0.3683    3.2134 H   0  0  0  0  0  0  0  0  0  0  0  0
   -2.1375   -0.9779   -0.6101 H   0  0  0  0  0  0  0  0  0  0  0  0
   -1.0989   -2.3848   -0.4967 H   0  0  0  0  0  0  0  0  0  0  0  0
   -1.6920   -1.8588   -2.8598 H   0  0  0  0  0  0  0  0  0  0  0  0
   -1.0331   -0.2303   -2.6811 H   0  0  0  0  0  0  0  0  0  0  0  0
    0.0448   -1.6226   -2.6477 H   0  0  0  0  0  0  0  0  0  0  0  0
    0.1283   -3.6223   -1.2761 H   0  0  0  0  0  0  0  0  0  0  0  0
    1.5185   -4.6810   -1.1155 H   0  0  0  0  0  0  0  0  0  0  0  0
    0.6105   -2.7603    1.0930 H   0  0  0  0  0  0  0  0  0  0  0  0
    0.2987   -4.5010    1.0457 H   0  0  0  0  0  0  0  0  0  0  0  0
    1.9518   -3.8977    1.1789 H   0  0  0  0  0  0  0  0  0  0  0  0
    6.3031   -7.4952   -4.1896 H   0  0  0  0  0  0  0  0  0  0  0  0
    1.4352  -10.1870   -2.1590 H   0  0  0  0  0  0  0  0  0  0  0  0
    1.7969  -11.7682   -2.9215 H   0  0  0  0  0  0  0  0  0  0  0  0
    0.9600  -10.8593   -5.1081 H   0  0  0  0  0  0  0  0  0  0  0  0
   -0.2988  -10.7975   -3.8639 H   0  0  0  0  0  0  0  0  0  0  0  0
    0.5728   -9.3256   -4.3129 H   0  0  0  0  0  0  0  0  0  0  0  0
  1  2  2  0  0  0  0
  2  3  1  0  0  0  0
  3  4  2  0  0  0  0
  3  5  1  0  0  0  0
  5  6  2  0  0  0  0
  6  7  1  0  0  0  0
  7  8  2  0  0  0  0
  8  9  1  0  0  0  0
  9 10  2  0  0  0  0
 10 11  1  0  0  0  0
 11 12  2  0  0  0  0
 12 13  1  0  0  0  0
 13 14  3  0  0  0  0
 12 15  1  0  0  0  0
 15 16  3  0  0  0  0
  8 17  1  0  0  0  0
 17 18  1  0  0  0  0
 18 19  1  0  0  0  0
 19 20  2  0  0  0  0
 20 21  1  0  0  0  0
 21 22  1  0  0  0  0
 21 23  1  0  0  0  0
  1 24  1  0  0  0  0
 24 25  1  0  0  0  0
 25 26  1  0  0  0  0
 26 27  1  0  0  0  0
 27 28  1  0  0  0  0
 28 29  1  0  0  0  0
 29 30  2  0  0  0  0
 30 31  1  0  0  0  0
 31 32  1  0  0  0  0
 29 33  1  0  0  0  0
 33 34  1  0  0  0  0
 34 35  1  0  0  0  0
 35 36  1  0  0  0  0
 36 37  1  0  0  0  0
 37 38  1  0  0  0  0
 38 39  1  0  0  0  0
 37 40  2  0  0  0  0
 40 41  1  0  0  0  0
 41 42  1  0  0  0  0
 42 43  1  0  0  0  0
 43 44  1  0  0  0  0
 44 45  1  0  0  0  0
 45 46  1  0  0  0  0
 46 47  1  0  0  0  0
 47 48  1  0  0  0  0
 48 49  1  0  0  0  0
 49 50  1  0  0  0  0
 50 51  1  0  0  0  0
 47 52  1  0  0  0  0
 52 53  1  0  0  0  0
 44 54  1  0  0  0  0
 54 55  1  0  0  0  0
 40 56  1  0  0  0  0
 56 57  2  0  0  0  0
 57 58  1  0  0  0  0
 58 59  3  0  0  0  0
 57 60  1  0  0  0  0
 60 61  2  0  0  0  0
 60 62  1  0  0  0  0
 62 63  1  0  0  0  0
 63 64  1  0  0  0  0
 11  2  1  0  0  0  0
 23 17  1  0  0  0  0
 49 24  2  0  0  0  0
 10  5  1  0  0  0  0
 22 18  1  0  0  0  0
 48 26  2  0  0  0  0
 23  7  1  0  0  0  0
 46 27  2  0  0  0  0
 32 28  2  0  0  0  0
 45 33  2  0  0  0  0
 43 34  2  0  0  0  0
 42 36  2  0  0  0  0
  1 65  1  0  0  0  0
  6 66  1  0  0  0  0
  9 67  1  0  0  0  0
 17 68  1  0  0  0  0
 18 69  1  0  0  0  0
 19 70  1  0  0  0  0
 20 71  1  0  0  0  0
 21 72  1  0  0  0  0
 22 73  1  0  0  0  0
 22 74  1  0  0  0  0
 23 75  1  0  0  0  0
 38 76  1  0  0  0  0
 38 77  1  0  0  0  0
 39 78  1  0  0  0  0
 39 79  1  0  0  0  0
 39 80  1  0  0  0  0
 50 81  1  0  0  0  0
 50 82  1  0  0  0  0
 51 83  1  0  0  0  0
 51 84  1  0  0  0  0
 51 85  1  0  0  0  0
 52 86  1  0  0  0  0
 52 87  1  0  0  0  0
 53 88  1  0  0  0  0
 53 89  1  0  0  0  0
 53 90  1  0  0  0  0
 54 91  1  0  0  0  0
 54 92  1  0  0  0  0
 55 93  1  0  0  0  0
 55 94  1  0  0  0  0
 55 95  1  0  0  0  0
 56 96  1  0  0  0  0
 63 97  1  0  0  0  0
 63 98  1  0  0  0  0
 64 99  1  0  0  0  0
 64100  1  0  0  0  0
 64101  1  0  0  0  0
M  END
