
  xtb     02022210463D
 energy: -179.503475196538 gnorm: 0.000808937522 xtb: 6.4.1 (unknown)
 94108  0     0  0            999 V2000
    4.3438    1.7767    1.2718 C   0  0  0  0  0  0  0  0  0  0  0  0
    5.5480    1.7374    1.9209 C   0  0  0  0  0  0  0  0  0  0  0  0
    6.0345    0.7598    2.9201 C   0  0  0  0  0  0  0  0  0  0  0  0
    5.4456   -0.1831    3.4112 O   0  0  0  0  0  0  0  0  0  0  0  0
    7.4230    1.1480    3.2253 C   0  0  0  0  0  0  0  0  0  0  0  0
    8.2891    0.5020    4.1046 C   0  0  0  0  0  0  0  0  0  0  0  0
    9.5319    1.0808    4.1912 C   0  0  0  0  0  0  0  0  0  0  0  0
    9.8902    2.2138    3.4480 C   0  0  0  0  0  0  0  0  0  0  0  0
    9.0455    2.8591    2.5773 C   0  0  0  0  0  0  0  0  0  0  0  0
    7.7702    2.2931    2.4832 C   0  0  0  0  0  0  0  0  0  0  0  0
    6.6148    2.6993    1.6874 C   0  0  0  0  0  0  0  0  0  0  0  0
    6.5686    3.8169    0.8925 C   0  0  0  0  0  0  0  0  0  0  0  0
    5.4681    4.2713    0.1350 C   0  0  0  0  0  0  0  0  0  0  0  0
    4.6336    4.7276   -0.5113 N   0  0  0  0  0  0  0  0  0  0  0  0
    7.6387    4.7209    0.7202 C   0  0  0  0  0  0  0  0  0  0  0  0
    8.4530    5.5067    0.5247 N   0  0  0  0  0  0  0  0  0  0  0  0
   11.2806    2.2546    4.0302 C   0  0  0  0  0  0  0  0  0  0  0  0
   11.5711    3.3126    5.1231 C   0  0  0  0  0  0  0  0  0  0  0  0
   10.2523    3.6085    5.7936 C   0  0  0  0  0  0  0  0  0  0  0  0
    9.9095    2.5403    6.5012 C   0  0  0  0  0  0  0  0  0  0  0  0
   10.9904    1.5029    6.3223 C   0  0  0  0  0  0  0  0  0  0  0  0
   12.2207    2.4145    6.1879 C   0  0  0  0  0  0  0  0  0  0  0  0
   10.8795    0.9960    4.8626 C   0  0  0  0  0  0  0  0  0  0  0  0
    3.1976    0.9634    1.3446 C   0  0  0  0  0  0  0  0  0  0  0  0
    2.8798   -0.1494    2.1029 C   0  0  0  0  0  0  0  0  0  0  0  0
    1.6091   -0.6604    1.8674 C   0  0  0  0  0  0  0  0  0  0  0  0
    0.7900   -2.0301    2.5880 S   0  0  0  0  0  0  0  0  0  0  0  0
   -0.5889   -1.6945    1.6038 C   0  0  0  0  0  0  0  0  0  0  0  0
   -1.8892   -2.1719    1.3975 C   0  0  0  0  0  0  0  0  0  0  0  0
   -2.5904   -3.2092    2.0502 C   0  0  0  0  0  0  0  0  0  0  0  0
   -3.9608   -3.4365    1.7072 C   0  0  0  0  0  0  0  0  0  0  0  0
   -4.5069   -4.4107    2.4180 N   0  0  0  0  0  0  0  0  0  0  0  0
   -3.3869   -4.9932    3.4315 S   0  0  0  0  0  0  0  0  0  0  0  0
   -2.1638   -4.0241    3.0022 N   0  0  0  0  0  0  0  0  0  0  0  0
   -4.5405   -2.6656    0.6760 C   0  0  0  0  0  0  0  0  0  0  0  0
   -5.8104   -2.7471    0.0940 C   0  0  0  0  0  0  0  0  0  0  0  0
   -5.8374   -1.8207   -0.9533 C   0  0  0  0  0  0  0  0  0  0  0  0
   -4.6363   -1.1696   -1.0290 N   0  0  0  0  0  0  0  0  0  0  0  0
   -4.4229   -0.2648   -2.1326 C   0  0  0  0  0  0  0  0  0  0  0  0
   -5.0506    1.1051   -1.8757 C   0  0  0  0  0  0  0  0  0  0  0  0
   -3.8160   -1.6515   -0.0263 C   0  0  0  0  0  0  0  0  0  0  0  0
   -2.4890   -1.3522    0.3929 C   0  0  0  0  0  0  0  0  0  0  0  0
   -1.5676   -0.3825    0.0381 N   0  0  0  0  0  0  0  0  0  0  0  0
   -0.4229   -0.5927    0.7578 C   0  0  0  0  0  0  0  0  0  0  0  0
    0.8297    0.0117    0.9020 C   0  0  0  0  0  0  0  0  0  0  0  0
    1.7579    1.4580    0.1895 Se  0  0  0  0  0  2  0  0  0  0  0  0
   -1.6507    0.7958   -0.7904 C   0  0  0  0  0  0  0  0  0  0  0  0
   -0.9528    0.5973   -2.1359 C   0  0  0  0  0  0  0  0  0  0  0  0
   -7.0369   -1.8304   -1.6708 C   0  0  0  0  0  0  0  0  0  0  0  0
   -7.9245   -2.7845   -1.1283 C   0  0  0  0  0  0  0  0  0  0  0  0
   -7.2741   -3.6536    0.2513 S   0  0  0  0  0  0  0  0  0  0  0  0
   -9.1459   -2.8913   -1.7662 C   0  0  0  0  0  0  0  0  0  0  0  0
   -9.3186   -2.0425   -2.8608 C   0  0  0  0  0  0  0  0  0  0  0  0
   -7.7831   -0.9593   -3.1428 Se  0  0  0  0  0  2  0  0  0  0  0  0
  -10.4904   -2.0413   -3.6260 C   0  0  0  0  0  0  0  0  0  0  0  0
  -10.8230   -1.3007   -4.7314 C   0  0  0  0  0  0  0  0  0  0  0  0
  -12.1150   -1.4573   -5.4222 C   0  0  0  0  0  0  0  0  0  0  0  0
  -13.0213   -2.2037   -5.1297 O   0  0  0  0  0  0  0  0  0  0  0  0
  -12.0690   -0.5000   -6.5639 C   0  0  0  0  0  0  0  0  0  0  0  0
  -13.0120   -0.2444   -7.5370 C   0  0  0  0  0  0  0  0  0  0  0  0
  -12.7154    0.7100   -8.5069 C   0  0  0  0  0  0  0  0  0  0  0  0
  -13.8673    1.0515   -9.7344 Cl  0  0  0  0  0  0  0  0  0  0  0  0
  -11.4935    1.3900   -8.4914 C   0  0  0  0  0  0  0  0  0  0  0  0
  -11.1530    2.5631   -9.7003 Cl  0  0  0  0  0  0  0  0  0  0  0  0
  -10.5448    1.1288   -7.5074 C   0  0  0  0  0  0  0  0  0  0  0  0
  -10.8446    0.1810   -6.5498 C   0  0  0  0  0  0  0  0  0  0  0  0
  -10.0312   -0.2947   -5.4055 C   0  0  0  0  0  0  0  0  0  0  0  0
   -8.9105    0.0990   -5.1052 O   0  0  0  0  0  0  0  0  0  0  0  0
    4.2342    2.5813    0.5521 H   0  0  0  0  0  0  0  0  0  0  0  0
    7.9715   -0.3726    4.6505 H   0  0  0  0  0  0  0  0  0  0  0  0
    9.3417    3.7273    2.0133 H   0  0  0  0  0  0  0  0  0  0  0  0
   12.0983    2.1562    3.3191 H   0  0  0  0  0  0  0  0  0  0  0  0
   12.1381    4.1732    4.7786 H   0  0  0  0  0  0  0  0  0  0  0  0
    9.6940    4.5138    5.6426 H   0  0  0  0  0  0  0  0  0  0  0  0
    9.0069    2.3747    7.0597 H   0  0  0  0  0  0  0  0  0  0  0  0
   11.0294    0.7163    7.0714 H   0  0  0  0  0  0  0  0  0  0  0  0
   12.4500    2.9505    7.1076 H   0  0  0  0  0  0  0  0  0  0  0  0
   13.1097    1.8945    5.8335 H   0  0  0  0  0  0  0  0  0  0  0  0
   11.4385    0.0765    4.6997 H   0  0  0  0  0  0  0  0  0  0  0  0
    3.5708   -0.5713    2.8119 H   0  0  0  0  0  0  0  0  0  0  0  0
   -3.3618   -0.1936   -2.3520 H   0  0  0  0  0  0  0  0  0  0  0  0
   -4.9138   -0.7065   -3.0110 H   0  0  0  0  0  0  0  0  0  0  0  0
   -6.1368    1.0208   -1.8680 H   0  0  0  0  0  0  0  0  0  0  0  0
   -4.7399    1.5159   -0.9169 H   0  0  0  0  0  0  0  0  0  0  0  0
   -4.7690    1.7942   -2.6666 H   0  0  0  0  0  0  0  0  0  0  0  0
   -1.1392    1.6051   -0.2520 H   0  0  0  0  0  0  0  0  0  0  0  0
   -2.6893    1.0898   -0.9097 H   0  0  0  0  0  0  0  0  0  0  0  0
   -1.3078   -0.2970   -2.6441 H   0  0  0  0  0  0  0  0  0  0  0  0
    0.1208    0.4903   -1.9873 H   0  0  0  0  0  0  0  0  0  0  0  0
   -1.1259    1.4602   -2.7727 H   0  0  0  0  0  0  0  0  0  0  0  0
   -9.9147   -3.5786   -1.4563 H   0  0  0  0  0  0  0  0  0  0  0  0
  -11.2559   -2.7413   -3.2997 H   0  0  0  0  0  0  0  0  0  0  0  0
  -13.9545   -0.7687   -7.5494 H   0  0  0  0  0  0  0  0  0  0  0  0
   -9.6025    1.6533   -7.4968 H   0  0  0  0  0  0  0  0  0  0  0  0
  1  2  2  0  0  0  0
  2  3  1  0  0  0  0
  3  4  2  0  0  0  0
  3  5  1  0  0  0  0
  5  6  2  0  0  0  0
  6  7  1  0  0  0  0
  7  8  2  0  0  0  0
  8  9  1  0  0  0  0
  9 10  2  0  0  0  0
 10 11  1  0  0  0  0
 11 12  2  0  0  0  0
 12 13  1  0  0  0  0
 13 14  3  0  0  0  0
 12 15  1  0  0  0  0
 15 16  3  0  0  0  0
  8 17  1  0  0  0  0
 17 18  1  0  0  0  0
 18 19  1  0  0  0  0
 19 20  2  0  0  0  0
 20 21  1  0  0  0  0
 21 22  1  0  0  0  0
 21 23  1  0  0  0  0
  1 24  1  0  0  0  0
 24 25  2  0  0  0  0
 25 26  1  0  0  0  0
 26 27  1  0  0  0  0
 27 28  1  0  0  0  0
 28 29  1  0  0  0  0
 29 30  1  0  0  0  0
 30 31  1  0  0  0  0
 31 32  2  0  0  0  0
 32 33  1  0  0  0  0
 33 34  1  0  0  0  0
 31 35  1  0  0  0  0
 35 36  1  0  0  0  0
 36 37  2  0  0  0  0
 37 38  1  0  0  0  0
 38 39  1  0  0  0  0
 39 40  1  0  0  0  0
 38 41  1  0  0  0  0
 41 42  1  0  0  0  0
 42 43  1  0  0  0  0
 43 44  1  0  0  0  0
 44 45  1  0  0  0  0
 45 46  1  0  0  0  0
 43 47  1  0  0  0  0
 47 48  1  0  0  0  0
 37 49  1  0  0  0  0
 49 50  2  0  0  0  0
 50 51  1  0  0  0  0
 50 52  1  0  0  0  0
 52 53  2  0  0  0  0
 53 54  1  0  0  0  0
 53 55  1  0  0  0  0
 55 56  2  0  0  0  0
 56 57  1  0  0  0  0
 57 58  2  0  0  0  0
 57 59  1  0  0  0  0
 59 60  2  0  0  0  0
 60 61  1  0  0  0  0
 61 62  1  0  0  0  0
 61 63  2  0  0  0  0
 63 64  1  0  0  0  0
 63 65  1  0  0  0  0
 65 66  2  0  0  0  0
 66 67  1  0  0  0  0
 67 68  2  0  0  0  0
 11  2  1  0  0  0  0
 23 17  1  0  0  0  0
 46 24  1  0  0  0  0
 54 49  1  0  0  0  0
 67 56  1  0  0  0  0
 10  5  1  0  0  0  0
 22 18  1  0  0  0  0
 45 26  2  0  0  0  0
 66 59  1  0  0  0  0
 23  7  1  0  0  0  0
 44 28  2  0  0  0  0
 42 29  2  0  0  0  0
 34 30  2  0  0  0  0
 41 35  2  0  0  0  0
 51 36  1  0  0  0  0
  1 69  1  0  0  0  0
  6 70  1  0  0  0  0
  9 71  1  0  0  0  0
 17 72  1  0  0  0  0
 18 73  1  0  0  0  0
 19 74  1  0  0  0  0
 20 75  1  0  0  0  0
 21 76  1  0  0  0  0
 22 77  1  0  0  0  0
 22 78  1  0  0  0  0
 23 79  1  0  0  0  0
 25 80  1  0  0  0  0
 39 81  1  0  0  0  0
 39 82  1  0  0  0  0
 40 83  1  0  0  0  0
 40 84  1  0  0  0  0
 40 85  1  0  0  0  0
 47 86  1  0  0  0  0
 47 87  1  0  0  0  0
 48 88  1  0  0  0  0
 48 89  1  0  0  0  0
 48 90  1  0  0  0  0
 52 91  1  0  0  0  0
 55 92  1  0  0  0  0
 60 93  1  0  0  0  0
 65 94  1  0  0  0  0
M  END
