
  xtb     02112207003D
 energy: -189.503165414292 gnorm: 0.000473544615 xtb: 6.4.1 (unknown)
104118  0     0  0            999 V2000
    5.2676    0.8631   -5.1419 C   0  0  0  0  0  0  0  0  0  0  0  0
    5.0996   -0.0572   -6.1413 C   0  0  0  0  0  0  0  0  0  0  0  0
    4.2226   -1.2494   -6.1717 C   0  0  0  0  0  0  0  0  0  0  0  0
    3.7280   -1.8618   -5.2447 O   0  0  0  0  0  0  0  0  0  0  0  0
    4.0463   -1.5782   -7.5985 C   0  0  0  0  0  0  0  0  0  0  0  0
    3.1924   -2.5419   -8.1302 C   0  0  0  0  0  0  0  0  0  0  0  0
    3.2002   -2.5990   -9.5027 C   0  0  0  0  0  0  0  0  0  0  0  0
    4.0039   -1.7641  -10.2910 C   0  0  0  0  0  0  0  0  0  0  0  0
    4.8631   -0.8212   -9.7788 C   0  0  0  0  0  0  0  0  0  0  0  0
    4.8653   -0.7436   -8.3834 C   0  0  0  0  0  0  0  0  0  0  0  0
    5.6143    0.1325   -7.4887 C   0  0  0  0  0  0  0  0  0  0  0  0
    6.6710    0.9258   -7.8497 C   0  0  0  0  0  0  0  0  0  0  0  0
    7.1483    1.0580   -9.1703 C   0  0  0  0  0  0  0  0  0  0  0  0
    7.5833    1.2122  -10.2216 N   0  0  0  0  0  0  0  0  0  0  0  0
    7.4715    1.6655   -6.9526 C   0  0  0  0  0  0  0  0  0  0  0  0
    8.1853    2.2695   -6.2856 N   0  0  0  0  0  0  0  0  0  0  0  0
    3.4778   -2.3426  -11.5804 C   0  0  0  0  0  0  0  0  0  0  0  0
    2.4343   -1.5114  -12.3678 C   0  0  0  0  0  0  0  0  0  0  0  0
    1.7201   -0.6485  -11.3574 C   0  0  0  0  0  0  0  0  0  0  0  0
    0.9614   -1.4410  -10.6121 C   0  0  0  0  0  0  0  0  0  0  0  0
    1.1494   -2.8545  -11.1050 C   0  0  0  0  0  0  0  0  0  0  0  0
    1.3663   -2.5914  -12.6037 C   0  0  0  0  0  0  0  0  0  0  0  0
    2.5849   -3.2749  -10.7023 C   0  0  0  0  0  0  0  0  0  0  0  0
    4.7753    0.8920   -3.8221 C   0  0  0  0  0  0  0  0  0  0  0  0
    4.8345    2.5811   -2.9003 Se  0  0  0  0  0  2  0  0  0  0  0  0
    3.9515    1.7100   -1.5380 C   0  0  0  0  0  0  0  0  0  0  0  0
    3.3728    1.9601   -0.2851 C   0  0  0  0  0  0  0  0  0  0  0  0
    3.3280    3.1263    0.5080 C   0  0  0  0  0  0  0  0  0  0  0  0
    2.6480    3.0880    1.7710 C   0  0  0  0  0  0  0  0  0  0  0  0
    2.7228    4.2407    2.4173 N   0  0  0  0  0  0  0  0  0  0  0  0
    3.5701    5.2836    1.5146 S   0  0  0  0  0  0  0  0  0  0  0  0
    3.8746    4.3054    0.2599 N   0  0  0  0  0  0  0  0  0  0  0  0
    1.9370    1.9175    2.1243 C   0  0  0  0  0  0  0  0  0  0  0  0
    1.0010    1.6709    3.1382 C   0  0  0  0  0  0  0  0  0  0  0  0
    0.2662    2.4997    4.4644 S   0  0  0  0  0  0  0  0  0  0  0  0
   -0.8261    1.1500    4.6802 C   0  0  0  0  0  0  0  0  0  0  0  0
   -1.9115    0.9350    5.5412 C   0  0  0  0  0  0  0  0  0  0  0  0
   -2.2823    1.8761    6.6449 C   0  0  0  0  0  0  0  0  0  0  0  0
   -2.5772    3.2916    6.1476 C   0  0  0  0  0  0  0  0  0  0  0  0
   -2.4853   -0.3102    5.3172 C   0  0  0  0  0  0  0  0  0  0  0  0
   -1.6433   -1.2210    4.0683 S   0  0  0  0  0  0  0  0  0  0  0  0
   -0.5790    0.0997    3.7853 C   0  0  0  0  0  0  0  0  0  0  0  0
    0.4573    0.4028    2.8977 C   0  0  0  0  0  0  0  0  0  0  0  0
    1.0404   -0.1525    1.7909 N   0  0  0  0  0  0  0  0  0  0  0  0
    1.9590    0.7551    1.3000 C   0  0  0  0  0  0  0  0  0  0  0  0
    2.7908    0.7399    0.1537 C   0  0  0  0  0  0  0  0  0  0  0  0
    3.0770   -0.2459   -0.7716 N   0  0  0  0  0  0  0  0  0  0  0  0
    3.7490    0.3454   -1.8170 C   0  0  0  0  0  0  0  0  0  0  0  0
    4.2005   -0.1064   -3.0533 C   0  0  0  0  0  0  0  0  0  0  0  0
    3.2476   -1.6628   -0.5289 C   0  0  0  0  0  0  0  0  0  0  0  0
    4.7230   -2.0180   -0.3407 C   0  0  0  0  0  0  0  0  0  0  0  0
    0.4293   -1.2951    1.1468 C   0  0  0  0  0  0  0  0  0  0  0  0
    0.7439   -2.6019    1.8743 C   0  0  0  0  0  0  0  0  0  0  0  0
   -3.5576   -0.9781    5.9576 C   0  0  0  0  0  0  0  0  0  0  0  0
   -4.7218   -0.4792    6.4575 C   0  0  0  0  0  0  0  0  0  0  0  0
   -5.5083   -1.2789    7.4324 C   0  0  0  0  0  0  0  0  0  0  0  0
   -5.3233   -2.4347    7.7393 O   0  0  0  0  0  0  0  0  0  0  0  0
   -6.5190   -0.3473    7.9743 C   0  0  0  0  0  0  0  0  0  0  0  0
   -7.4279   -0.5666    8.9804 C   0  0  0  0  0  0  0  0  0  0  0  0
   -8.2783    0.4871    9.3329 C   0  0  0  0  0  0  0  0  0  0  0  0
   -9.2929    0.5114   10.3288 C   0  0  0  0  0  0  0  0  0  0  0  0
   -9.9130    1.7136   10.3928 C   0  0  0  0  0  0  0  0  0  0  0  0
  -11.3045    2.1862   11.5579 Br  0  0  0  0  0  0  0  0  0  0  0  0
   -9.3079    2.8882    9.2549 S   0  0  0  0  0  0  0  0  0  0  0  0
   -8.1684    1.7235    8.6526 C   0  0  0  0  0  0  0  0  0  0  0  0
   -7.2548    1.9439    7.6290 C   0  0  0  0  0  0  0  0  0  0  0  0
   -6.4288    0.8905    7.2886 C   0  0  0  0  0  0  0  0  0  0  0  0
   -5.4091    0.7761    6.2513 C   0  0  0  0  0  0  0  0  0  0  0  0
   -5.3163    1.5772    5.1422 C   0  0  0  0  0  0  0  0  0  0  0  0
   -4.5022    1.2900    4.0288 C   0  0  0  0  0  0  0  0  0  0  0  0
   -3.8951    1.0919    3.0746 N   0  0  0  0  0  0  0  0  0  0  0  0
   -6.0946    2.7357    4.9448 C   0  0  0  0  0  0  0  0  0  0  0  0
   -6.6897    3.6966    4.7442 N   0  0  0  0  0  0  0  0  0  0  0  0
    5.8020    1.7674   -5.4186 H   0  0  0  0  0  0  0  0  0  0  0  0
    2.5877   -3.1624   -7.4873 H   0  0  0  0  0  0  0  0  0  0  0  0
    5.4729   -0.1833  -10.3968 H   0  0  0  0  0  0  0  0  0  0  0  0
    4.2150   -2.8069  -12.2322 H   0  0  0  0  0  0  0  0  0  0  0  0
    2.8310   -0.9997  -13.2405 H   0  0  0  0  0  0  0  0  0  0  0  0
    1.8783    0.4091  -11.2544 H   0  0  0  0  0  0  0  0  0  0  0  0
    0.3595   -1.1776   -9.7620 H   0  0  0  0  0  0  0  0  0  0  0  0
    0.3757   -3.5662  -10.8285 H   0  0  0  0  0  0  0  0  0  0  0  0
    0.4761   -2.2028  -13.0960 H   0  0  0  0  0  0  0  0  0  0  0  0
    1.7386   -3.4587  -13.1473 H   0  0  0  0  0  0  0  0  0  0  0  0
    2.7400   -4.3493  -10.7791 H   0  0  0  0  0  0  0  0  0  0  0  0
   -1.4378    1.9244    7.3398 H   0  0  0  0  0  0  0  0  0  0  0  0
   -3.1393    1.4828    7.1932 H   0  0  0  0  0  0  0  0  0  0  0  0
   -3.3317    3.2889    5.3652 H   0  0  0  0  0  0  0  0  0  0  0  0
   -1.6785    3.7500    5.7447 H   0  0  0  0  0  0  0  0  0  0  0  0
   -2.9365    3.9036    6.9713 H   0  0  0  0  0  0  0  0  0  0  0  0
    4.0917   -1.1125   -3.4161 H   0  0  0  0  0  0  0  0  0  0  0  0
    2.8360   -2.2161   -1.3785 H   0  0  0  0  0  0  0  0  0  0  0  0
    2.7142   -1.9360    0.3750 H   0  0  0  0  0  0  0  0  0  0  0  0
    5.2959   -1.8005   -1.2376 H   0  0  0  0  0  0  0  0  0  0  0  0
    4.8158   -3.0776   -0.1181 H   0  0  0  0  0  0  0  0  0  0  0  0
    5.1444   -1.4493    0.4859 H   0  0  0  0  0  0  0  0  0  0  0  0
   -0.6555   -1.1418    1.1620 H   0  0  0  0  0  0  0  0  0  0  0  0
    0.7440   -1.3251    0.1037 H   0  0  0  0  0  0  0  0  0  0  0  0
    0.3525   -3.4400    1.3050 H   0  0  0  0  0  0  0  0  0  0  0  0
    0.2776   -2.6063    2.8557 H   0  0  0  0  0  0  0  0  0  0  0  0
    1.8140   -2.7409    2.0126 H   0  0  0  0  0  0  0  0  0  0  0  0
   -3.4270   -2.0483    6.0961 H   0  0  0  0  0  0  0  0  0  0  0  0
   -7.4837   -1.5213    9.4792 H   0  0  0  0  0  0  0  0  0  0  0  0
   -9.5394   -0.3252   10.9566 H   0  0  0  0  0  0  0  0  0  0  0  0
   -7.2025    2.9031    7.1407 H   0  0  0  0  0  0  0  0  0  0  0  0
  1  2  2  0  0  0  0
  2  3  1  0  0  0  0
  3  4  2  0  0  0  0
  3  5  1  0  0  0  0
  5  6  2  0  0  0  0
  6  7  1  0  0  0  0
  7  8  2  0  0  0  0
  8  9  1  0  0  0  0
  9 10  2  0  0  0  0
 10 11  1  0  0  0  0
 11 12  2  0  0  0  0
 12 13  1  0  0  0  0
 13 14  3  0  0  0  0
 12 15  1  0  0  0  0
 15 16  3  0  0  0  0
  8 17  1  0  0  0  0
 17 18  1  0  0  0  0
 18 19  1  0  0  0  0
 19 20  2  0  0  0  0
 20 21  1  0  0  0  0
 21 22  1  0  0  0  0
 21 23  1  0  0  0  0
  1 24  1  0  0  0  0
 24 25  1  0  0  0  0
 25 26  1  0  0  0  0
 26 27  1  0  0  0  0
 27 28  1  0  0  0  0
 28 29  1  0  0  0  0
 29 30  2  0  0  0  0
 30 31  1  0  0  0  0
 31 32  1  0  0  0  0
 29 33  1  0  0  0  0
 33 34  1  0  0  0  0
 34 35  1  0  0  0  0
 35 36  1  0  0  0  0
 36 37  1  0  0  0  0
 37 38  1  0  0  0  0
 38 39  1  0  0  0  0
 37 40  2  0  0  0  0
 40 41  1  0  0  0  0
 41 42  1  0  0  0  0
 42 43  1  0  0  0  0
 43 44  1  0  0  0  0
 44 45  1  0  0  0  0
 45 46  1  0  0  0  0
 46 47  1  0  0  0  0
 47 48  1  0  0  0  0
 48 49  1  0  0  0  0
 47 50  1  0  0  0  0
 50 51  1  0  0  0  0
 44 52  1  0  0  0  0
 52 53  1  0  0  0  0
 40 54  1  0  0  0  0
 54 55  2  0  0  0  0
 55 56  1  0  0  0  0
 56 57  2  0  0  0  0
 56 58  1  0  0  0  0
 58 59  2  0  0  0  0
 59 60  1  0  0  0  0
 60 61  1  0  0  0  0
 61 62  2  0  0  0  0
 62 63  1  0  0  0  0
 62 64  1  0  0  0  0
 64 65  1  0  0  0  0
 65 66  1  0  0  0  0
 66 67  2  0  0  0  0
 67 68  1  0  0  0  0
 68 69  2  0  0  0  0
 69 70  1  0  0  0  0
 70 71  3  0  0  0  0
 69 72  1  0  0  0  0
 72 73  3  0  0  0  0
 11  2  1  0  0  0  0
 23 17  1  0  0  0  0
 49 24  2  0  0  0  0
 68 55  1  0  0  0  0
 10  5  1  0  0  0  0
 22 18  1  0  0  0  0
 48 26  2  0  0  0  0
 67 58  1  0  0  0  0
 23  7  1  0  0  0  0
 46 27  2  0  0  0  0
 65 60  2  0  0  0  0
 32 28  2  0  0  0  0
 45 33  2  0  0  0  0
 43 34  2  0  0  0  0
 42 36  2  0  0  0  0
  1 74  1  0  0  0  0
  6 75  1  0  0  0  0
  9 76  1  0  0  0  0
 17 77  1  0  0  0  0
 18 78  1  0  0  0  0
 19 79  1  0  0  0  0
 20 80  1  0  0  0  0
 21 81  1  0  0  0  0
 22 82  1  0  0  0  0
 22 83  1  0  0  0  0
 23 84  1  0  0  0  0
 38 85  1  0  0  0  0
 38 86  1  0  0  0  0
 39 87  1  0  0  0  0
 39 88  1  0  0  0  0
 39 89  1  0  0  0  0
 49 90  1  0  0  0  0
 50 91  1  0  0  0  0
 50 92  1  0  0  0  0
 51 93  1  0  0  0  0
 51 94  1  0  0  0  0
 51 95  1  0  0  0  0
 52 96  1  0  0  0  0
 52 97  1  0  0  0  0
 53 98  1  0  0  0  0
 53 99  1  0  0  0  0
 53100  1  0  0  0  0
 54101  1  0  0  0  0
 59102  1  0  0  0  0
 61103  1  0  0  0  0
 66104  1  0  0  0  0
M  END
