
  xtb     02022210443D
 energy: -310.995799016166 gnorm: 0.000499361294 xtb: 6.4.1 (unknown)
201224  0     0  0            999 V2000
   -0.6547   -7.3090    6.2407 C   0  0  0  0  0  0  0  0  0  0  0  0
    0.2546   -7.6379    7.2023 C   0  0  0  0  0  0  0  0  0  0  0  0
   -0.1894   -8.2536    8.4773 C   0  0  0  0  0  0  0  0  0  0  0  0
   -1.2738   -8.7405    8.7122 O   0  0  0  0  0  0  0  0  0  0  0  0
    0.9479   -8.0845    9.4053 C   0  0  0  0  0  0  0  0  0  0  0  0
    0.9762   -8.3729   10.7674 C   0  0  0  0  0  0  0  0  0  0  0  0
    2.1698   -8.0729   11.3791 C   0  0  0  0  0  0  0  0  0  0  0  0
    3.2605   -7.5253   10.6906 C   0  0  0  0  0  0  0  0  0  0  0  0
    3.2523   -7.2464    9.3444 C   0  0  0  0  0  0  0  0  0  0  0  0
    2.0474   -7.5443    8.7052 C   0  0  0  0  0  0  0  0  0  0  0  0
    1.6775   -7.4116    7.2982 C   0  0  0  0  0  0  0  0  0  0  0  0
    2.5548   -7.3764    6.2432 C   0  0  0  0  0  0  0  0  0  0  0  0
    3.9512   -7.2630    6.3793 C   0  0  0  0  0  0  0  0  0  0  0  0
    5.0937   -7.1596    6.4345 N   0  0  0  0  0  0  0  0  0  0  0  0
    2.1520   -7.5539    4.9042 C   0  0  0  0  0  0  0  0  0  0  0  0
    1.8639   -7.7472    3.8091 N   0  0  0  0  0  0  0  0  0  0  0  0
    4.1131   -7.4579   11.9330 C   0  0  0  0  0  0  0  0  0  0  0  0
    4.2893   -6.0779   12.6137 C   0  0  0  0  0  0  0  0  0  0  0  0
    3.0677   -5.2663   12.2606 C   0  0  0  0  0  0  0  0  0  0  0  0
    2.0350   -5.7854   12.9112 C   0  0  0  0  0  0  0  0  0  0  0  0
    2.5399   -6.9571   13.7164 C   0  0  0  0  0  0  0  0  0  0  0  0
    3.9514   -6.4582   14.0642 C   0  0  0  0  0  0  0  0  0  0  0  0
    2.8985   -8.0695   12.6998 C   0  0  0  0  0  0  0  0  0  0  0  0
   -0.5378   -6.3595    5.2065 C   0  0  0  0  0  0  0  0  0  0  0  0
    0.6132   -5.0264    5.2762 S   0  0  0  0  0  0  0  0  0  0  0  0
    0.0309   -4.4332    3.7824 C   0  0  0  0  0  0  0  0  0  0  0  0
    0.2717   -3.3435    2.9207 C   0  0  0  0  0  0  0  0  0  0  0  0
   -0.6091   -3.4208    1.8421 C   0  0  0  0  0  0  0  0  0  0  0  0
   -1.4607   -4.6643    1.9275 C   0  0  0  0  0  0  0  0  0  0  0  0
   -0.9964   -5.2221    3.2526 C   0  0  0  0  0  0  0  0  0  0  0  0
   -1.3360   -6.2837    4.0700 C   0  0  0  0  0  0  0  0  0  0  0  0
   -2.9530   -4.4108    1.9763 C   0  0  0  0  0  0  0  0  0  0  0  0
   -3.4726   -3.1577    2.2640 C   0  0  0  0  0  0  0  0  0  0  0  0
   -4.8409   -2.9666    2.3306 C   0  0  0  0  0  0  0  0  0  0  0  0
   -5.7203   -4.0204    2.1258 C   0  0  0  0  0  0  0  0  0  0  0  0
   -7.2052   -3.7993    2.1514 C   0  0  0  0  0  0  0  0  0  0  0  0
   -7.7140   -3.4331    0.7556 C   0  0  0  0  0  0  0  0  0  0  0  0
   -5.1933   -5.2762    1.8503 C   0  0  0  0  0  0  0  0  0  0  0  0
   -3.8281   -5.4718    1.7783 C   0  0  0  0  0  0  0  0  0  0  0  0
   -1.0837   -5.5470    0.7460 C   0  0  0  0  0  0  0  0  0  0  0  0
   -1.6433   -5.2794   -0.4972 C   0  0  0  0  0  0  0  0  0  0  0  0
   -1.2995   -6.0412   -1.5971 C   0  0  0  0  0  0  0  0  0  0  0  0
   -0.3899   -7.0851   -1.4842 C   0  0  0  0  0  0  0  0  0  0  0  0
    0.0108   -7.8910   -2.6864 C   0  0  0  0  0  0  0  0  0  0  0  0
    1.2420   -7.2764   -3.3553 C   0  0  0  0  0  0  0  0  0  0  0  0
    0.1768   -7.3352   -0.2419 C   0  0  0  0  0  0  0  0  0  0  0  0
   -0.1592   -6.5749    0.8638 C   0  0  0  0  0  0  0  0  0  0  0  0
   -0.4335   -2.3546    0.9670 C   0  0  0  0  0  0  0  0  0  0  0  0
   -1.2190   -1.8141   -0.4860 S   0  0  0  0  0  0  0  0  0  0  0  0
   -0.1908   -0.4198   -0.5037 C   0  0  0  0  0  0  0  0  0  0  0  0
   -0.0622    0.7401   -1.3317 C   0  0  0  0  0  0  0  0  0  0  0  0
   -0.7901    1.1650   -2.4358 C   0  0  0  0  0  0  0  0  0  0  0  0
   -0.4447    2.3820   -2.9826 C   0  0  0  0  0  0  0  0  0  0  0  0
   -1.0832    3.0609   -4.1779 C   0  0  0  0  0  0  0  0  0  0  0  0
   -0.7544    2.2209   -5.3997 C   0  0  0  0  0  0  0  0  0  0  0  0
    0.4595    2.3565   -6.0611 C   0  0  0  0  0  0  0  0  0  0  0  0
    0.7667    1.5404   -7.1344 C   0  0  0  0  0  0  0  0  0  0  0  0
   -0.1172    0.5603   -7.5643 C   0  0  0  0  0  0  0  0  0  0  0  0
    0.2427   -0.3561   -8.6977 C   0  0  0  0  0  0  0  0  0  0  0  0
    0.9967   -1.5795   -8.1722 C   0  0  0  0  0  0  0  0  0  0  0  0
   -1.3161    0.4097   -6.8799 C   0  0  0  0  0  0  0  0  0  0  0  0
   -1.6328    1.2259   -5.8110 C   0  0  0  0  0  0  0  0  0  0  0  0
   -2.5596    3.3526   -4.0276 C   0  0  0  0  0  0  0  0  0  0  0  0
   -3.3162    3.6953   -5.1423 C   0  0  0  0  0  0  0  0  0  0  0  0
   -4.6496    4.0278   -5.0077 C   0  0  0  0  0  0  0  0  0  0  0  0
   -5.2562    4.0478   -3.7589 C   0  0  0  0  0  0  0  0  0  0  0  0
   -6.7145    4.3742   -3.6172 C   0  0  0  0  0  0  0  0  0  0  0  0
   -7.5581    3.1004   -3.7033 C   0  0  0  0  0  0  0  0  0  0  0  0
   -4.4921    3.7207   -2.6470 C   0  0  0  0  0  0  0  0  0  0  0  0
   -3.1579    3.3833   -2.7751 C   0  0  0  0  0  0  0  0  0  0  0  0
   -0.3159    4.3689   -4.2118 C   0  0  0  0  0  0  0  0  0  0  0  0
    0.8672    4.3600   -3.2742 C   0  0  0  0  0  0  0  0  0  0  0  0
    0.6142    3.1520   -2.4684 C   0  0  0  0  0  0  0  0  0  0  0  0
    1.3460    2.7154   -1.3671 C   0  0  0  0  0  0  0  0  0  0  0  0
    0.9968    1.5123   -0.8006 C   0  0  0  0  0  0  0  0  0  0  0  0
    1.5946    0.8422    0.4262 C   0  0  0  0  0  0  0  0  0  0  0  0
    3.0178    0.3508    0.2294 C   0  0  0  0  0  0  0  0  0  0  0  0
    3.7414   -0.0792    1.3354 C   0  0  0  0  0  0  0  0  0  0  0  0
    5.0190   -0.5814    1.1857 C   0  0  0  0  0  0  0  0  0  0  0  0
    5.6076   -0.6682   -0.0698 C   0  0  0  0  0  0  0  0  0  0  0  0
    6.9806   -1.2534   -0.2350 C   0  0  0  0  0  0  0  0  0  0  0  0
    6.8938   -2.7660   -0.4482 C   0  0  0  0  0  0  0  0  0  0  0  0
    4.8759   -0.2471   -1.1714 C   0  0  0  0  0  0  0  0  0  0  0  0
    3.5938    0.2528   -1.0285 C   0  0  0  0  0  0  0  0  0  0  0  0
    1.4858    1.7938    1.6005 C   0  0  0  0  0  0  0  0  0  0  0  0
    2.4832    2.7348    1.8237 C   0  0  0  0  0  0  0  0  0  0  0  0
    2.3746    3.6388    2.8625 C   0  0  0  0  0  0  0  0  0  0  0  0
    1.2685    3.6316    3.7027 C   0  0  0  0  0  0  0  0  0  0  0  0
    1.1785    4.5831    4.8607 C   0  0  0  0  0  0  0  0  0  0  0  0
    1.8320    3.9751    6.1034 C   0  0  0  0  0  0  0  0  0  0  0  0
    0.2724    2.6931    3.4722 C   0  0  0  0  0  0  0  0  0  0  0  0
    0.3742    1.7892    2.4308 C   0  0  0  0  0  0  0  0  0  0  0  0
    0.7155   -0.3748    0.5397 C   0  0  0  0  0  0  0  0  0  0  0  0
    0.5836   -1.4728    1.3876 C   0  0  0  0  0  0  0  0  0  0  0  0
    1.3321   -1.9739    2.8717 S   0  0  0  0  0  0  0  0  0  0  0  0
   -0.4309    5.6203   -2.8189 S   0  0  0  0  0  0  0  0  0  0  0  0
   -0.1895    6.5274   -4.3958 C   0  0  0  0  0  0  0  0  0  0  0  0
   -0.2918    5.4423   -5.2023 C   0  0  0  0  0  0  0  0  0  0  0  0
    0.0829    7.9017   -4.4974 C   0  0  0  0  0  0  0  0  0  0  0  0
    0.0321    8.7128   -5.5906 C   0  0  0  0  0  0  0  0  0  0  0  0
    0.7754   10.0058   -5.5722 C   0  0  0  0  0  0  0  0  0  0  0  0
    1.2263   10.5639   -4.5988 O   0  0  0  0  0  0  0  0  0  0  0  0
    0.8750   10.4167   -6.9851 C   0  0  0  0  0  0  0  0  0  0  0  0
    1.5821   11.5015   -7.5000 C   0  0  0  0  0  0  0  0  0  0  0  0
    1.5041   11.6235   -8.8668 C   0  0  0  0  0  0  0  0  0  0  0  0
    0.7833   10.7285   -9.6695 C   0  0  0  0  0  0  0  0  0  0  0  0
    0.0800    9.6547   -9.1768 C   0  0  0  0  0  0  0  0  0  0  0  0
    0.1381    9.5191   -7.7872 C   0  0  0  0  0  0  0  0  0  0  0  0
   -0.5125    8.5433   -6.9162 C   0  0  0  0  0  0  0  0  0  0  0  0
   -1.6043    7.7793   -7.2450 C   0  0  0  0  0  0  0  0  0  0  0  0
   -2.3751    7.1051   -6.2801 C   0  0  0  0  0  0  0  0  0  0  0  0
   -3.0529    6.5864   -5.5117 N   0  0  0  0  0  0  0  0  0  0  0  0
   -2.1434    7.6742   -8.5419 C   0  0  0  0  0  0  0  0  0  0  0  0
   -2.6107    7.5313   -9.5811 N   0  0  0  0  0  0  0  0  0  0  0  0
    1.1396   11.4569  -10.9411 C   0  0  0  0  0  0  0  0  0  0  0  0
    0.0396   12.3514  -11.5517 C   0  0  0  0  0  0  0  0  0  0  0  0
    0.7990   13.2816  -12.4700 C   0  0  0  0  0  0  0  0  0  0  0  0
    1.4806   14.1302  -11.7111 C   0  0  0  0  0  0  0  0  0  0  0  0
    1.1932   13.7880  -10.2668 C   0  0  0  0  0  0  0  0  0  0  0  0
   -0.2596   13.3114  -10.3930 C   0  0  0  0  0  0  0  0  0  0  0  0
    1.9414   12.4559  -10.0463 C   0  0  0  0  0  0  0  0  0  0  0  0
   -1.6267   -7.7839    6.3351 H   0  0  0  0  0  0  0  0  0  0  0  0
    0.1159   -8.7944   11.2635 H   0  0  0  0  0  0  0  0  0  0  0  0
    4.0928   -6.8196    8.8216 H   0  0  0  0  0  0  0  0  0  0  0  0
    5.0392   -8.0287   11.9064 H   0  0  0  0  0  0  0  0  0  0  0  0
    5.2500   -5.6040   12.4310 H   0  0  0  0  0  0  0  0  0  0  0  0
    3.0688   -4.4601   11.5506 H   0  0  0  0  0  0  0  0  0  0  0  0
    1.0011   -5.4993   12.8529 H   0  0  0  0  0  0  0  0  0  0  0  0
    1.9073   -7.2828   14.5381 H   0  0  0  0  0  0  0  0  0  0  0  0
    3.9417   -5.5993   14.7337 H   0  0  0  0  0  0  0  0  0  0  0  0
    4.5980   -7.2346   14.4710 H   0  0  0  0  0  0  0  0  0  0  0  0
    3.0325   -9.0389   13.1760 H   0  0  0  0  0  0  0  0  0  0  0  0
   -2.1004   -7.0091    3.8584 H   0  0  0  0  0  0  0  0  0  0  0  0
   -2.8090   -2.3232    2.4369 H   0  0  0  0  0  0  0  0  0  0  0  0
   -5.2298   -1.9823    2.5493 H   0  0  0  0  0  0  0  0  0  0  0  0
   -7.4478   -2.9926    2.8461 H   0  0  0  0  0  0  0  0  0  0  0  0
   -7.7089   -4.7063    2.4914 H   0  0  0  0  0  0  0  0  0  0  0  0
   -8.7890   -3.2691    0.7729 H   0  0  0  0  0  0  0  0  0  0  0  0
   -7.4955   -4.2330    0.0517 H   0  0  0  0  0  0  0  0  0  0  0  0
   -7.2291   -2.5258    0.4025 H   0  0  0  0  0  0  0  0  0  0  0  0
   -5.8607   -6.1113    1.6919 H   0  0  0  0  0  0  0  0  0  0  0  0
   -3.4341   -6.4529    1.5560 H   0  0  0  0  0  0  0  0  0  0  0  0
   -2.3576   -4.4750   -0.6010 H   0  0  0  0  0  0  0  0  0  0  0  0
   -1.7475   -5.8230   -2.5562 H   0  0  0  0  0  0  0  0  0  0  0  0
   -0.8119   -7.9213   -3.4039 H   0  0  0  0  0  0  0  0  0  0  0  0
    0.2400   -8.9150   -2.3848 H   0  0  0  0  0  0  0  0  0  0  0  0
    1.5343   -7.8597   -4.2255 H   0  0  0  0  0  0  0  0  0  0  0  0
    2.0762   -7.2496   -2.6580 H   0  0  0  0  0  0  0  0  0  0  0  0
    1.0305   -6.2579   -3.6737 H   0  0  0  0  0  0  0  0  0  0  0  0
    0.8913   -8.1377   -0.1307 H   0  0  0  0  0  0  0  0  0  0  0  0
    0.3025   -6.7952    1.8144 H   0  0  0  0  0  0  0  0  0  0  0  0
   -1.6027    0.5734   -2.8297 H   0  0  0  0  0  0  0  0  0  0  0  0
    1.1781    3.0932   -5.7329 H   0  0  0  0  0  0  0  0  0  0  0  0
    1.7117    1.6672   -7.6433 H   0  0  0  0  0  0  0  0  0  0  0  0
   -0.6630   -0.6842   -9.2114 H   0  0  0  0  0  0  0  0  0  0  0  0
    0.8716    0.1726   -9.4168 H   0  0  0  0  0  0  0  0  0  0  0  0
    0.3833   -2.1231   -7.4571 H   0  0  0  0  0  0  0  0  0  0  0  0
    1.2540   -2.2488   -8.9898 H   0  0  0  0  0  0  0  0  0  0  0  0
    1.9124   -1.2730   -7.6716 H   0  0  0  0  0  0  0  0  0  0  0  0
   -2.0135   -0.3565   -7.1875 H   0  0  0  0  0  0  0  0  0  0  0  0
   -2.5724    1.0921   -5.2953 H   0  0  0  0  0  0  0  0  0  0  0  0
   -2.8583    3.6977   -6.1212 H   0  0  0  0  0  0  0  0  0  0  0  0
   -5.2209    4.2937   -5.8847 H   0  0  0  0  0  0  0  0  0  0  0  0
   -6.8930    4.8595   -2.6556 H   0  0  0  0  0  0  0  0  0  0  0  0
   -7.0168    5.0619   -4.4090 H   0  0  0  0  0  0  0  0  0  0  0  0
   -7.4069    2.6108   -4.6629 H   0  0  0  0  0  0  0  0  0  0  0  0
   -8.6146    3.3348   -3.5958 H   0  0  0  0  0  0  0  0  0  0  0  0
   -7.2748    2.4047   -2.9163 H   0  0  0  0  0  0  0  0  0  0  0  0
   -4.9424    3.7384   -1.6646 H   0  0  0  0  0  0  0  0  0  0  0  0
   -2.5801    3.1449   -1.8931 H   0  0  0  0  0  0  0  0  0  0  0  0
    2.1479    3.3193   -0.9726 H   0  0  0  0  0  0  0  0  0  0  0  0
    3.3022   -0.0121    2.3205 H   0  0  0  0  0  0  0  0  0  0  0  0
    5.5675   -0.9096    2.0569 H   0  0  0  0  0  0  0  0  0  0  0  0
    7.4776   -0.7965   -1.0933 H   0  0  0  0  0  0  0  0  0  0  0  0
    7.5789   -1.0500    0.6554 H   0  0  0  0  0  0  0  0  0  0  0  0
    7.8879   -3.1926   -0.5602 H   0  0  0  0  0  0  0  0  0  0  0  0
    6.3162   -2.9894   -1.3426 H   0  0  0  0  0  0  0  0  0  0  0  0
    6.4057   -3.2401    0.4003 H   0  0  0  0  0  0  0  0  0  0  0  0
    5.3134   -0.3092   -2.1578 H   0  0  0  0  0  0  0  0  0  0  0  0
    3.0438    0.5716   -1.9019 H   0  0  0  0  0  0  0  0  0  0  0  0
    3.3556    2.7515    1.1865 H   0  0  0  0  0  0  0  0  0  0  0  0
    3.1605    4.3633    3.0222 H   0  0  0  0  0  0  0  0  0  0  0  0
    1.6828    5.5187    4.6105 H   0  0  0  0  0  0  0  0  0  0  0  0
    0.1317    4.8062    5.0770 H   0  0  0  0  0  0  0  0  0  0  0  0
    1.3339    3.0476    6.3772 H   0  0  0  0  0  0  0  0  0  0  0  0
    2.8796    3.7556    5.9102 H   0  0  0  0  0  0  0  0  0  0  0  0
    1.7699    4.6643    6.9425 H   0  0  0  0  0  0  0  0  0  0  0  0
   -0.5979    2.6708    4.1130 H   0  0  0  0  0  0  0  0  0  0  0  0
   -0.4198    1.0751    2.2659 H   0  0  0  0  0  0  0  0  0  0  0  0
   -0.2140    5.3419   -6.2699 H   0  0  0  0  0  0  0  0  0  0  0  0
    0.4714    8.3665   -3.5961 H   0  0  0  0  0  0  0  0  0  0  0  0
    2.1299   12.1652   -6.8497 H   0  0  0  0  0  0  0  0  0  0  0  0
   -0.4625    8.9653   -9.8029 H   0  0  0  0  0  0  0  0  0  0  0  0
    1.6787   10.8761  -11.6870 H   0  0  0  0  0  0  0  0  0  0  0  0
   -0.7979   11.8110  -11.9841 H   0  0  0  0  0  0  0  0  0  0  0  0
    0.8051   13.1946  -13.5407 H   0  0  0  0  0  0  0  0  0  0  0  0
    2.1699   14.8935  -12.0210 H   0  0  0  0  0  0  0  0  0  0  0  0
    1.4067   14.5575   -9.5299 H   0  0  0  0  0  0  0  0  0  0  0  0
   -0.9317   14.1152  -10.6884 H   0  0  0  0  0  0  0  0  0  0  0  0
   -0.6465   12.8235   -9.5003 H   0  0  0  0  0  0  0  0  0  0  0  0
    3.0162   12.5417  -10.1946 H   0  0  0  0  0  0  0  0  0  0  0  0
  1  2  2  0  0  0  0
  2  3  1  0  0  0  0
  3  4  2  0  0  0  0
  3  5  1  0  0  0  0
  5  6  2  0  0  0  0
  6  7  1  0  0  0  0
  7  8  2  0  0  0  0
  8  9  1  0  0  0  0
  9 10  2  0  0  0  0
 10 11  1  0  0  0  0
 11 12  2  0  0  0  0
 12 13  1  0  0  0  0
 13 14  3  0  0  0  0
 12 15  1  0  0  0  0
 15 16  3  0  0  0  0
  8 17  1  0  0  0  0
 17 18  1  0  0  0  0
 18 19  1  0  0  0  0
 19 20  2  0  0  0  0
 20 21  1  0  0  0  0
 21 22  1  0  0  0  0
 21 23  1  0  0  0  0
  1 24  1  0  0  0  0
 24 25  1  0  0  0  0
 25 26  1  0  0  0  0
 26 27  1  0  0  0  0
 27 28  2  0  0  0  0
 28 29  1  0  0  0  0
 29 30  1  0  0  0  0
 30 31  1  0  0  0  0
 29 32  1  0  0  0  0
 32 33  2  0  0  0  0
 33 34  1  0  0  0  0
 34 35  2  0  0  0  0
 35 36  1  0  0  0  0
 36 37  1  0  0  0  0
 35 38  1  0  0  0  0
 38 39  2  0  0  0  0
 29 40  1  0  0  0  0
 40 41  2  0  0  0  0
 41 42  1  0  0  0  0
 42 43  2  0  0  0  0
 43 44  1  0  0  0  0
 44 45  1  0  0  0  0
 43 46  1  0  0  0  0
 46 47  2  0  0  0  0
 28 48  1  0  0  0  0
 48 49  1  0  0  0  0
 49 50  1  0  0  0  0
 50 51  1  0  0  0  0
 51 52  2  0  0  0  0
 52 53  1  0  0  0  0
 53 54  1  0  0  0  0
 54 55  1  0  0  0  0
 55 56  2  0  0  0  0
 56 57  1  0  0  0  0
 57 58  2  0  0  0  0
 58 59  1  0  0  0  0
 59 60  1  0  0  0  0
 58 61  1  0  0  0  0
 61 62  2  0  0  0  0
 54 63  1  0  0  0  0
 63 64  2  0  0  0  0
 64 65  1  0  0  0  0
 65 66  2  0  0  0  0
 66 67  1  0  0  0  0
 67 68  1  0  0  0  0
 66 69  1  0  0  0  0
 69 70  2  0  0  0  0
 54 71  1  0  0  0  0
 71 72  2  0  0  0  0
 72 73  1  0  0  0  0
 73 74  1  0  0  0  0
 74 75  2  0  0  0  0
 75 76  1  0  0  0  0
 76 77  1  0  0  0  0
 77 78  2  0  0  0  0
 78 79  1  0  0  0  0
 79 80  2  0  0  0  0
 80 81  1  0  0  0  0
 81 82  1  0  0  0  0
 80 83  1  0  0  0  0
 83 84  2  0  0  0  0
 76 85  1  0  0  0  0
 85 86  2  0  0  0  0
 86 87  1  0  0  0  0
 87 88  2  0  0  0  0
 88 89  1  0  0  0  0
 89 90  1  0  0  0  0
 88 91  1  0  0  0  0
 91 92  2  0  0  0  0
 76 93  1  0  0  0  0
 93 94  1  0  0  0  0
 94 95  1  0  0  0  0
 72 96  1  0  0  0  0
 96 97  1  0  0  0  0
 97 98  2  0  0  0  0
 97 99  1  0  0  0  0
 99100  2  0  0  0  0
100101  1  0  0  0  0
101102  2  0  0  0  0
101103  1  0  0  0  0
103104  2  0  0  0  0
104105  1  0  0  0  0
105106  2  0  0  0  0
106107  1  0  0  0  0
107108  2  0  0  0  0
108109  1  0  0  0  0
109110  2  0  0  0  0
110111  1  0  0  0  0
111112  3  0  0  0  0
110113  1  0  0  0  0
113114  3  0  0  0  0
106115  1  0  0  0  0
115116  1  0  0  0  0
116117  1  0  0  0  0
117118  2  0  0  0  0
118119  1  0  0  0  0
119120  1  0  0  0  0
119121  1  0  0  0  0
 11  2  1  0  0  0  0
 23 17  1  0  0  0  0
 31 24  2  0  0  0  0
 39 32  1  0  0  0  0
 47 40  1  0  0  0  0
 94 48  2  0  0  0  0
109100  1  0  0  0  0
121115  1  0  0  0  0
 10  5  1  0  0  0  0
 22 18  1  0  0  0  0
 30 26  2  0  0  0  0
 93 50  2  0  0  0  0
108103  1  0  0  0  0
120116  1  0  0  0  0
 23  7  1  0  0  0  0
 95 27  1  0  0  0  0
121105  1  0  0  0  0
 75 51  1  0  0  0  0
 84 77  1  0  0  0  0
 92 85  1  0  0  0  0
 73 53  2  0  0  0  0
 62 55  1  0  0  0  0
 70 63  1  0  0  0  0
 98 71  1  0  0  0  0
  1122  1  0  0  0  0
  6123  1  0  0  0  0
  9124  1  0  0  0  0
 17125  1  0  0  0  0
 18126  1  0  0  0  0
 19127  1  0  0  0  0
 20128  1  0  0  0  0
 21129  1  0  0  0  0
 22130  1  0  0  0  0
 22131  1  0  0  0  0
 23132  1  0  0  0  0
 31133  1  0  0  0  0
 33134  1  0  0  0  0
 34135  1  0  0  0  0
 36136  1  0  0  0  0
 36137  1  0  0  0  0
 37138  1  0  0  0  0
 37139  1  0  0  0  0
 37140  1  0  0  0  0
 38141  1  0  0  0  0
 39142  1  0  0  0  0
 41143  1  0  0  0  0
 42144  1  0  0  0  0
 44145  1  0  0  0  0
 44146  1  0  0  0  0
 45147  1  0  0  0  0
 45148  1  0  0  0  0
 45149  1  0  0  0  0
 46150  1  0  0  0  0
 47151  1  0  0  0  0
 52152  1  0  0  0  0
 56153  1  0  0  0  0
 57154  1  0  0  0  0
 59155  1  0  0  0  0
 59156  1  0  0  0  0
 60157  1  0  0  0  0
 60158  1  0  0  0  0
 60159  1  0  0  0  0
 61160  1  0  0  0  0
 62161  1  0  0  0  0
 64162  1  0  0  0  0
 65163  1  0  0  0  0
 67164  1  0  0  0  0
 67165  1  0  0  0  0
 68166  1  0  0  0  0
 68167  1  0  0  0  0
 68168  1  0  0  0  0
 69169  1  0  0  0  0
 70170  1  0  0  0  0
 74171  1  0  0  0  0
 78172  1  0  0  0  0
 79173  1  0  0  0  0
 81174  1  0  0  0  0
 81175  1  0  0  0  0
 82176  1  0  0  0  0
 82177  1  0  0  0  0
 82178  1  0  0  0  0
 83179  1  0  0  0  0
 84180  1  0  0  0  0
 86181  1  0  0  0  0
 87182  1  0  0  0  0
 89183  1  0  0  0  0
 89184  1  0  0  0  0
 90185  1  0  0  0  0
 90186  1  0  0  0  0
 90187  1  0  0  0  0
 91188  1  0  0  0  0
 92189  1  0  0  0  0
 98190  1  0  0  0  0
 99191  1  0  0  0  0
104192  1  0  0  0  0
107193  1  0  0  0  0
115194  1  0  0  0  0
116195  1  0  0  0  0
117196  1  0  0  0  0
118197  1  0  0  0  0
119198  1  0  0  0  0
120199  1  0  0  0  0
120200  1  0  0  0  0
121201  1  0  0  0  0
M  END
