
  xtb     02102220033D
 energy: -201.311385127745 gnorm: 0.000381099190 xtb: 6.4.1 (unknown)
122136  0     0  0            999 V2000
    4.7466    1.9524    5.0249 C   0  0  0  0  0  0  0  0  0  0  0  0
    4.2490    3.1318    5.4952 C   0  0  0  0  0  0  0  0  0  0  0  0
    2.9222    3.7110    5.1680 C   0  0  0  0  0  0  0  0  0  0  0  0
    2.1674    3.4268    4.2601 O   0  0  0  0  0  0  0  0  0  0  0  0
    2.6409    4.6855    6.2398 C   0  0  0  0  0  0  0  0  0  0  0  0
    1.4650    5.4126    6.4098 C   0  0  0  0  0  0  0  0  0  0  0  0
    1.4740    6.2420    7.5048 C   0  0  0  0  0  0  0  0  0  0  0  0
    2.5695    6.3372    8.3736 C   0  0  0  0  0  0  0  0  0  0  0  0
    3.7338    5.6228    8.2197 C   0  0  0  0  0  0  0  0  0  0  0  0
    3.7473    4.7772    7.1065 C   0  0  0  0  0  0  0  0  0  0  0  0
    4.7840    3.8715    6.6243 C   0  0  0  0  0  0  0  0  0  0  0  0
    6.0685    3.7942    7.0956 C   0  0  0  0  0  0  0  0  0  0  0  0
    7.0771    2.9810    6.5366 C   0  0  0  0  0  0  0  0  0  0  0  0
    7.9543    2.3649    6.1244 N   0  0  0  0  0  0  0  0  0  0  0  0
    6.5689    4.5549    8.1716 C   0  0  0  0  0  0  0  0  0  0  0  0
    7.0347    5.1423    9.0417 N   0  0  0  0  0  0  0  0  0  0  0  0
    1.8867    7.3578    9.2495 C   0  0  0  0  0  0  0  0  0  0  0  0
    2.3165    8.8381    9.1005 C   0  0  0  0  0  0  0  0  0  0  0  0
    2.8328    8.9948    7.6917 C   0  0  0  0  0  0  0  0  0  0  0  0
    1.7966    8.9061    6.8686 C   0  0  0  0  0  0  0  0  0  0  0  0
    0.5609    8.6870    7.7059 C   0  0  0  0  0  0  0  0  0  0  0  0
    0.9349    9.4967    8.9576 C   0  0  0  0  0  0  0  0  0  0  0  0
    0.6671    7.2527    8.2805 C   0  0  0  0  0  0  0  0  0  0  0  0
    4.2682    1.2052    3.9016 C   0  0  0  0  0  0  0  0  0  0  0  0
    4.3061   -0.2081    3.9663 C   0  0  0  0  0  0  0  0  0  0  0  0
    3.7586   -0.9898    2.9843 C   0  0  0  0  0  0  0  0  0  0  0  0
    3.1797   -0.3720    1.8696 C   0  0  0  0  0  0  0  0  0  0  0  0
    2.4923   -0.7999    0.7187 C   0  0  0  0  0  0  0  0  0  0  0  0
    2.1686    0.3415   -0.0304 C   0  0  0  0  0  0  0  0  0  0  0  0
    2.6409    1.4616    0.5796 N   0  0  0  0  0  0  0  0  0  0  0  0
    3.2245    1.0592    1.7588 C   0  0  0  0  0  0  0  0  0  0  0  0
    3.7625    1.8361    2.7621 C   0  0  0  0  0  0  0  0  0  0  0  0
    2.3614    2.8163    0.1765 C   0  0  0  0  0  0  0  0  0  0  0  0
    1.1793    3.3985    0.9492 C   0  0  0  0  0  0  0  0  0  0  0  0
    1.4511   -0.0796   -1.1631 C   0  0  0  0  0  0  0  0  0  0  0  0
    0.9669    0.5549   -2.3256 C   0  0  0  0  0  0  0  0  0  0  0  0
    0.3156   -0.2106   -3.3358 C   0  0  0  0  0  0  0  0  0  0  0  0
    0.0321    0.6143   -4.3464 N   0  0  0  0  0  0  0  0  0  0  0  0
    0.4859    1.7801   -3.9499 N   0  0  0  0  0  0  0  0  0  0  0  0
    0.3339    2.9600   -4.7498 C   0  0  0  0  0  0  0  0  0  0  0  0
   -1.0430    3.5829   -4.5368 C   0  0  0  0  0  0  0  0  0  0  0  0
    1.0465    1.8142   -2.7637 N   0  0  0  0  0  0  0  0  0  0  0  0
    0.0251   -1.5724   -3.1096 C   0  0  0  0  0  0  0  0  0  0  0  0
    0.4583   -2.1909   -1.9035 C   0  0  0  0  0  0  0  0  0  0  0  0
    1.3030   -1.4871   -1.0205 C   0  0  0  0  0  0  0  0  0  0  0  0
    1.9785   -1.9265    0.1093 N   0  0  0  0  0  0  0  0  0  0  0  0
    2.6373   -3.2109    0.2316 C   0  0  0  0  0  0  0  0  0  0  0  0
    4.1275   -3.1046   -0.0931 C   0  0  0  0  0  0  0  0  0  0  0  0
   -0.0726   -3.4678   -1.8053 N   0  0  0  0  0  0  0  0  0  0  0  0
   -0.4140   -4.1389   -0.5682 C   0  0  0  0  0  0  0  0  0  0  0  0
   -1.8824   -3.9228   -0.2010 C   0  0  0  0  0  0  0  0  0  0  0  0
   -0.8236   -3.6685   -2.9452 C   0  0  0  0  0  0  0  0  0  0  0  0
   -0.7647   -2.5305   -3.7665 C   0  0  0  0  0  0  0  0  0  0  0  0
   -1.5197   -2.7099   -4.8828 N   0  0  0  0  0  0  0  0  0  0  0  0
   -1.7905   -1.7117   -5.8856 C   0  0  0  0  0  0  0  0  0  0  0  0
   -3.1403   -1.0353   -5.6537 C   0  0  0  0  0  0  0  0  0  0  0  0
   -2.1169   -3.9452   -4.7694 C   0  0  0  0  0  0  0  0  0  0  0  0
   -1.6826   -4.5937   -3.5623 C   0  0  0  0  0  0  0  0  0  0  0  0
   -2.1461   -5.8846   -3.2774 C   0  0  0  0  0  0  0  0  0  0  0  0
   -3.0413   -6.4706   -4.1296 C   0  0  0  0  0  0  0  0  0  0  0  0
   -3.5382   -5.7987   -5.2755 C   0  0  0  0  0  0  0  0  0  0  0  0
   -3.0253   -4.5411   -5.6150 C   0  0  0  0  0  0  0  0  0  0  0  0
   -4.5429   -6.4554   -6.0455 C   0  0  0  0  0  0  0  0  0  0  0  0
   -5.5409   -5.9132   -6.8091 C   0  0  0  0  0  0  0  0  0  0  0  0
   -6.0110   -4.5009   -6.7903 C   0  0  0  0  0  0  0  0  0  0  0  0
   -5.5166   -3.5416   -6.2342 O   0  0  0  0  0  0  0  0  0  0  0  0
   -7.2758   -4.5117   -7.5406 C   0  0  0  0  0  0  0  0  0  0  0  0
   -8.2312   -3.6133   -7.8862 C   0  0  0  0  0  0  0  0  0  0  0  0
   -9.4784   -4.3728   -8.8069 S   0  0  0  0  0  0  0  0  0  0  0  0
   -8.7046   -5.9133   -8.7226 C   0  0  0  0  0  0  0  0  0  0  0  0
   -7.5437   -5.8338   -8.0175 C   0  0  0  0  0  0  0  0  0  0  0  0
   -6.4699   -6.7096   -7.5954 C   0  0  0  0  0  0  0  0  0  0  0  0
   -6.3688   -8.0315   -7.9476 C   0  0  0  0  0  0  0  0  0  0  0  0
   -5.3106   -8.9003   -7.6207 C   0  0  0  0  0  0  0  0  0  0  0  0
   -4.4814   -9.6661   -7.4050 N   0  0  0  0  0  0  0  0  0  0  0  0
   -7.3637   -8.6538   -8.7282 C   0  0  0  0  0  0  0  0  0  0  0  0
   -8.1699   -9.1747   -9.3581 N   0  0  0  0  0  0  0  0  0  0  0  0
    5.5321    1.4753    5.6006 H   0  0  0  0  0  0  0  0  0  0  0  0
    0.6424    5.3046    5.7201 H   0  0  0  0  0  0  0  0  0  0  0  0
    4.5643    5.6969    8.9019 H   0  0  0  0  0  0  0  0  0  0  0  0
    1.7381    7.0716   10.2889 H   0  0  0  0  0  0  0  0  0  0  0  0
    2.9656    9.2014    9.8925 H   0  0  0  0  0  0  0  0  0  0  0  0
    3.8733    9.0927    7.4433 H   0  0  0  0  0  0  0  0  0  0  0  0
    1.7983    8.9149    5.7942 H   0  0  0  0  0  0  0  0  0  0  0  0
   -0.3892    8.9131    7.2287 H   0  0  0  0  0  0  0  0  0  0  0  0
    0.9962   10.5667    8.7643 H   0  0  0  0  0  0  0  0  0  0  0  0
    0.2768    9.3131    9.8058 H   0  0  0  0  0  0  0  0  0  0  0  0
   -0.2781    6.8977    8.6873 H   0  0  0  0  0  0  0  0  0  0  0  0
    4.7390   -0.6698    4.8415 H   0  0  0  0  0  0  0  0  0  0  0  0
    3.7632   -2.0663    3.0725 H   0  0  0  0  0  0  0  0  0  0  0  0
    3.8177    2.9069    2.6674 H   0  0  0  0  0  0  0  0  0  0  0  0
    2.1356    2.7951   -0.8931 H   0  0  0  0  0  0  0  0  0  0  0  0
    3.2563    3.4234    0.3425 H   0  0  0  0  0  0  0  0  0  0  0  0
    0.2847    2.8108    0.7568 H   0  0  0  0  0  0  0  0  0  0  0  0
    0.9986    4.4214    0.6302 H   0  0  0  0  0  0  0  0  0  0  0  0
    1.3776    3.3915    2.0181 H   0  0  0  0  0  0  0  0  0  0  0  0
    1.1212    3.6563   -4.4550 H   0  0  0  0  0  0  0  0  0  0  0  0
    0.4616    2.6724   -5.7958 H   0  0  0  0  0  0  0  0  0  0  0  0
   -1.1469    4.4713   -5.1530 H   0  0  0  0  0  0  0  0  0  0  0  0
   -1.1718    3.8617   -3.4937 H   0  0  0  0  0  0  0  0  0  0  0  0
   -1.8194    2.8723   -4.8095 H   0  0  0  0  0  0  0  0  0  0  0  0
    2.1802   -3.9105   -0.4680 H   0  0  0  0  0  0  0  0  0  0  0  0
    2.5064   -3.5828    1.2537 H   0  0  0  0  0  0  0  0  0  0  0  0
    4.2630   -2.7286   -1.1049 H   0  0  0  0  0  0  0  0  0  0  0  0
    4.6276   -2.4303    0.5969 H   0  0  0  0  0  0  0  0  0  0  0  0
    4.5893   -4.0857   -0.0206 H   0  0  0  0  0  0  0  0  0  0  0  0
   -0.2093   -5.2086   -0.6808 H   0  0  0  0  0  0  0  0  0  0  0  0
    0.2007   -3.7392    0.2357 H   0  0  0  0  0  0  0  0  0  0  0  0
   -2.0998   -4.4175    0.7419 H   0  0  0  0  0  0  0  0  0  0  0  0
   -2.0855   -2.8596   -0.0921 H   0  0  0  0  0  0  0  0  0  0  0  0
   -2.5402   -4.3247   -0.9666 H   0  0  0  0  0  0  0  0  0  0  0  0
   -0.9917   -0.9684   -5.8257 H   0  0  0  0  0  0  0  0  0  0  0  0
   -1.7704   -2.1858   -6.8715 H   0  0  0  0  0  0  0  0  0  0  0  0
   -3.1486   -0.5524   -4.6794 H   0  0  0  0  0  0  0  0  0  0  0  0
   -3.3080   -0.2807   -6.4172 H   0  0  0  0  0  0  0  0  0  0  0  0
   -3.9494   -1.7603   -5.6928 H   0  0  0  0  0  0  0  0  0  0  0  0
   -1.8015   -6.4077   -2.3977 H   0  0  0  0  0  0  0  0  0  0  0  0
   -3.4181   -7.4594   -3.9135 H   0  0  0  0  0  0  0  0  0  0  0  0
   -3.3241   -4.0624   -6.5309 H   0  0  0  0  0  0  0  0  0  0  0  0
   -4.5449   -7.5359   -5.9519 H   0  0  0  0  0  0  0  0  0  0  0  0
   -8.2866   -2.5659   -7.6672 H   0  0  0  0  0  0  0  0  0  0  0  0
   -9.1648   -6.7591   -9.1923 H   0  0  0  0  0  0  0  0  0  0  0  0
  1  2  2  0  0  0  0
  2  3  1  0  0  0  0
  3  4  2  0  0  0  0
  3  5  1  0  0  0  0
  5  6  2  0  0  0  0
  6  7  1  0  0  0  0
  7  8  2  0  0  0  0
  8  9  1  0  0  0  0
  9 10  2  0  0  0  0
 10 11  1  0  0  0  0
 11 12  2  0  0  0  0
 12 13  1  0  0  0  0
 13 14  3  0  0  0  0
 12 15  1  0  0  0  0
 15 16  3  0  0  0  0
  8 17  1  0  0  0  0
 17 18  1  0  0  0  0
 18 19  1  0  0  0  0
 19 20  2  0  0  0  0
 20 21  1  0  0  0  0
 21 22  1  0  0  0  0
 21 23  1  0  0  0  0
  1 24  1  0  0  0  0
 24 25  2  0  0  0  0
 25 26  1  0  0  0  0
 26 27  2  0  0  0  0
 27 28  1  0  0  0  0
 28 29  2  0  0  0  0
 29 30  1  0  0  0  0
 30 31  1  0  0  0  0
 31 32  2  0  0  0  0
 30 33  1  0  0  0  0
 33 34  1  0  0  0  0
 29 35  1  0  0  0  0
 35 36  1  0  0  0  0
 36 37  1  0  0  0  0
 37 38  2  0  0  0  0
 38 39  1  0  0  0  0
 39 40  1  0  0  0  0
 40 41  1  0  0  0  0
 39 42  1  0  0  0  0
 37 43  1  0  0  0  0
 43 44  2  0  0  0  0
 44 45  1  0  0  0  0
 45 46  1  0  0  0  0
 46 47  1  0  0  0  0
 47 48  1  0  0  0  0
 44 49  1  0  0  0  0
 49 50  1  0  0  0  0
 50 51  1  0  0  0  0
 49 52  1  0  0  0  0
 52 53  2  0  0  0  0
 53 54  1  0  0  0  0
 54 55  1  0  0  0  0
 55 56  1  0  0  0  0
 54 57  1  0  0  0  0
 57 58  2  0  0  0  0
 58 59  1  0  0  0  0
 59 60  2  0  0  0  0
 60 61  1  0  0  0  0
 61 62  2  0  0  0  0
 61 63  1  0  0  0  0
 63 64  2  0  0  0  0
 64 65  1  0  0  0  0
 65 66  2  0  0  0  0
 65 67  1  0  0  0  0
 67 68  2  0  0  0  0
 68 69  1  0  0  0  0
 69 70  1  0  0  0  0
 70 71  2  0  0  0  0
 71 72  1  0  0  0  0
 72 73  2  0  0  0  0
 73 74  1  0  0  0  0
 74 75  3  0  0  0  0
 73 76  1  0  0  0  0
 76 77  3  0  0  0  0
 11  2  1  0  0  0  0
 23 17  1  0  0  0  0
 32 24  1  0  0  0  0
 45 35  2  0  0  0  0
 58 52  1  0  0  0  0
 72 64  1  0  0  0  0
 10  5  1  0  0  0  0
 22 18  1  0  0  0  0
 31 27  1  0  0  0  0
 42 36  2  0  0  0  0
 53 43  1  0  0  0  0
 62 57  1  0  0  0  0
 71 67  1  0  0  0  0
 23  7  1  0  0  0  0
 46 28  1  0  0  0  0
  1 78  1  0  0  0  0
  6 79  1  0  0  0  0
  9 80  1  0  0  0  0
 17 81  1  0  0  0  0
 18 82  1  0  0  0  0
 19 83  1  0  0  0  0
 20 84  1  0  0  0  0
 21 85  1  0  0  0  0
 22 86  1  0  0  0  0
 22 87  1  0  0  0  0
 23 88  1  0  0  0  0
 25 89  1  0  0  0  0
 26 90  1  0  0  0  0
 32 91  1  0  0  0  0
 33 92  1  0  0  0  0
 33 93  1  0  0  0  0
 34 94  1  0  0  0  0
 34 95  1  0  0  0  0
 34 96  1  0  0  0  0
 40 97  1  0  0  0  0
 40 98  1  0  0  0  0
 41 99  1  0  0  0  0
 41100  1  0  0  0  0
 41101  1  0  0  0  0
 47102  1  0  0  0  0
 47103  1  0  0  0  0
 48104  1  0  0  0  0
 48105  1  0  0  0  0
 48106  1  0  0  0  0
 50107  1  0  0  0  0
 50108  1  0  0  0  0
 51109  1  0  0  0  0
 51110  1  0  0  0  0
 51111  1  0  0  0  0
 55112  1  0  0  0  0
 55113  1  0  0  0  0
 56114  1  0  0  0  0
 56115  1  0  0  0  0
 56116  1  0  0  0  0
 59117  1  0  0  0  0
 60118  1  0  0  0  0
 62119  1  0  0  0  0
 63120  1  0  0  0  0
 68121  1  0  0  0  0
 70122  1  0  0  0  0
M  END
