110

C          4.99080        2.03440       -1.44810
C          4.94040        3.12190       -2.26320
C          3.81890        4.09670       -2.26180
O          2.94650        4.22070       -1.43010
C          3.90490        4.78990       -3.55970
C          2.99990        5.72040       -4.06560
C          3.29760        6.15820       -5.33330
C          4.41440        5.70550       -6.05000
C          5.31980        4.79430       -5.56090
C          5.03280        4.33310       -4.27300
C          5.73100        3.34780       -3.45670
C          6.95480        2.78910       -3.71340
C          7.61460        1.91360       -2.82500
N          8.20690        1.21610       -2.13160
C          7.72540        3.05180       -4.86420
N          8.39360        3.22450       -5.78160
C          4.06720        6.52860       -7.26470
C          3.42300        5.79390       -8.46700
C          2.71240        4.58780       -7.90440
C          1.65800        5.01910       -7.22520
C          1.63650        6.52510       -7.31650
C          2.22260        6.71890       -8.72400
C          2.82580        7.03560       -6.46500
C          4.24390        1.87510       -0.24660
C          4.07280        2.72560        0.83040
C          4.79660        4.02180        1.01620
C          3.85360        5.18830        1.30180
C          3.25170        2.14460        1.81360
Se         2.60240        2.73750        3.49180
C          1.68410        1.12140        3.53980
C          0.76510        0.44120        4.35320
C          0.24920        0.74240        5.63240
C         -0.67960       -0.16740        6.23590
N         -1.05360        0.21480        7.44600
S         -0.29840        1.60640        7.79710
N          0.53000        1.77230        6.41440
C         -1.15390       -1.25940        5.47630
C         -2.23650       -2.11800        5.69800
Se        -3.52710       -2.42540        6.99870
C         -4.29600       -3.58880        5.71880
C         -5.46920       -4.34340        5.71410
C         -6.38550       -4.41700        6.89010
C         -5.91290       -5.49850        7.86460
C         -5.66540       -4.98940        4.49610
S         -4.33450       -4.68740        3.37900
C         -3.55830       -3.66060        4.52630
C         -2.41720       -2.85600        4.51740
N         -1.46040       -2.50380        3.60050
C         -0.66610       -1.52900        4.16760
C          0.40790       -0.75120        3.66740
N          1.15430       -0.83050        2.50420
C          1.90830        0.31260        2.42070
C          2.79080        0.86470        1.48440
S          3.43380        0.33000       -0.02220
C          1.59740       -2.02180        1.81230
C          2.96400       -2.47780        2.32390
C         -1.59520       -2.89330        2.21450
C         -1.16010       -4.33940        1.97740
C         -6.71970       -5.85580        4.15630
C         -7.10960       -6.28550        2.91720
C         -7.87450       -7.54620        2.78040
O         -8.40270       -8.18270        3.66330
C         -7.79830       -7.88610        1.33800
C         -8.25720       -9.01570        0.69230
C         -8.04660       -9.12420       -0.67780
Cl        -8.59150      -10.50870       -1.54160
C         -7.38550       -8.09740       -1.35500
F         -7.17500       -8.21620       -2.67200
C         -6.93260       -6.95320       -0.71640
C         -7.14280       -6.85010        0.64830
C         -6.83730       -5.77860        1.59350
C         -6.61930       -4.46630        1.25510
C         -6.68160       -3.41100        2.18890
N         -6.78250       -2.52380        2.91060
C         -6.39110       -4.01800       -0.05940
N         -6.15820       -3.60390       -1.10480
H          5.56760        1.17050       -1.76020
H          2.14830        6.03790       -3.48440
H          6.16980        4.44610       -6.12420
H          4.80950        7.26080       -7.57530
H          4.09960        5.60820       -9.29680
H          3.06990        3.57990       -8.00750
H          0.95880        4.44370       -6.64720
H          0.68620        7.00540       -7.09890
H          1.56510        6.34680       -9.50820
H          2.50570        7.74840       -8.93860
H          2.75690        8.10020       -6.25070
H          5.39230        4.23580        0.12790
H          5.48100        3.90060        1.86300
H          4.42030        6.11390        1.36460
H          3.11930        5.27500        0.50640
H          3.33060        5.03950        2.24690
H         -6.36780       -3.44740        7.39670
H         -7.40690       -4.61990        6.56930
H         -5.91870       -6.47560        7.38680
H         -4.90070       -5.28250        8.20170
H         -6.56790       -5.53130        8.73080
H          1.65680       -1.79670        0.74300
H          0.88390       -2.82160        1.97320
H          3.72070       -1.71940        2.14400
H          3.26010       -3.38770        1.80960
H          2.91850       -2.67760        3.39270
H         -2.65290       -2.79800        1.94350
H         -1.03450       -2.19360        1.59420
H         -0.15890       -4.52750        2.35960
H         -1.17710       -4.55650        0.91330
H         -1.84050       -5.02300        2.47780
H         -7.24250       -6.32020        4.98610
H         -8.76740       -9.79300        1.23820
H         -6.42910       -6.19340       -1.29210
