105

C          0.90710       -5.40440       -1.42830
C          2.16030       -5.93460       -1.30530
C          3.36830       -5.12440       -1.03050
O          3.41650       -3.93380       -0.79600
C          4.51420       -6.01950       -1.27210
C          5.86380       -5.69610       -1.15650
C          6.71540       -6.72460       -1.48040
C          6.25960       -7.98230       -1.89770
C          4.93100       -8.31470       -2.01700
C          4.04730       -7.28290       -1.68830
C          2.58750       -7.25940       -1.69850
C          1.76170       -8.32550       -1.95060
C          2.20520       -9.61100       -2.32020
N          2.49950      -10.67630       -2.63230
C          0.35630       -8.28300       -1.84410
N         -0.78800       -8.32700       -1.75230
C          7.65790       -8.51610       -2.08200
C          8.20760       -8.61320       -3.52680
C          7.48260       -7.56510       -4.33410
C          7.91460       -6.37620       -3.93540
C          8.93960       -6.59890       -2.85090
C          9.56450       -7.91680       -3.33570
C          8.16570       -7.11620       -1.61290
C          0.43060       -4.17680       -0.89910
C         -0.43310       -3.31770       -1.60150
C         -0.65820       -2.23970       -0.76260
C         -0.01570       -2.50710        0.46670
N          0.67740       -3.66420        0.36120
C          1.33750       -4.32500        1.46400
C          2.53060       -3.52940        1.98200
C         -0.40570       -1.48800        1.36090
C         -0.28970       -1.32600        2.76140
C         -0.92150       -0.20090        3.39750
N         -0.79440       -0.22140        4.71360
S          0.04470       -1.53940        5.13180
N          0.27970       -2.13560        3.64290
C         -1.52060        0.79440        2.59480
C         -2.01330        2.07070        2.89590
S         -2.28790        3.07600        4.27600
C         -2.77850        4.36950        3.19720
C         -3.18600        5.67490        3.42870
C         -3.27100        6.26740        4.79710
C         -1.98290        7.01730        5.14790
C         -3.43360        6.35600        2.22220
S         -3.17050        5.32670        0.81210
C         -2.73020        4.01440        1.83640
C         -2.30650        2.69440        1.67460
N         -2.06460        1.83280        0.63610
C         -1.58690        0.65410        1.17910
C         -1.17730       -0.56570        0.59180
N         -1.34660       -1.05410       -0.69260
C         -2.43270       -0.79640       -1.61200
C         -1.92940       -0.37730       -2.99100
C         -1.85700        2.36110       -0.69620
C         -0.36960        2.45160       -1.02670
C         -3.82670        7.69460        2.17040
C         -4.05260        8.53370        1.10540
C         -3.92280        8.19340       -0.32090
O         -3.63390        7.11790       -0.81460
C         -4.22210        9.43930       -1.02240
S         -4.29100        9.94730       -2.65360
C         -4.72820       11.54310       -2.11610
Br        -5.02850       12.89720       -3.37520
C         -4.81760       11.67690       -0.75750
C         -4.52320       10.45520       -0.12760
C         -4.43630        9.92660        1.22440
C         -4.68640       10.66140        2.35540
C         -4.62110       10.19140        3.68130
N         -4.58780        9.87840        4.78650
C         -5.05280       12.02180        2.28580
N         -5.35010       13.12950        2.25150
H          0.18830       -5.92750       -2.04870
H          6.17320       -4.71350       -0.83600
H          4.59450       -9.28400       -2.34530
H          7.92130       -9.38300       -1.47940
H          8.21370       -9.61800       -3.94040
H          6.71260       -7.78710       -5.04950
H          7.57720       -5.40620       -4.25080
H          9.61280       -5.76990       -2.64890
H         10.19760       -8.39680       -2.59080
H         10.11490       -7.80360       -4.26850
H          8.75940       -7.06860       -0.70210
H         -0.76890       -3.47780       -2.60660
H          0.61160       -4.44360        2.27580
H          1.65460       -5.31340        1.12610
H          2.18910       -2.60430        2.43380
H          3.05230       -4.11210        2.73600
H          3.21430       -3.30010        1.17040
H         -3.41490        5.45480        5.51180
H         -4.12000        6.94780        4.87760
H         -2.06080        7.43390        6.14790
H         -1.13150        6.34150        5.11540
H         -1.80770        7.83120        4.44820
H         -3.09820       -0.05020       -1.17660
H         -3.00850       -1.72480       -1.71720
H         -1.33480       -1.17520       -3.42640
H         -1.30850        0.51220       -2.93620
H         -2.77380       -0.17800       -3.64550
H         -2.37690        1.76230       -1.44130
H         -2.29850        3.36040       -0.70840
H          0.13910        3.07870       -0.29810
H         -0.23740        2.89110       -2.01150
H          0.09090        1.46620       -1.01390
H         -3.95830        8.14030        3.14730
H         -5.07710       12.59640       -0.26650
