114

C         -0.81070        1.62970       -7.02620
C         -0.13880        2.81880       -6.88730
C          0.41290        3.36550       -5.64560
O          0.31260        2.90470       -4.51960
C          1.12560        4.59980       -6.01580
C          1.84350        5.44100       -5.16850
C          2.42540        6.51100       -5.80490
C          2.30620        6.72570       -7.18420
C          1.59910        5.90470       -8.03070
C          0.99310        4.81250       -7.40270
C          0.18100        3.73350       -7.96470
C         -0.21280        3.64190       -9.27630
C          0.10910        4.58430      -10.27510
N          0.32480        5.30730      -11.14090
C         -1.00630        2.61640       -9.83020
N         -1.64800        1.82410      -10.36140
C          3.14870        7.97640       -7.14390
C          2.39470        9.32050       -7.22140
C          3.38900       10.32410       -6.68330
C          3.49800       10.12300       -5.37630
C          2.57950        8.97970       -5.00900
C          1.44850        9.21520       -6.01840
C          3.27850        7.73920       -5.60500
C         -1.15550        0.65510       -6.08400
C         -1.79980       -0.54540       -6.42520
C         -2.17990       -0.97450       -7.80490
C         -0.99310       -1.62740       -8.51710
C         -2.00220       -1.35390       -5.31460
Se        -2.77950       -3.07460       -5.10580
C         -2.37800       -2.84050       -3.30490
C         -2.54070       -3.52130       -2.09370
C         -3.20210       -4.73800       -1.82320
C         -3.32980       -5.16270       -0.46400
N         -4.01290       -6.28960       -0.34330
S         -4.45700       -6.77550       -1.82580
N         -3.79200       -5.56310       -2.67320
C         -2.69330       -4.40680        0.54310
C         -2.54800       -4.67450        1.90750
Se        -3.08330       -5.95570        3.14540
C         -2.02090       -4.95870        4.36390
C         -1.74190       -5.12260        5.71390
C         -2.26180       -6.28030        6.50190
C         -1.23390       -7.41330        6.54570
C         -0.88740       -4.11620        6.19460
S         -0.44900       -2.96930        4.93010
C         -1.39920       -3.83880        3.78390
C         -1.70230       -3.68500        2.42580
N         -1.34150       -2.81790        1.42820
C         -1.95540       -3.22030        0.25940
C         -1.97550       -2.71010       -1.06810
N         -1.50720       -1.54580       -1.65450
C         -1.75410       -1.62430       -3.00280
C         -1.54340       -0.79320       -4.10990
S         -0.83270        0.75870       -4.35430
C         -1.32040       -0.23000       -1.08120
C         -2.66770        0.44380       -0.82610
C         -0.27090       -1.87430        1.65420
C         -0.75730       -0.60480        2.35260
C         -0.45390       -4.05240        7.52250
C          0.35570       -3.14760        8.16440
C          0.97290       -1.96150        7.57040
O          0.90480       -1.58020        6.41280
C          1.70380       -1.29120        8.66230
C          2.43510       -0.12310        8.60070
C          3.04210        0.33130        9.77300
O          3.78560        1.45490        9.87040
C          3.97580        2.24560        8.71890
C          2.89220       -0.40320       10.95790
C          2.15780       -1.57130       11.00790
C          1.54910       -2.03070        9.84560
C          0.72020       -3.19750        9.56900
C          0.36860       -4.15390       10.48900
C         -0.42170       -5.29370       10.23860
N         -1.05590       -6.24550       10.11890
C          0.76630       -4.12890       11.84190
N          1.05290       -4.17380       12.95310
H         -1.11670        1.37490       -8.03150
H          1.91770        5.23180       -4.11270
H          1.52470        6.08210       -9.09040
H          4.05150        7.95880       -7.75140
H          1.95300        9.53930       -8.18960
H          3.93420       11.01680       -7.29700
H          4.15270       10.61400       -4.68030
H          2.30560        8.88940       -3.96120
H          0.91660       10.14630       -5.83050
H          0.73540        8.39560       -6.08540
H          4.26840        7.56670       -5.18630
H         -2.98840       -1.70740       -7.71750
H         -2.54380       -0.13330       -8.39660
H         -0.64720       -2.49230       -7.95460
H         -1.29090       -1.95150       -9.51020
H         -0.16910       -0.92450       -8.61600
H         -3.16940       -6.64180        6.00780
H         -2.52080       -5.98460        7.51940
H         -0.99230       -7.74090        5.53650
H         -1.63660       -8.25540        7.10110
H         -0.31970       -7.08520        7.03460
H         -0.75020       -0.28020       -0.16120
H         -0.74800        0.35620       -1.80470
H         -3.22310        0.54130       -1.75580
H         -2.51170        1.43590       -0.41160
H         -3.26360       -0.14260       -0.12880
H          0.46460       -2.36310        2.30200
H          0.22120       -1.66590        0.70270
H         -1.61070       -0.16790        1.84070
H         -1.05300       -0.83540        3.37210
H          0.04660        0.12480        2.39100
H         -0.83680       -4.85840        8.13320
H          2.51500        0.39890        7.66060
H          4.59560        3.08200        9.03650
H          3.02490        2.62480        8.33260
H          4.49370        1.68860        7.93240
H          3.37360       -0.02310       11.84490
H          2.06870       -2.10300       11.94060
