190

C         -3.50430        7.91130        1.22500
C         -4.21980        8.30300        2.31630
C         -4.94010        9.60430        2.28390
O         -4.80290       10.48630        1.46590
C         -5.88170        9.56070        3.41910
C         -6.85540       10.50310        3.74480
C         -7.60030       10.17920        4.85330
C         -7.39870        9.00110        5.58530
C         -6.43790        8.06640        5.28160
C         -5.66400        8.38100        4.16100
C         -4.53250        7.66410        3.57480
C         -3.76240        6.73980        4.23380
C         -4.06980        6.20810        5.50210
N         -4.27760        5.71910        6.52020
C         -2.51770        6.27320        3.76540
N         -1.47840        5.89210        3.46070
C         -8.50600        9.32010        6.55830
C         -9.83850        8.56650        6.36310
C        -10.84310        9.40760        7.11700
C        -11.03300       10.52460        6.42650
C        -10.16020       10.45720        5.19390
C        -10.20330        8.94790        4.92250
C         -8.72930       10.63520        5.74460
C         -3.05740        6.62030        0.87120
C         -3.52180        5.38430        1.28810
C         -2.83000        4.33810        0.69330
S         -2.90010        2.61030        0.86560
C         -1.55510        2.46870       -0.21350
C         -0.76300        1.38990       -0.71800
C         -0.82890        0.01580       -0.44650
C         -1.81040       -0.49610        0.50730
C         -2.92630       -1.24400        0.29920
C         -3.64930       -1.49680        1.48590
C         -3.08110       -0.95150        2.59320
C         -3.60010       -0.92650        3.98910
C         -4.31140        0.39880        4.27440
S         -1.62260       -0.10760        2.19270
C          0.11680       -0.77830       -1.07010
C          0.29960       -2.28210       -0.95080
C          0.40170       -2.65780        0.51530
C         -0.60530       -3.33740        1.18570
C         -0.48310       -3.61370        2.53410
C          0.63790       -3.21500        3.25000
C          0.74140       -3.49070        4.72270
C         -0.17210       -2.55360        5.51370
C          1.63540       -2.52280        2.57770
C          1.52040       -2.24730        1.22880
C         -0.73520       -3.07760       -1.72660
C         -0.74020       -4.46470       -1.63090
C         -1.63760       -5.21560       -2.36450
C         -2.54860       -4.60710       -3.21900
C         -3.49700       -5.42910       -4.04350
C         -2.84580       -5.82620       -5.36970
C         -2.52150       -3.22430       -3.33130
C         -1.62340       -2.46680       -2.60020
C          1.60000       -2.46470       -1.69200
C          2.01580       -1.26560       -2.24690
C          1.13260       -0.20700       -1.86800
C          1.20250        1.16760       -2.13360
C          0.21190        1.95300       -1.57100
C          0.04570        3.46210       -1.66630
C         -0.45560        3.93300       -3.01880
C         -0.93660        3.04470       -3.97000
C         -1.43730        3.50900       -5.17330
C         -1.48630        4.86780       -5.45140
C         -1.98290        5.36530       -6.77810
C         -0.82910        5.46110       -7.77860
C         -1.02690        5.75430       -4.48540
C         -0.52490        5.29600       -3.28310
C          1.33410        4.12680       -1.21720
C          2.21750        4.71130       -2.11250
C          3.42300        5.22570       -1.67040
C          3.77520        5.17300       -0.32980
C          5.11150        5.66790        0.14270
C          6.07080        4.49400        0.34880
C          2.88080        4.59810        0.56440
C          1.67870        4.07780        0.12840
C         -1.09040        3.67890       -0.70050
C         -1.81360        4.75260       -0.18940
S         -1.76230        6.46610       -0.31050
C          2.31540        1.71070       -2.91060
C          2.33810        2.17840       -4.18610
C          3.62090        2.60850       -4.59270
C          4.56820        2.47450       -3.62860
C          6.02050        2.79770       -3.70390
C          6.87880        1.53820       -3.58330
S          3.89320        1.79580       -2.18310
S          3.47170       -1.38150       -3.17550
C          3.54820       -3.08110       -2.79440
C          4.45010       -4.08590       -3.08200
C          4.09390       -5.30410       -2.49880
S          2.59040       -5.18070       -1.59200
C          2.46790       -3.51110       -1.99350
C          4.89450       -6.44780       -2.63980
C          4.75790       -7.70240       -2.10610
C          3.67940       -8.14870       -1.21510
O          2.69460       -7.52090       -0.86690
C          4.01770       -9.52450       -0.81320
C          3.30490      -10.34070        0.06280
C          3.87600      -11.57370        0.26730
C          5.07130      -11.96420       -0.35060
C          5.78340      -11.16930       -1.21710
C          5.21680       -9.91120       -1.44450
C          5.68100       -8.80660       -2.28310
C          6.78420       -8.84310       -3.09740
C          7.63820       -9.95700       -3.23790
N          8.37670      -10.82010       -3.40710
C          7.23270       -7.79750       -3.93110
N          7.67040       -7.00790       -4.64220
C          5.06560      -13.31910        0.31220
C          4.62800      -14.51340       -0.56160
C          4.26090      -15.58110        0.44350
C          3.12790      -15.21280        1.02770
C          2.70970      -13.89010        0.42680
C          3.22610      -14.07600       -1.00580
C          3.73140      -12.88490        0.99970
H         -3.30490        8.69820        0.50380
H         -6.97730       11.39930        3.15700
H         -6.29290        7.16270        5.85040
H         -8.20970        9.39710        7.60270
H         -9.80340        7.50860        6.60870
H        -11.25550        9.13760        8.07140
H        -11.63590       11.37410        6.68890
H        -10.41930       11.12160        4.37400
H         -9.48430        8.61040        4.17820
H        -11.20010        8.60770        4.64650
H         -8.58200       11.58920        6.24710
H         -4.34840        5.25530        1.96320
H         -3.23080       -1.59400       -0.67110
H         -4.56290       -2.06460        1.51040
H         -2.77500       -1.04520        4.69400
H         -4.29770       -1.75570        4.12650
H         -5.14600        0.53470        3.59030
H         -4.68770        0.41510        5.29400
H         -3.62140        1.22950        4.14430
H         -1.49480       -3.64830        0.65960
H         -1.27630       -4.14810        3.03750
H          1.77310       -3.35340        5.05140
H          0.45460       -4.52540        4.92480
H         -1.21110       -2.72430        5.24150
H          0.07460       -1.51620        5.29780
H         -0.06150       -2.72370        6.58230
H          2.51390       -2.19420        3.11450
H          2.30660       -1.70240        0.72510
H         -0.03940       -4.96040       -0.97570
H         -1.62870       -6.29190       -2.27110
H         -4.40500       -4.85700       -4.24540
H         -3.77590       -6.33160       -3.49590
H         -3.53110       -6.42290       -5.96740
H         -1.94480       -6.40790       -5.18870
H         -2.57140       -4.93940       -5.93680
H         -3.21240       -2.72950       -3.99970
H         -1.61890       -1.39220       -2.71360
H         -0.92220        1.98230       -3.77330
H         -1.80090        2.80140       -5.90540
H         -2.74230        4.68490       -7.16890
H         -2.43620        6.35110       -6.65700
H         -0.37200        4.48470       -7.92380
H         -0.06660        6.14470       -7.41200
H         -1.18750        5.82310       -8.73940
H         -1.06750        6.81740       -4.67380
H         -0.17870        6.00240       -2.54270
H          1.97840        4.75330       -3.16420
H          4.10180        5.66720       -2.38670
H          4.99480        6.20490        1.08650
H          5.53330        6.35680       -0.59190
H          5.68320        3.81560        1.10480
H          7.04800        4.85000        0.66730
H          6.18790        3.93380       -0.57640
H          3.12930        4.55330        1.61470
H          1.00380        3.62430        0.84010
H          1.46910        2.21260       -4.81860
H          3.82630        3.00700       -5.57070
H          6.21890        3.29240       -4.65710
H          6.28570        3.49120       -2.90080
H          7.93390        1.78970       -3.65710
H          6.63060        0.83570       -4.37570
H          6.70080        1.05300       -2.62630
H          5.33780       -3.96520       -3.67670
H          5.76800       -6.27370       -3.25680
H          2.39340       -9.99380        0.52390
H          6.70510      -11.48460       -1.67620
H          5.92610      -13.54340        0.93960
H          5.33560      -14.79300       -1.33730
H          4.87220      -16.43770        0.65910
H          2.60380      -15.70030        1.82880
H          1.66890      -13.60330        0.55150
H          2.69670      -14.86690       -1.53470
H          3.21380      -13.16660       -1.60360
H          3.70200      -12.82080        2.08590
