
  xtb     02112202223D
 energy: -163.674115134674 gnorm: 0.000401427072 xtb: 6.4.1 (unknown)
 92105  0     0  0            999 V2000
    0.5795   -3.7841    1.7882 C   0  0  0  0  0  0  0  0  0  0  0  0
   -0.1788   -4.6080    0.9937 C   0  0  0  0  0  0  0  0  0  0  0  0
   -1.0155   -4.1958   -0.1350 C   0  0  0  0  0  0  0  0  0  0  0  0
   -1.1725   -3.0663   -0.5714 O   0  0  0  0  0  0  0  0  0  0  0  0
   -1.6485   -5.4200   -0.6529 C   0  0  0  0  0  0  0  0  0  0  0  0
   -2.5392   -5.5180   -1.7188 C   0  0  0  0  0  0  0  0  0  0  0  0
   -2.9698   -6.7983   -1.9716 C   0  0  0  0  0  0  0  0  0  0  0  0
   -2.5381   -7.9018   -1.2244 C   0  0  0  0  0  0  0  0  0  0  0  0
   -1.6577   -7.8184   -0.1716 C   0  0  0  0  0  0  0  0  0  0  0  0
   -1.2150   -6.5232    0.1098 C   0  0  0  0  0  0  0  0  0  0  0  0
   -0.3011   -6.0437    1.1465 C   0  0  0  0  0  0  0  0  0  0  0  0
    0.3103   -6.8344    2.0873 C   0  0  0  0  0  0  0  0  0  0  0  0
    1.1916   -6.3915    3.0950 C   0  0  0  0  0  0  0  0  0  0  0  0
    1.9169   -6.1203    3.9447 N   0  0  0  0  0  0  0  0  0  0  0  0
    0.1431   -8.2311    2.1899 C   0  0  0  0  0  0  0  0  0  0  0  0
    0.0574   -9.3660    2.3433 N   0  0  0  0  0  0  0  0  0  0  0  0
   -3.3750   -8.8704   -2.0217 C   0  0  0  0  0  0  0  0  0  0  0  0
   -4.6842   -9.3901   -1.3782 C   0  0  0  0  0  0  0  0  0  0  0  0
   -5.1323   -8.3298   -0.4033 C   0  0  0  0  0  0  0  0  0  0  0  0
   -5.5444   -7.2827   -1.1054 C   0  0  0  0  0  0  0  0  0  0  0  0
   -5.3831   -7.6164   -2.5679 C   0  0  0  0  0  0  0  0  0  0  0  0
   -5.6638   -9.1272   -2.5331 C   0  0  0  0  0  0  0  0  0  0  0  0
   -3.8603   -7.6398   -2.8510 C   0  0  0  0  0  0  0  0  0  0  0  0
    0.7759   -2.3999    1.7538 C   0  0  0  0  0  0  0  0  0  0  0  0
    1.5931   -1.7225    2.6756 C   0  0  0  0  0  0  0  0  0  0  0  0
    2.3951   -2.3574    3.7642 C   0  0  0  0  0  0  0  0  0  0  0  0
    3.7239   -2.8912    3.2223 C   0  0  0  0  0  0  0  0  0  0  0  0
    1.6142   -0.3573    2.4257 C   0  0  0  0  0  0  0  0  0  0  0  0
    0.8276    0.0383    1.3301 C   0  0  0  0  0  0  0  0  0  0  0  0
    0.0415   -1.3023    0.5834 S   0  0  0  0  0  0  0  0  0  0  0  0
    0.8762    1.4242    1.1545 C   0  0  0  0  0  0  0  0  0  0  0  0
    1.6880    2.0588    2.0990 C   0  0  0  0  0  0  0  0  0  0  0  0
    2.4201    0.9769    3.2321 S   0  0  0  0  0  0  0  0  0  0  0  0
    1.6569    3.4268    1.8061 C   0  0  0  0  0  0  0  0  0  0  0  0
    2.3394    4.4988    2.4198 C   0  0  0  0  0  0  0  0  0  0  0  0
    3.1737    4.4690    3.4473 N   0  0  0  0  0  0  0  0  0  0  0  0
    3.6954    5.9764    3.7250 S   0  0  0  0  0  0  0  0  0  0  0  0
    2.8750    6.7238    2.5459 N   0  0  0  0  0  0  0  0  0  0  0  0
    2.1640    5.8171    1.8936 C   0  0  0  0  0  0  0  0  0  0  0  0
    1.2743    6.0032    0.8141 C   0  0  0  0  0  0  0  0  0  0  0  0
    0.8708    7.1854    0.1790 C   0  0  0  0  0  0  0  0  0  0  0  0
    1.1736    8.8883    0.2579 S   0  0  0  0  0  0  0  0  0  0  0  0
   -0.0069    9.1287   -1.0073 C   0  0  0  0  0  0  0  0  0  0  0  0
   -0.4875   10.2681   -1.6602 C   0  0  0  0  0  0  0  0  0  0  0  0
   -1.4378    9.9660   -2.6060 C   0  0  0  0  0  0  0  0  0  0  0  0
   -1.7506    8.2401   -2.7009 S   0  0  0  0  0  0  0  0  0  0  0  0
   -0.5911    7.9385   -1.4550 C   0  0  0  0  0  0  0  0  0  0  0  0
   -0.0825    6.8252   -0.7745 C   0  0  0  0  0  0  0  0  0  0  0  0
   -0.2796    5.4730   -0.7511 N   0  0  0  0  0  0  0  0  0  0  0  0
   -1.2652    4.9134   -1.6444 C   0  0  0  0  0  0  0  0  0  0  0  0
   -0.6932    4.6977   -3.0461 C   0  0  0  0  0  0  0  0  0  0  0  0
    0.5582    4.9269    0.2080 C   0  0  0  0  0  0  0  0  0  0  0  0
    0.7938    3.6023    0.6792 C   0  0  0  0  0  0  0  0  0  0  0  0
    0.3549    2.3496    0.2917 N   0  0  0  0  0  0  0  0  0  0  0  0
   -0.4292    1.8698   -0.8222 C   0  0  0  0  0  0  0  0  0  0  0  0
   -1.8805    1.6042   -0.4214 C   0  0  0  0  0  0  0  0  0  0  0  0
   -2.1487   10.8581   -3.4555 C   0  0  0  0  0  0  0  0  0  0  0  0
   -3.1041   10.5476   -4.3993 C   0  0  0  0  0  0  0  0  0  0  0  0
   -3.6089   11.6669   -5.0637 C   0  0  0  0  0  0  0  0  0  0  0  0
   -3.0425   12.8440   -4.6328 C   0  0  0  0  0  0  0  0  0  0  0  0
   -3.3219   14.1318   -5.0880 C   0  0  0  0  0  0  0  0  0  0  0  0
   -3.5608   15.1889   -5.4682 N   0  0  0  0  0  0  0  0  0  0  0  0
   -1.8634   12.5706   -3.3828 S   0  0  0  0  0  0  0  0  0  0  0  0
    1.1235   -4.2694    2.5866 H   0  0  0  0  0  0  0  0  0  0  0  0
   -2.8410   -4.6418   -2.2712 H   0  0  0  0  0  0  0  0  0  0  0  0
   -1.3366   -8.6788    0.3910 H   0  0  0  0  0  0  0  0  0  0  0  0
   -2.8296   -9.6539   -2.5439 H   0  0  0  0  0  0  0  0  0  0  0  0
   -4.6256  -10.4039   -0.9914 H   0  0  0  0  0  0  0  0  0  0  0  0
   -5.0518   -8.4253    0.6637 H   0  0  0  0  0  0  0  0  0  0  0  0
   -5.8770   -6.3280   -0.7418 H   0  0  0  0  0  0  0  0  0  0  0  0
   -5.9625   -7.0154   -3.2640 H   0  0  0  0  0  0  0  0  0  0  0  0
   -5.3948   -9.6400   -3.4556 H   0  0  0  0  0  0  0  0  0  0  0  0
   -6.6953   -9.3580   -2.2712 H   0  0  0  0  0  0  0  0  0  0  0  0
   -3.6363   -7.6220   -3.9160 H   0  0  0  0  0  0  0  0  0  0  0  0
    2.5988   -1.5990    4.5227 H   0  0  0  0  0  0  0  0  0  0  0  0
    1.8433   -3.1724    4.2351 H   0  0  0  0  0  0  0  0  0  0  0  0
    4.2983   -3.3352    4.0302 H   0  0  0  0  0  0  0  0  0  0  0  0
    4.3042   -2.0838    2.7817 H   0  0  0  0  0  0  0  0  0  0  0  0
    3.5533   -3.6517    2.4640 H   0  0  0  0  0  0  0  0  0  0  0  0
   -0.1614   11.2713   -1.4543 H   0  0  0  0  0  0  0  0  0  0  0  0
   -1.6724    3.9988   -1.2251 H   0  0  0  0  0  0  0  0  0  0  0  0
   -2.0843    5.6374   -1.7101 H   0  0  0  0  0  0  0  0  0  0  0  0
   -0.4381    5.6549   -3.4938 H   0  0  0  0  0  0  0  0  0  0  0  0
    0.2093    4.0902   -3.0176 H   0  0  0  0  0  0  0  0  0  0  0  0
   -1.4299    4.2079   -3.6767 H   0  0  0  0  0  0  0  0  0  0  0  0
    0.0164    0.9220   -1.1413 H   0  0  0  0  0  0  0  0  0  0  0  0
   -0.3528    2.5632   -1.6548 H   0  0  0  0  0  0  0  0  0  0  0  0
   -1.9244    0.7692    0.2726 H   0  0  0  0  0  0  0  0  0  0  0  0
   -2.3274    2.4702    0.0636 H   0  0  0  0  0  0  0  0  0  0  0  0
   -2.4648    1.3467   -1.3003 H   0  0  0  0  0  0  0  0  0  0  0  0
   -3.4206    9.5382   -4.5942 H   0  0  0  0  0  0  0  0  0  0  0  0
   -4.3601   11.6297   -5.8324 H   0  0  0  0  0  0  0  0  0  0  0  0
  1  2  2  0  0  0  0
  2  3  1  0  0  0  0
  3  4  2  0  0  0  0
  3  5  1  0  0  0  0
  5  6  2  0  0  0  0
  6  7  1  0  0  0  0
  7  8  2  0  0  0  0
  8  9  1  0  0  0  0
  9 10  2  0  0  0  0
 10 11  1  0  0  0  0
 11 12  2  0  0  0  0
 12 13  1  0  0  0  0
 13 14  3  0  0  0  0
 12 15  1  0  0  0  0
 15 16  3  0  0  0  0
  8 17  1  0  0  0  0
 17 18  1  0  0  0  0
 18 19  1  0  0  0  0
 19 20  2  0  0  0  0
 20 21  1  0  0  0  0
 21 22  1  0  0  0  0
 21 23  1  0  0  0  0
  1 24  1  0  0  0  0
 24 25  2  0  0  0  0
 25 26  1  0  0  0  0
 26 27  1  0  0  0  0
 25 28  1  0  0  0  0
 28 29  2  0  0  0  0
 29 30  1  0  0  0  0
 29 31  1  0  0  0  0
 31 32  2  0  0  0  0
 32 33  1  0  0  0  0
 32 34  1  0  0  0  0
 34 35  1  0  0  0  0
 35 36  2  0  0  0  0
 36 37  1  0  0  0  0
 37 38  1  0  0  0  0
 38 39  2  0  0  0  0
 39 40  1  0  0  0  0
 40 41  1  0  0  0  0
 41 42  1  0  0  0  0
 42 43  1  0  0  0  0
 43 44  1  0  0  0  0
 44 45  2  0  0  0  0
 45 46  1  0  0  0  0
 46 47  1  0  0  0  0
 47 48  1  0  0  0  0
 48 49  1  0  0  0  0
 49 50  1  0  0  0  0
 50 51  1  0  0  0  0
 49 52  1  0  0  0  0
 52 53  1  0  0  0  0
 53 54  1  0  0  0  0
 54 55  1  0  0  0  0
 55 56  1  0  0  0  0
 45 57  1  0  0  0  0
 57 58  2  0  0  0  0
 58 59  1  0  0  0  0
 59 60  2  0  0  0  0
 60 61  1  0  0  0  0
 61 62  3  0  0  0  0
 60 63  1  0  0  0  0
 11  2  1  0  0  0  0
 23 17  1  0  0  0  0
 30 24  1  0  0  0  0
 54 31  1  0  0  0  0
 63 57  1  0  0  0  0
 10  5  1  0  0  0  0
 22 18  1  0  0  0  0
 33 28  1  0  0  0  0
 53 34  2  0  0  0  0
 23  7  1  0  0  0  0
 39 35  1  0  0  0  0
 52 40  2  0  0  0  0
 48 41  2  0  0  0  0
 47 43  2  0  0  0  0
  1 64  1  0  0  0  0
  6 65  1  0  0  0  0
  9 66  1  0  0  0  0
 17 67  1  0  0  0  0
 18 68  1  0  0  0  0
 19 69  1  0  0  0  0
 20 70  1  0  0  0  0
 21 71  1  0  0  0  0
 22 72  1  0  0  0  0
 22 73  1  0  0  0  0
 23 74  1  0  0  0  0
 26 75  1  0  0  0  0
 26 76  1  0  0  0  0
 27 77  1  0  0  0  0
 27 78  1  0  0  0  0
 27 79  1  0  0  0  0
 44 80  1  0  0  0  0
 50 81  1  0  0  0  0
 50 82  1  0  0  0  0
 51 83  1  0  0  0  0
 51 84  1  0  0  0  0
 51 85  1  0  0  0  0
 55 86  1  0  0  0  0
 55 87  1  0  0  0  0
 56 88  1  0  0  0  0
 56 89  1  0  0  0  0
 56 90  1  0  0  0  0
 58 91  1  0  0  0  0
 59 92  1  0  0  0  0
M  END
