
  xtb     02112200543D
 energy: -231.246699954781 gnorm: 0.000332159506 xtb: 6.4.1 (unknown)
134149  0     0  0            999 V2000
    2.3598    5.3980    2.5723 C   0  0  0  0  0  0  0  0  0  0  0  0
    2.3932    5.4305    3.9435 C   0  0  0  0  0  0  0  0  0  0  0  0
    1.8383    4.4230    4.8518 C   0  0  0  0  0  0  0  0  0  0  0  0
    1.4359    3.3063    4.5697 O   0  0  0  0  0  0  0  0  0  0  0  0
    1.8424    5.0311    6.1935 C   0  0  0  0  0  0  0  0  0  0  0  0
    1.3139    4.4889    7.3629 C   0  0  0  0  0  0  0  0  0  0  0  0
    1.4194    5.3127    8.4578 C   0  0  0  0  0  0  0  0  0  0  0  0
    2.0090    6.5821    8.3954 C   0  0  0  0  0  0  0  0  0  0  0  0
    2.5390    7.1266    7.2496 C   0  0  0  0  0  0  0  0  0  0  0  0
    2.4416    6.3048    6.1231 C   0  0  0  0  0  0  0  0  0  0  0  0
    2.8606    6.5449    4.7433 C   0  0  0  0  0  0  0  0  0  0  0  0
    3.6092    7.6109    4.3135 C   0  0  0  0  0  0  0  0  0  0  0  0
    4.0754    7.7995    2.9961 C   0  0  0  0  0  0  0  0  0  0  0  0
    4.5057    8.0149    1.9524 N   0  0  0  0  0  0  0  0  0  0  0  0
    4.0602    8.6555    5.1465 C   0  0  0  0  0  0  0  0  0  0  0  0
    4.4604    9.5361    5.7654 N   0  0  0  0  0  0  0  0  0  0  0  0
    1.7601    6.8582    9.8572 C   0  0  0  0  0  0  0  0  0  0  0  0
    2.9711    6.7196   10.8037 C   0  0  0  0  0  0  0  0  0  0  0  0
    2.3443    6.5732   12.1715 C   0  0  0  0  0  0  0  0  0  0  0  0
    1.7843    5.3718   12.2321 C   0  0  0  0  0  0  0  0  0  0  0  0
    2.0236    4.6856   10.9065 C   0  0  0  0  0  0  0  0  0  0  0  0
    3.3980    5.2677   10.5520 C   0  0  0  0  0  0  0  0  0  0  0  0
    1.1022    5.4426    9.9271 C   0  0  0  0  0  0  0  0  0  0  0  0
    1.8854    4.4174    1.6933 C   0  0  0  0  0  0  0  0  0  0  0  0
    1.7971    4.6096    0.3045 C   0  0  0  0  0  0  0  0  0  0  0  0
    2.2367    5.8250   -0.4449 C   0  0  0  0  0  0  0  0  0  0  0  0
    3.7416    5.7800   -0.7238 C   0  0  0  0  0  0  0  0  0  0  0  0
    1.2691    3.4921   -0.3283 C   0  0  0  0  0  0  0  0  0  0  0  0
    0.8556    3.1717   -2.0027 S   0  0  0  0  0  0  0  0  0  0  0  0
    0.2733    1.6172   -1.5252 C   0  0  0  0  0  0  0  0  0  0  0  0
   -0.3824    0.5159   -2.0921 C   0  0  0  0  0  0  0  0  0  0  0  0
   -0.9458    0.3769   -3.3848 C   0  0  0  0  0  0  0  0  0  0  0  0
   -0.8740    1.3663   -4.2727 N   0  0  0  0  0  0  0  0  0  0  0  0
   -1.4861    1.2150   -5.4368 C   0  0  0  0  0  0  0  0  0  0  0  0
   -1.5017    2.4032   -6.2666 C   0  0  0  0  0  0  0  0  0  0  0  0
   -2.8981    2.8906   -7.1805 S   0  0  0  0  0  0  0  0  0  0  0  0
   -2.1322    4.3535   -7.6942 C   0  0  0  0  0  0  0  0  0  0  0  0
   -2.7992    5.3091   -8.6216 C   0  0  0  0  0  0  0  0  0  0  0  0
   -3.0147    4.6843  -10.0007 C   0  0  0  0  0  0  0  0  0  0  0  0
   -0.8802    4.4262   -7.1563 C   0  0  0  0  0  0  0  0  0  0  0  0
   -0.5156    3.3466   -6.3316 C   0  0  0  0  0  0  0  0  0  0  0  0
   -0.0550    5.4623   -7.3931 F   0  0  0  0  0  0  0  0  0  0  0  0
   -2.1108   -0.0202   -5.7721 C   0  0  0  0  0  0  0  0  0  0  0  0
   -2.6081   -0.3636   -7.0871 C   0  0  0  0  0  0  0  0  0  0  0  0
   -3.6246   -1.2410   -7.3467 C   0  0  0  0  0  0  0  0  0  0  0  0
   -3.8284   -1.4093   -8.7272 C   0  0  0  0  0  0  0  0  0  0  0  0
   -4.7947   -2.2052   -9.2216 F   0  0  0  0  0  0  0  0  0  0  0  0
   -2.9746   -0.7126   -9.5329 C   0  0  0  0  0  0  0  0  0  0  0  0
   -2.9582   -0.6371  -11.0201 C   0  0  0  0  0  0  0  0  0  0  0  0
   -3.3841    0.7500  -11.5048 C   0  0  0  0  0  0  0  0  0  0  0  0
   -1.8756    0.1998   -8.5590 S   0  0  0  0  0  0  0  0  0  0  0  0
   -2.2454   -0.9744   -4.8627 N   0  0  0  0  0  0  0  0  0  0  0  0
   -1.7094   -0.7847   -3.6592 C   0  0  0  0  0  0  0  0  0  0  0  0
   -1.7999   -1.7772   -2.6509 C   0  0  0  0  0  0  0  0  0  0  0  0
   -2.3847   -3.0510   -2.7060 C   0  0  0  0  0  0  0  0  0  0  0  0
   -3.3032   -4.0167   -3.8057 S   0  0  0  0  0  0  0  0  0  0  0  0
   -3.2499   -5.3296   -2.6455 C   0  0  0  0  0  0  0  0  0  0  0  0
   -3.7630   -6.6233   -2.6697 C   0  0  0  0  0  0  0  0  0  0  0  0
   -4.5136   -7.1719   -3.8400 C   0  0  0  0  0  0  0  0  0  0  0  0
   -3.5814   -7.9539   -4.7687 C   0  0  0  0  0  0  0  0  0  0  0  0
   -3.4331   -7.3251   -1.5045 C   0  0  0  0  0  0  0  0  0  0  0  0
   -2.4923   -6.3473   -0.3803 S   0  0  0  0  0  0  0  0  0  0  0  0
   -2.5489   -5.0143   -1.4715 C   0  0  0  0  0  0  0  0  0  0  0  0
   -2.0680   -3.7006   -1.5098 C   0  0  0  0  0  0  0  0  0  0  0  0
   -1.3488   -2.8631   -0.6950 N   0  0  0  0  0  0  0  0  0  0  0  0
   -0.5462   -3.4537    0.3543 C   0  0  0  0  0  0  0  0  0  0  0  0
    0.8143   -3.8916   -0.1844 C   0  0  0  0  0  0  0  0  0  0  0  0
   -1.1752   -1.6699   -1.3753 C   0  0  0  0  0  0  0  0  0  0  0  0
   -0.5636   -0.4358   -1.0458 C   0  0  0  0  0  0  0  0  0  0  0  0
   -0.0858    0.1089    0.1267 N   0  0  0  0  0  0  0  0  0  0  0  0
    0.4209    1.3494   -0.1597 C   0  0  0  0  0  0  0  0  0  0  0  0
    0.9727    2.4266    0.5396 C   0  0  0  0  0  0  0  0  0  0  0  0
    1.3126    2.8209    2.1819 S   0  0  0  0  0  0  0  0  0  0  0  0
   -0.2851   -0.2830    1.5026 C   0  0  0  0  0  0  0  0  0  0  0  0
    1.0019   -0.8010    2.1422 C   0  0  0  0  0  0  0  0  0  0  0  0
   -3.8124   -8.6569   -1.2634 C   0  0  0  0  0  0  0  0  0  0  0  0
   -3.5392   -9.4836   -0.2151 C   0  0  0  0  0  0  0  0  0  0  0  0
   -4.1539  -11.1354   -0.1885 S   0  0  0  0  0  0  0  0  0  0  0  0
   -3.3673  -11.4672    1.3762 C   0  0  0  0  0  0  0  0  0  0  0  0
   -3.4265  -12.5106    1.9601 O   0  0  0  0  0  0  0  0  0  0  0  0
   -2.7096  -10.3411    1.7843 N   0  0  0  0  0  0  0  0  0  0  0  0
   -1.9464  -10.3430    3.0212 C   0  0  0  0  0  0  0  0  0  0  0  0
   -0.5457  -10.8990    2.8003 C   0  0  0  0  0  0  0  0  0  0  0  0
   -2.7554   -9.2217    0.9731 C   0  0  0  0  0  0  0  0  0  0  0  0
   -2.1994   -8.1794    1.2715 O   0  0  0  0  0  0  0  0  0  0  0  0
    2.7160    6.2873    2.0691 H   0  0  0  0  0  0  0  0  0  0  0  0
    0.8602    3.5101    7.3645 H   0  0  0  0  0  0  0  0  0  0  0  0
    2.9779    8.1097    7.2158 H   0  0  0  0  0  0  0  0  0  0  0  0
    1.1461    7.7296   10.0769 H   0  0  0  0  0  0  0  0  0  0  0  0
    3.7272    7.4915   10.6909 H   0  0  0  0  0  0  0  0  0  0  0  0
    2.3245    7.3540   12.9089 H   0  0  0  0  0  0  0  0  0  0  0  0
    1.2030    4.9487   13.0304 H   0  0  0  0  0  0  0  0  0  0  0  0
    1.9171    3.6042   10.8892 H   0  0  0  0  0  0  0  0  0  0  0  0
    3.7136    5.0691    9.5294 H   0  0  0  0  0  0  0  0  0  0  0  0
    4.1738    4.9414   11.2426 H   0  0  0  0  0  0  0  0  0  0  0  0
    0.0487    5.3712   10.1918 H   0  0  0  0  0  0  0  0  0  0  0  0
    1.6982    5.8492   -1.3946 H   0  0  0  0  0  0  0  0  0  0  0  0
    1.9964    6.7349    0.1069 H   0  0  0  0  0  0  0  0  0  0  0  0
    4.0305    6.6402   -1.3207 H   0  0  0  0  0  0  0  0  0  0  0  0
    4.3078    5.8033    0.2038 H   0  0  0  0  0  0  0  0  0  0  0  0
    3.9972    4.8743   -1.2688 H   0  0  0  0  0  0  0  0  0  0  0  0
   -3.7653    5.6089   -8.2075 H   0  0  0  0  0  0  0  0  0  0  0  0
   -2.1709    6.1979   -8.7089 H   0  0  0  0  0  0  0  0  0  0  0  0
   -2.0622    4.3909  -10.4361 H   0  0  0  0  0  0  0  0  0  0  0  0
   -3.4950    5.3978  -10.6650 H   0  0  0  0  0  0  0  0  0  0  0  0
   -3.6464    3.8026   -9.9186 H   0  0  0  0  0  0  0  0  0  0  0  0
    0.4264    3.2610   -5.8244 H   0  0  0  0  0  0  0  0  0  0  0  0
   -4.2010   -1.7257   -6.5820 H   0  0  0  0  0  0  0  0  0  0  0  0
   -3.6412   -1.3941  -11.4109 H   0  0  0  0  0  0  0  0  0  0  0  0
   -1.9528   -0.8544  -11.3892 H   0  0  0  0  0  0  0  0  0  0  0  0
   -3.3773    0.7868  -12.5908 H   0  0  0  0  0  0  0  0  0  0  0  0
   -2.7013    1.5064  -11.1246 H   0  0  0  0  0  0  0  0  0  0  0  0
   -4.3880    0.9809  -11.1556 H   0  0  0  0  0  0  0  0  0  0  0  0
   -5.3293   -7.8156   -3.5068 H   0  0  0  0  0  0  0  0  0  0  0  0
   -4.9443   -6.3338   -4.3913 H   0  0  0  0  0  0  0  0  0  0  0  0
   -4.1374   -8.3336   -5.6218 H   0  0  0  0  0  0  0  0  0  0  0  0
   -2.7874   -7.3069   -5.1333 H   0  0  0  0  0  0  0  0  0  0  0  0
   -3.1298   -8.7931   -4.2445 H   0  0  0  0  0  0  0  0  0  0  0  0
   -0.4156   -2.7653    1.1829 H   0  0  0  0  0  0  0  0  0  0  0  0
   -1.0948   -4.3262    0.7184 H   0  0  0  0  0  0  0  0  0  0  0  0
    1.3606   -3.0393   -0.5843 H   0  0  0  0  0  0  0  0  0  0  0  0
    0.6866   -4.6224   -0.9793 H   0  0  0  0  0  0  0  0  0  0  0  0
    1.3983   -4.3452    0.6115 H   0  0  0  0  0  0  0  0  0  0  0  0
   -0.6092    0.6070    2.0531 H   0  0  0  0  0  0  0  0  0  0  0  0
   -1.0961   -1.0113    1.5492 H   0  0  0  0  0  0  0  0  0  0  0  0
    1.4468   -1.5992    1.5536 H   0  0  0  0  0  0  0  0  0  0  0  0
    1.7226    0.0082    2.2231 H   0  0  0  0  0  0  0  0  0  0  0  0
    0.7934   -1.1709    3.1421 H   0  0  0  0  0  0  0  0  0  0  0  0
   -4.4177   -9.0984   -2.0456 H   0  0  0  0  0  0  0  0  0  0  0  0
   -2.4901  -10.9533    3.7456 H   0  0  0  0  0  0  0  0  0  0  0  0
   -1.9003   -9.3056    3.3608 H   0  0  0  0  0  0  0  0  0  0  0  0
   -0.6010  -11.9261    2.4474 H   0  0  0  0  0  0  0  0  0  0  0  0
    0.0065  -10.8803    3.7355 H   0  0  0  0  0  0  0  0  0  0  0  0
   -0.0131  -10.2980    2.0666 H   0  0  0  0  0  0  0  0  0  0  0  0
  1  2  2  0  0  0  0
  2  3  1  0  0  0  0
  3  4  2  0  0  0  0
  3  5  1  0  0  0  0
  5  6  2  0  0  0  0
  6  7  1  0  0  0  0
  7  8  2  0  0  0  0
  8  9  1  0  0  0  0
  9 10  2  0  0  0  0
 10 11  1  0  0  0  0
 11 12  2  0  0  0  0
 12 13  1  0  0  0  0
 13 14  3  0  0  0  0
 12 15  1  0  0  0  0
 15 16  3  0  0  0  0
  8 17  1  0  0  0  0
 17 18  1  0  0  0  0
 18 19  1  0  0  0  0
 19 20  2  0  0  0  0
 20 21  1  0  0  0  0
 21 22  1  0  0  0  0
 21 23  1  0  0  0  0
  1 24  1  0  0  0  0
 24 25  2  0  0  0  0
 25 26  1  0  0  0  0
 26 27  1  0  0  0  0
 25 28  1  0  0  0  0
 28 29  1  0  0  0  0
 29 30  1  0  0  0  0
 30 31  1  0  0  0  0
 31 32  2  0  0  0  0
 32 33  1  0  0  0  0
 33 34  2  0  0  0  0
 34 35  1  0  0  0  0
 35 36  1  0  0  0  0
 36 37  1  0  0  0  0
 37 38  1  0  0  0  0
 38 39  1  0  0  0  0
 37 40  2  0  0  0  0
 40 41  1  0  0  0  0
 40 42  1  0  0  0  0
 34 43  1  0  0  0  0
 43 44  1  0  0  0  0
 44 45  2  0  0  0  0
 45 46  1  0  0  0  0
 46 47  1  0  0  0  0
 46 48  2  0  0  0  0
 48 49  1  0  0  0  0
 49 50  1  0  0  0  0
 48 51  1  0  0  0  0
 43 52  2  0  0  0  0
 52 53  1  0  0  0  0
 53 54  2  0  0  0  0
 54 55  1  0  0  0  0
 55 56  1  0  0  0  0
 56 57  1  0  0  0  0
 57 58  1  0  0  0  0
 58 59  1  0  0  0  0
 59 60  1  0  0  0  0
 58 61  2  0  0  0  0
 61 62  1  0  0  0  0
 62 63  1  0  0  0  0
 63 64  1  0  0  0  0
 64 65  1  0  0  0  0
 65 66  1  0  0  0  0
 66 67  1  0  0  0  0
 65 68  1  0  0  0  0
 68 69  2  0  0  0  0
 69 70  1  0  0  0  0
 70 71  1  0  0  0  0
 71 72  1  0  0  0  0
 72 73  1  0  0  0  0
 70 74  1  0  0  0  0
 74 75  1  0  0  0  0
 61 76  1  0  0  0  0
 76 77  2  0  0  0  0
 77 78  1  0  0  0  0
 78 79  1  0  0  0  0
 79 80  2  0  0  0  0
 79 81  1  0  0  0  0
 81 82  1  0  0  0  0
 82 83  1  0  0  0  0
 81 84  1  0  0  0  0
 84 85  2  0  0  0  0
 11  2  1  0  0  0  0
 23 17  1  0  0  0  0
 73 24  1  0  0  0  0
 84 77  1  0  0  0  0
 10  5  1  0  0  0  0
 22 18  1  0  0  0  0
 72 28  2  0  0  0  0
 23  7  1  0  0  0  0
 71 30  2  0  0  0  0
 69 31  1  0  0  0  0
 53 32  1  0  0  0  0
 68 54  1  0  0  0  0
 41 35  2  0  0  0  0
 51 44  1  0  0  0  0
 64 55  2  0  0  0  0
 63 57  2  0  0  0  0
  1 86  1  0  0  0  0
  6 87  1  0  0  0  0
  9 88  1  0  0  0  0
 17 89  1  0  0  0  0
 18 90  1  0  0  0  0
 19 91  1  0  0  0  0
 20 92  1  0  0  0  0
 21 93  1  0  0  0  0
 22 94  1  0  0  0  0
 22 95  1  0  0  0  0
 23 96  1  0  0  0  0
 26 97  1  0  0  0  0
 26 98  1  0  0  0  0
 27 99  1  0  0  0  0
 27100  1  0  0  0  0
 27101  1  0  0  0  0
 38102  1  0  0  0  0
 38103  1  0  0  0  0
 39104  1  0  0  0  0
 39105  1  0  0  0  0
 39106  1  0  0  0  0
 41107  1  0  0  0  0
 45108  1  0  0  0  0
 49109  1  0  0  0  0
 49110  1  0  0  0  0
 50111  1  0  0  0  0
 50112  1  0  0  0  0
 50113  1  0  0  0  0
 59114  1  0  0  0  0
 59115  1  0  0  0  0
 60116  1  0  0  0  0
 60117  1  0  0  0  0
 60118  1  0  0  0  0
 66119  1  0  0  0  0
 66120  1  0  0  0  0
 67121  1  0  0  0  0
 67122  1  0  0  0  0
 67123  1  0  0  0  0
 74124  1  0  0  0  0
 74125  1  0  0  0  0
 75126  1  0  0  0  0
 75127  1  0  0  0  0
 75128  1  0  0  0  0
 76129  1  0  0  0  0
 82130  1  0  0  0  0
 82131  1  0  0  0  0
 83132  1  0  0  0  0
 83133  1  0  0  0  0
 83134  1  0  0  0  0
M  END
