
  xtb     02012222593D
 energy: -245.411262953850 gnorm: 0.000428122204 xtb: 6.4.1 (unknown)
139155  0     0  0            999 V2000
   -0.0699    6.8324    1.3642 C   0  0  0  0  0  0  0  0  0  0  0  0
   -1.1386    7.5242    1.8397 C   0  0  0  0  0  0  0  0  0  0  0  0
   -1.0568    8.9991    2.0221 C   0  0  0  0  0  0  0  0  0  0  0  0
   -0.1790    9.7280    1.6178 O   0  0  0  0  0  0  0  0  0  0  0  0
   -2.2351    9.3592    2.8337 C   0  0  0  0  0  0  0  0  0  0  0  0
   -2.5551   10.6148    3.3455 C   0  0  0  0  0  0  0  0  0  0  0  0
   -3.7177   10.6425    4.0779 C   0  0  0  0  0  0  0  0  0  0  0  0
   -4.4977    9.5004    4.3067 C   0  0  0  0  0  0  0  0  0  0  0  0
   -4.1975    8.2561    3.8066 C   0  0  0  0  0  0  0  0  0  0  0  0
   -3.0320    8.2123    3.0377 C   0  0  0  0  0  0  0  0  0  0  0  0
   -2.4444    7.0990    2.2974 C   0  0  0  0  0  0  0  0  0  0  0  0
   -3.1168    5.9726    1.8983 C   0  0  0  0  0  0  0  0  0  0  0  0
   -2.6355    5.0588    0.9393 C   0  0  0  0  0  0  0  0  0  0  0  0
   -2.3356    4.3123    0.1198 N   0  0  0  0  0  0  0  0  0  0  0  0
   -4.4248    5.6454    2.3097 C   0  0  0  0  0  0  0  0  0  0  0  0
   -5.4780    5.3150    2.6254 N   0  0  0  0  0  0  0  0  0  0  0  0
   -5.5169   10.2602    5.1167 C   0  0  0  0  0  0  0  0  0  0  0  0
   -6.8612   10.6042    4.4292 C   0  0  0  0  0  0  0  0  0  0  0  0
   -6.5800   10.6681    2.9481 C   0  0  0  0  0  0  0  0  0  0  0  0
   -5.8480   11.7507    2.7218 C   0  0  0  0  0  0  0  0  0  0  0  0
   -5.6204   12.4380    4.0456 C   0  0  0  0  0  0  0  0  0  0  0  0
   -6.9428   12.1041    4.7545 C   0  0  0  0  0  0  0  0  0  0  0  0
   -4.6545   11.5348    4.8531 C   0  0  0  0  0  0  0  0  0  0  0  0
    0.1635    5.4342    1.4054 C   0  0  0  0  0  0  0  0  0  0  0  0
   -0.1587    4.4886    2.3673 C   0  0  0  0  0  0  0  0  0  0  0  0
   -0.7416    4.7868    3.7110 C   0  0  0  0  0  0  0  0  0  0  0  0
    0.1354    4.2468    4.8405 C   0  0  0  0  0  0  0  0  0  0  0  0
    0.2089    3.1992    1.9514 C   0  0  0  0  0  0  0  0  0  0  0  0
   -0.0252    1.6152    2.6577 S   0  0  0  0  0  0  0  0  0  0  0  0
    0.6139    0.9059    1.2194 C   0  0  0  0  0  0  0  0  0  0  0  0
    0.8275   -0.3636    0.6673 C   0  0  0  0  0  0  0  0  0  0  0  0
    0.6079   -1.6273    1.2656 C   0  0  0  0  0  0  0  0  0  0  0  0
    0.2589   -1.7418    2.5447 N   0  0  0  0  0  0  0  0  0  0  0  0
    0.0447   -2.9517    3.0359 C   0  0  0  0  0  0  0  0  0  0  0  0
   -0.1346   -3.0094    4.4660 C   0  0  0  0  0  0  0  0  0  0  0  0
   -0.7359   -1.5928    5.2706 S   0  0  0  0  0  0  0  0  0  0  0  0
   -0.5697   -2.3327    6.8239 C   0  0  0  0  0  0  0  0  0  0  0  0
   -0.9734   -1.6460    8.0830 C   0  0  0  0  0  0  0  0  0  0  0  0
   -2.4788   -1.3806    8.1189 C   0  0  0  0  0  0  0  0  0  0  0  0
   -0.0535   -3.5896    6.6819 C   0  0  0  0  0  0  0  0  0  0  0  0
    0.2054   -3.9884    5.3599 C   0  0  0  0  0  0  0  0  0  0  0  0
    0.1970   -4.3926    7.7336 F   0  0  0  0  0  0  0  0  0  0  0  0
    0.0481   -4.0910    2.1757 C   0  0  0  0  0  0  0  0  0  0  0  0
   -0.4795   -5.3925    2.5182 C   0  0  0  0  0  0  0  0  0  0  0  0
   -0.1433   -6.5698    1.9063 C   0  0  0  0  0  0  0  0  0  0  0  0
   -0.9167   -7.6436    2.3794 C   0  0  0  0  0  0  0  0  0  0  0  0
   -0.7458   -8.9033    1.9390 F   0  0  0  0  0  0  0  0  0  0  0  0
   -1.8517   -7.3200    3.3207 C   0  0  0  0  0  0  0  0  0  0  0  0
   -2.8427   -8.2118    3.9839 C   0  0  0  0  0  0  0  0  0  0  0  0
   -4.2693   -7.8901    3.5356 C   0  0  0  0  0  0  0  0  0  0  0  0
   -1.7784   -5.6235    3.6516 S   0  0  0  0  0  0  0  0  0  0  0  0
    0.5013   -3.9861    0.9360 N   0  0  0  0  0  0  0  0  0  0  0  0
    0.8335   -2.7806    0.4798 C   0  0  0  0  0  0  0  0  0  0  0  0
    1.3321   -2.6007   -0.8334 C   0  0  0  0  0  0  0  0  0  0  0  0
    1.6122   -3.5781   -1.7950 C   0  0  0  0  0  0  0  0  0  0  0  0
    1.5689   -5.2971   -1.9620 S   0  0  0  0  0  0  0  0  0  0  0  0
    2.1070   -5.1151   -3.6232 C   0  0  0  0  0  0  0  0  0  0  0  0
    2.3469   -6.0328   -4.6345 C   0  0  0  0  0  0  0  0  0  0  0  0
    2.2245   -7.5082   -4.4384 C   0  0  0  0  0  0  0  0  0  0  0  0
    3.5909   -8.1337   -4.1440 C   0  0  0  0  0  0  0  0  0  0  0  0
    2.7570   -5.3941   -5.8213 C   0  0  0  0  0  0  0  0  0  0  0  0
    2.8432   -3.6400   -5.6362 S   0  0  0  0  0  0  0  0  0  0  0  0
    2.3126   -3.7755   -4.0034 C   0  0  0  0  0  0  0  0  0  0  0  0
    2.0258   -2.9060   -2.9490 C   0  0  0  0  0  0  0  0  0  0  0  0
    1.9996   -1.5541   -2.7356 N   0  0  0  0  0  0  0  0  0  0  0  0
    2.4555   -0.6857   -3.7950 C   0  0  0  0  0  0  0  0  0  0  0  0
    3.9556   -0.4145   -3.6878 C   0  0  0  0  0  0  0  0  0  0  0  0
    1.5889   -1.3292   -1.4357 C   0  0  0  0  0  0  0  0  0  0  0  0
    1.3360   -0.1701   -0.6533 C   0  0  0  0  0  0  0  0  0  0  0  0
    1.4643    1.1924   -0.8589 N   0  0  0  0  0  0  0  0  0  0  0  0
    1.0067    1.8366    0.2569 C   0  0  0  0  0  0  0  0  0  0  0  0
    0.7916    3.1526    0.6790 C   0  0  0  0  0  0  0  0  0  0  0  0
    0.9890    4.7298    0.0199 S   0  0  0  0  0  0  0  0  0  0  0  0
    1.8334    1.9944   -2.0012 C   0  0  0  0  0  0  0  0  0  0  0  0
    0.6194    2.3014   -2.8775 C   0  0  0  0  0  0  0  0  0  0  0  0
    3.0197   -6.0854   -7.0044 C   0  0  0  0  0  0  0  0  0  0  0  0
    3.4217   -5.6378   -8.2427 C   0  0  0  0  0  0  0  0  0  0  0  0
    3.7437   -4.2560   -8.6010 C   0  0  0  0  0  0  0  0  0  0  0  0
    3.6814   -3.2645   -7.8931 O   0  0  0  0  0  0  0  0  0  0  0  0
    4.1715   -4.2872  -10.0123 C   0  0  0  0  0  0  0  0  0  0  0  0
    4.5923   -3.2414  -10.8108 C   0  0  0  0  0  0  0  0  0  0  0  0
    4.9500   -3.5142  -12.1218 C   0  0  0  0  0  0  0  0  0  0  0  0
    4.8727   -4.8196  -12.5827 C   0  0  0  0  0  0  0  0  0  0  0  0
    5.2240   -5.0677  -13.8551 F   0  0  0  0  0  0  0  0  0  0  0  0
    4.4518   -5.8859  -11.7986 C   0  0  0  0  0  0  0  0  0  0  0  0
    4.0963   -5.6072  -10.4900 C   0  0  0  0  0  0  0  0  0  0  0  0
    3.6172   -6.4722   -9.4087 C   0  0  0  0  0  0  0  0  0  0  0  0
    3.3817   -7.8187   -9.5265 C   0  0  0  0  0  0  0  0  0  0  0  0
    2.8961   -8.6636   -8.5071 C   0  0  0  0  0  0  0  0  0  0  0  0
    2.5025   -9.4167   -7.7333 N   0  0  0  0  0  0  0  0  0  0  0  0
    3.5850   -8.5571  -10.7113 C   0  0  0  0  0  0  0  0  0  0  0  0
    3.7276   -9.2192  -11.6382 N   0  0  0  0  0  0  0  0  0  0  0  0
    0.7057    7.4359    0.9016 H   0  0  0  0  0  0  0  0  0  0  0  0
   -1.9234   11.4682    3.1549 H   0  0  0  0  0  0  0  0  0  0  0  0
   -4.8011    7.3832    3.9934 H   0  0  0  0  0  0  0  0  0  0  0  0
   -5.6472    9.9367    6.1474 H   0  0  0  0  0  0  0  0  0  0  0  0
   -7.6963    9.9785    4.7322 H   0  0  0  0  0  0  0  0  0  0  0  0
   -6.8845    9.9121    2.2483 H   0  0  0  0  0  0  0  0  0  0  0  0
   -5.4187   12.0809    1.7940 H   0  0  0  0  0  0  0  0  0  0  0  0
   -5.3272   13.4835    3.9996 H   0  0  0  0  0  0  0  0  0  0  0  0
   -7.8016   12.5885    4.2928 H   0  0  0  0  0  0  0  0  0  0  0  0
   -6.9294   12.3181    5.8223 H   0  0  0  0  0  0  0  0  0  0  0  0
   -4.2261   12.0490    5.7112 H   0  0  0  0  0  0  0  0  0  0  0  0
   -0.8552    5.8653    3.8328 H   0  0  0  0  0  0  0  0  0  0  0  0
   -1.7338    4.3282    3.7770 H   0  0  0  0  0  0  0  0  0  0  0  0
    0.2082    3.1640    4.7936 H   0  0  0  0  0  0  0  0  0  0  0  0
    1.1362    4.6677    4.7747 H   0  0  0  0  0  0  0  0  0  0  0  0
   -0.2934    4.5222    5.8007 H   0  0  0  0  0  0  0  0  0  0  0  0
   -0.4394   -0.6960    8.1672 H   0  0  0  0  0  0  0  0  0  0  0  0
   -0.6866   -2.2774    8.9266 H   0  0  0  0  0  0  0  0  0  0  0  0
   -2.7485   -0.8797    9.0450 H   0  0  0  0  0  0  0  0  0  0  0  0
   -2.7688   -0.7504    7.2816 H   0  0  0  0  0  0  0  0  0  0  0  0
   -3.0300   -2.3158    8.0565 H   0  0  0  0  0  0  0  0  0  0  0  0
    0.6410   -4.9358    5.1024 H   0  0  0  0  0  0  0  0  0  0  0  0
    0.6222   -6.6529    1.1585 H   0  0  0  0  0  0  0  0  0  0  0  0
   -2.7716   -8.0952    5.0683 H   0  0  0  0  0  0  0  0  0  0  0  0
   -2.5981   -9.2454    3.7305 H   0  0  0  0  0  0  0  0  0  0  0  0
   -4.5215   -6.8631    3.7904 H   0  0  0  0  0  0  0  0  0  0  0  0
   -4.9746   -8.5553    4.0264 H   0  0  0  0  0  0  0  0  0  0  0  0
   -4.3653   -8.0141    2.4594 H   0  0  0  0  0  0  0  0  0  0  0  0
    1.7892   -7.9866   -5.3172 H   0  0  0  0  0  0  0  0  0  0  0  0
    1.5616   -7.6852   -3.5893 H   0  0  0  0  0  0  0  0  0  0  0  0
    4.2765   -7.9714   -4.9725 H   0  0  0  0  0  0  0  0  0  0  0  0
    4.0216   -7.6961   -3.2463 H   0  0  0  0  0  0  0  0  0  0  0  0
    3.4803   -9.2036   -3.9927 H   0  0  0  0  0  0  0  0  0  0  0  0
    1.8724    0.2313   -3.8074 H   0  0  0  0  0  0  0  0  0  0  0  0
    2.2622   -1.2083   -4.7361 H   0  0  0  0  0  0  0  0  0  0  0  0
    4.2159   -0.0005   -2.7152 H   0  0  0  0  0  0  0  0  0  0  0  0
    4.2636    0.2797   -4.4645 H   0  0  0  0  0  0  0  0  0  0  0  0
    4.5067   -1.3422   -3.8195 H   0  0  0  0  0  0  0  0  0  0  0  0
    2.6333    1.5129   -2.5576 H   0  0  0  0  0  0  0  0  0  0  0  0
    2.2313    2.9353   -1.6084 H   0  0  0  0  0  0  0  0  0  0  0  0
   -0.0998    2.8942   -2.3176 H   0  0  0  0  0  0  0  0  0  0  0  0
    0.9250    2.8660   -3.7540 H   0  0  0  0  0  0  0  0  0  0  0  0
    0.1233    1.3873   -3.1981 H   0  0  0  0  0  0  0  0  0  0  0  0
    2.8734   -7.1531   -6.9161 H   0  0  0  0  0  0  0  0  0  0  0  0
    4.6374   -2.2398  -10.4127 H   0  0  0  0  0  0  0  0  0  0  0  0
    5.2860   -2.7365  -12.7891 H   0  0  0  0  0  0  0  0  0  0  0  0
    4.4174   -6.8749  -12.2241 H   0  0  0  0  0  0  0  0  0  0  0  0
  1  2  2  0  0  0  0
  2  3  1  0  0  0  0
  3  4  2  0  0  0  0
  3  5  1  0  0  0  0
  5  6  2  0  0  0  0
  6  7  1  0  0  0  0
  7  8  2  0  0  0  0
  8  9  1  0  0  0  0
  9 10  2  0  0  0  0
 10 11  1  0  0  0  0
 11 12  2  0  0  0  0
 12 13  1  0  0  0  0
 13 14  3  0  0  0  0
 12 15  1  0  0  0  0
 15 16  3  0  0  0  0
  8 17  1  0  0  0  0
 17 18  1  0  0  0  0
 18 19  1  0  0  0  0
 19 20  2  0  0  0  0
 20 21  1  0  0  0  0
 21 22  1  0  0  0  0
 21 23  1  0  0  0  0
  1 24  1  0  0  0  0
 24 25  2  0  0  0  0
 25 26  1  0  0  0  0
 26 27  1  0  0  0  0
 25 28  1  0  0  0  0
 28 29  1  0  0  0  0
 29 30  1  0  0  0  0
 30 31  1  0  0  0  0
 31 32  2  0  0  0  0
 32 33  1  0  0  0  0
 33 34  2  0  0  0  0
 34 35  1  0  0  0  0
 35 36  1  0  0  0  0
 36 37  1  0  0  0  0
 37 38  1  0  0  0  0
 38 39  1  0  0  0  0
 37 40  2  0  0  0  0
 40 41  1  0  0  0  0
 40 42  1  0  0  0  0
 34 43  1  0  0  0  0
 43 44  1  0  0  0  0
 44 45  2  0  0  0  0
 45 46  1  0  0  0  0
 46 47  1  0  0  0  0
 46 48  2  0  0  0  0
 48 49  1  0  0  0  0
 49 50  1  0  0  0  0
 48 51  1  0  0  0  0
 43 52  2  0  0  0  0
 52 53  1  0  0  0  0
 53 54  2  0  0  0  0
 54 55  1  0  0  0  0
 55 56  1  0  0  0  0
 56 57  1  0  0  0  0
 57 58  1  0  0  0  0
 58 59  1  0  0  0  0
 59 60  1  0  0  0  0
 58 61  2  0  0  0  0
 61 62  1  0  0  0  0
 62 63  1  0  0  0  0
 63 64  1  0  0  0  0
 64 65  1  0  0  0  0
 65 66  1  0  0  0  0
 66 67  1  0  0  0  0
 65 68  1  0  0  0  0
 68 69  2  0  0  0  0
 69 70  1  0  0  0  0
 70 71  1  0  0  0  0
 71 72  1  0  0  0  0
 72 73  1  0  0  0  0
 70 74  1  0  0  0  0
 74 75  1  0  0  0  0
 61 76  1  0  0  0  0
 76 77  2  0  0  0  0
 77 78  1  0  0  0  0
 78 79  2  0  0  0  0
 78 80  1  0  0  0  0
 80 81  2  0  0  0  0
 81 82  1  0  0  0  0
 82 83  2  0  0  0  0
 83 84  1  0  0  0  0
 83 85  1  0  0  0  0
 85 86  2  0  0  0  0
 86 87  1  0  0  0  0
 87 88  2  0  0  0  0
 88 89  1  0  0  0  0
 89 90  3  0  0  0  0
 88 91  1  0  0  0  0
 91 92  3  0  0  0  0
 11  2  1  0  0  0  0
 23 17  1  0  0  0  0
 73 24  1  0  0  0  0
 87 77  1  0  0  0  0
 10  5  1  0  0  0  0
 22 18  1  0  0  0  0
 72 28  2  0  0  0  0
 86 80  1  0  0  0  0
 23  7  1  0  0  0  0
 71 30  2  0  0  0  0
 69 31  1  0  0  0  0
 53 32  1  0  0  0  0
 68 54  1  0  0  0  0
 41 35  2  0  0  0  0
 51 44  1  0  0  0  0
 64 55  2  0  0  0  0
 63 57  2  0  0  0  0
  1 93  1  0  0  0  0
  6 94  1  0  0  0  0
  9 95  1  0  0  0  0
 17 96  1  0  0  0  0
 18 97  1  0  0  0  0
 19 98  1  0  0  0  0
 20 99  1  0  0  0  0
 21100  1  0  0  0  0
 22101  1  0  0  0  0
 22102  1  0  0  0  0
 23103  1  0  0  0  0
 26104  1  0  0  0  0
 26105  1  0  0  0  0
 27106  1  0  0  0  0
 27107  1  0  0  0  0
 27108  1  0  0  0  0
 38109  1  0  0  0  0
 38110  1  0  0  0  0
 39111  1  0  0  0  0
 39112  1  0  0  0  0
 39113  1  0  0  0  0
 41114  1  0  0  0  0
 45115  1  0  0  0  0
 49116  1  0  0  0  0
 49117  1  0  0  0  0
 50118  1  0  0  0  0
 50119  1  0  0  0  0
 50120  1  0  0  0  0
 59121  1  0  0  0  0
 59122  1  0  0  0  0
 60123  1  0  0  0  0
 60124  1  0  0  0  0
 60125  1  0  0  0  0
 66126  1  0  0  0  0
 66127  1  0  0  0  0
 67128  1  0  0  0  0
 67129  1  0  0  0  0
 67130  1  0  0  0  0
 74131  1  0  0  0  0
 74132  1  0  0  0  0
 75133  1  0  0  0  0
 75134  1  0  0  0  0
 75135  1  0  0  0  0
 76136  1  0  0  0  0
 81137  1  0  0  0  0
 82138  1  0  0  0  0
 85139  1  0  0  0  0
M  END
