
  xtb     02022200243D
 energy: -203.478005213015 gnorm: 0.000294292429 xtb: 6.4.1 (unknown)
127141  0     0  0            999 V2000
    2.3922    1.7954   -7.2667 C   0  0  0  0  0  0  0  0  0  0  0  0
    2.1090    1.3390   -8.5254 C   0  0  0  0  0  0  0  0  0  0  0  0
    0.9957    0.4557   -8.9412 C   0  0  0  0  0  0  0  0  0  0  0  0
   -0.0409    0.2087   -8.3590 O   0  0  0  0  0  0  0  0  0  0  0  0
    1.4107   -0.1209  -10.2352 C   0  0  0  0  0  0  0  0  0  0  0  0
    0.7496   -1.1168  -10.9512 C   0  0  0  0  0  0  0  0  0  0  0  0
    1.3868   -1.4878  -12.1105 C   0  0  0  0  0  0  0  0  0  0  0  0
    2.5925   -0.9099  -12.5308 C   0  0  0  0  0  0  0  0  0  0  0  0
    3.2534    0.0749  -11.8359 C   0  0  0  0  0  0  0  0  0  0  0  0
    2.6217    0.4653  -10.6510 C   0  0  0  0  0  0  0  0  0  0  0  0
    3.0254    1.4441   -9.6469 C   0  0  0  0  0  0  0  0  0  0  0  0
    4.0400    2.3557   -9.7803 C   0  0  0  0  0  0  0  0  0  0  0  0
    4.8822    2.4473  -10.9075 C   0  0  0  0  0  0  0  0  0  0  0  0
    5.6026    2.5734  -11.7928 N   0  0  0  0  0  0  0  0  0  0  0  0
    4.3463    3.3647   -8.8425 C   0  0  0  0  0  0  0  0  0  0  0  0
    4.6417    4.2253   -8.1416 N   0  0  0  0  0  0  0  0  0  0  0  0
    2.6640   -1.7677  -13.7697 C   0  0  0  0  0  0  0  0  0  0  0  0
    2.2716   -1.0941  -15.1017 C   0  0  0  0  0  0  0  0  0  0  0  0
    1.9770   -2.2577  -16.0208 C   0  0  0  0  0  0  0  0  0  0  0  0
    0.8372   -2.8079  -15.6226 C   0  0  0  0  0  0  0  0  0  0  0  0
    0.3417   -2.0252  -14.4279 C   0  0  0  0  0  0  0  0  0  0  0  0
    0.8418   -0.6245  -14.8038 C   0  0  0  0  0  0  0  0  0  0  0  0
    1.3208   -2.4132  -13.3001 C   0  0  0  0  0  0  0  0  0  0  0  0
    1.6184    1.7424   -6.0923 C   0  0  0  0  0  0  0  0  0  0  0  0
    2.4884    1.9312   -4.5661 S   0  0  0  0  0  0  0  0  0  0  0  0
    1.0383    1.6932   -3.6958 C   0  0  0  0  0  0  0  0  0  0  0  0
    0.6584    1.5419   -2.3274 C   0  0  0  0  0  0  0  0  0  0  0  0
   -0.7349    1.2995   -2.3127 C   0  0  0  0  0  0  0  0  0  0  0  0
   -1.3036    1.3334   -3.7132 C   0  0  0  0  0  0  0  0  0  0  0  0
   -0.0632    1.5290   -4.5327 C   0  0  0  0  0  0  0  0  0  0  0  0
    0.2572    1.5571   -5.8792 C   0  0  0  0  0  0  0  0  0  0  0  0
   -2.3134    2.4677   -3.9089 C   0  0  0  0  0  0  0  0  0  0  0  0
   -1.3908    1.0610   -1.1283 C   0  0  0  0  0  0  0  0  0  0  0  0
   -0.6275    1.0197    0.0368 C   0  0  0  0  0  0  0  0  0  0  0  0
   -0.9978    0.7670    1.3958 C   0  0  0  0  0  0  0  0  0  0  0  0
    0.1044    0.8106    2.1964 C   0  0  0  0  0  0  0  0  0  0  0  0
    1.3582    1.0730    1.4089 C   0  0  0  0  0  0  0  0  0  0  0  0
    2.1162    2.3227    1.8783 C   0  0  0  0  0  0  0  0  0  0  0  0
    1.2053    3.5383    2.0030 C   0  0  0  0  0  0  0  0  0  0  0  0
    2.2289   -0.2026    1.5121 C   0  0  0  0  0  0  0  0  0  0  0  0
    3.5054   -0.2108    0.6821 C   0  0  0  0  0  0  0  0  0  0  0  0
    0.7748    1.2388    0.0170 C   0  0  0  0  0  0  0  0  0  0  0  0
    1.4201    1.5379   -1.1596 C   0  0  0  0  0  0  0  0  0  0  0  0
   -0.2603    0.5051    3.5465 C   0  0  0  0  0  0  0  0  0  0  0  0
   -1.6618    0.2734    3.5601 C   0  0  0  0  0  0  0  0  0  0  0  0
   -2.2334    0.3818    2.1590 C   0  0  0  0  0  0  0  0  0  0  0  0
   -3.3507    1.4306    2.0647 C   0  0  0  0  0  0  0  0  0  0  0  0
   -2.8571    2.8328    2.4015 C   0  0  0  0  0  0  0  0  0  0  0  0
   -2.6878   -0.9954    1.6182 C   0  0  0  0  0  0  0  0  0  0  0  0
   -3.8400   -1.6589    2.3603 C   0  0  0  0  0  0  0  0  0  0  0  0
   -2.3149   -0.0079    4.7351 C   0  0  0  0  0  0  0  0  0  0  0  0
   -1.5399   -0.1216    5.8891 C   0  0  0  0  0  0  0  0  0  0  0  0
   -1.8964   -0.4856    7.2204 C   0  0  0  0  0  0  0  0  0  0  0  0
   -0.7667   -0.5240    8.0408 C   0  0  0  0  0  0  0  0  0  0  0  0
    0.4455   -0.1157    7.2565 C   0  0  0  0  0  0  0  0  0  0  0  0
   -0.1407    0.0857    5.8765 C   0  0  0  0  0  0  0  0  0  0  0  0
    0.5047    0.4199    4.7090 C   0  0  0  0  0  0  0  0  0  0  0  0
    1.0985    1.1524    7.8121 C   0  0  0  0  0  0  0  0  0  0  0  0
   -1.0388   -0.9280    9.3332 C   0  0  0  0  0  0  0  0  0  0  0  0
   -2.3901   -1.2148    9.5250 C   0  0  0  0  0  0  0  0  0  0  0  0
   -3.3189   -0.9383    8.0428 S   0  0  0  0  0  0  0  0  0  0  0  0
   -3.1283   -1.6766   10.6234 C   0  0  0  0  0  0  0  0  0  0  0  0
   -2.7468   -2.1084   11.8707 C   0  0  0  0  0  0  0  0  0  0  0  0
   -1.3835   -2.2916   12.4052 C   0  0  0  0  0  0  0  0  0  0  0  0
   -0.3173   -1.9646   11.9241 O   0  0  0  0  0  0  0  0  0  0  0  0
   -1.5546   -2.9885   13.7002 C   0  0  0  0  0  0  0  0  0  0  0  0
   -0.5728   -3.4331   14.5608 C   0  0  0  0  0  0  0  0  0  0  0  0
   -0.9819   -4.0813   15.7200 C   0  0  0  0  0  0  0  0  0  0  0  0
    0.2010   -4.6613   16.8313 Cl  0  0  0  0  0  0  0  0  0  0  0  0
   -2.3302   -4.2736   15.9985 C   0  0  0  0  0  0  0  0  0  0  0  0
   -3.3090   -3.8179   15.1284 C   0  0  0  0  0  0  0  0  0  0  0  0
   -2.9214   -3.1661   13.9665 C   0  0  0  0  0  0  0  0  0  0  0  0
   -3.6894   -2.5794   12.8711 C   0  0  0  0  0  0  0  0  0  0  0  0
   -5.0563   -2.4654   12.8506 C   0  0  0  0  0  0  0  0  0  0  0  0
   -5.8308   -1.8356   11.8534 C   0  0  0  0  0  0  0  0  0  0  0  0
   -6.5456   -1.3334   11.1068 N   0  0  0  0  0  0  0  0  0  0  0  0
   -5.9031   -2.9470   13.8713 C   0  0  0  0  0  0  0  0  0  0  0  0
   -6.6529   -3.3166   14.6585 N   0  0  0  0  0  0  0  0  0  0  0  0
    3.3884    2.1961   -7.1132 H   0  0  0  0  0  0  0  0  0  0  0  0
   -0.1738   -1.5402  -10.5879 H   0  0  0  0  0  0  0  0  0  0  0  0
    4.1877    0.5004  -12.1627 H   0  0  0  0  0  0  0  0  0  0  0  0
    3.5445   -2.4016  -13.8570 H   0  0  0  0  0  0  0  0  0  0  0  0
    2.9785   -0.3518  -15.4617 H   0  0  0  0  0  0  0  0  0  0  0  0
    2.6349   -2.5846  -16.8045 H   0  0  0  0  0  0  0  0  0  0  0  0
    0.3528   -3.6864  -16.0071 H   0  0  0  0  0  0  0  0  0  0  0  0
   -0.7099   -2.1317  -14.1752 H   0  0  0  0  0  0  0  0  0  0  0  0
    0.3440   -0.2336  -15.6896 H   0  0  0  0  0  0  0  0  0  0  0  0
    0.7728    0.1025  -13.9967 H   0  0  0  0  0  0  0  0  0  0  0  0
    1.3071   -3.4774  -13.0714 H   0  0  0  0  0  0  0  0  0  0  0  0
   -1.7869    0.3813   -3.9564 H   0  0  0  0  0  0  0  0  0  0  0  0
   -0.4412    1.4386   -6.6851 H   0  0  0  0  0  0  0  0  0  0  0  0
   -3.1733    2.3249   -3.2595 H   0  0  0  0  0  0  0  0  0  0  0  0
   -1.8522    3.4237   -3.6707 H   0  0  0  0  0  0  0  0  0  0  0  0
   -2.6531    2.4912   -4.9410 H   0  0  0  0  0  0  0  0  0  0  0  0
   -2.4565    0.8916   -1.1021 H   0  0  0  0  0  0  0  0  0  0  0  0
    2.9106    2.5452    1.1648 H   0  0  0  0  0  0  0  0  0  0  0  0
    2.5783    2.1148    2.8454 H   0  0  0  0  0  0  0  0  0  0  0  0
    1.7832    4.4117    2.2959 H   0  0  0  0  0  0  0  0  0  0  0  0
    0.4354    3.3680    2.7521 H   0  0  0  0  0  0  0  0  0  0  0  0
    0.7205    3.7502    1.0523 H   0  0  0  0  0  0  0  0  0  0  0  0
    2.4886   -0.3382    2.5643 H   0  0  0  0  0  0  0  0  0  0  0  0
    1.6107   -1.0539    1.2147 H   0  0  0  0  0  0  0  0  0  0  0  0
    4.1433    0.6345    0.9255 H   0  0  0  0  0  0  0  0  0  0  0  0
    3.2804   -0.1915   -0.3802 H   0  0  0  0  0  0  0  0  0  0  0  0
    4.0611   -1.1227    0.8906 H   0  0  0  0  0  0  0  0  0  0  0  0
    2.4763    1.7531   -1.2057 H   0  0  0  0  0  0  0  0  0  0  0  0
   -3.7581    1.4235    1.0518 H   0  0  0  0  0  0  0  0  0  0  0  0
   -4.1521    1.1602    2.7533 H   0  0  0  0  0  0  0  0  0  0  0  0
   -2.4346    2.8581    3.4038 H   0  0  0  0  0  0  0  0  0  0  0  0
   -2.0922    3.1515    1.6972 H   0  0  0  0  0  0  0  0  0  0  0  0
   -3.6812    3.5410    2.3583 H   0  0  0  0  0  0  0  0  0  0  0  0
   -2.9697   -0.8600    0.5719 H   0  0  0  0  0  0  0  0  0  0  0  0
   -1.8237   -1.6649    1.6407 H   0  0  0  0  0  0  0  0  0  0  0  0
   -4.7152   -1.0157    2.3931 H   0  0  0  0  0  0  0  0  0  0  0  0
   -4.1159   -2.5762    1.8444 H   0  0  0  0  0  0  0  0  0  0  0  0
   -3.5523   -1.9190    3.3749 H   0  0  0  0  0  0  0  0  0  0  0  0
   -3.3835   -0.1453    4.7895 H   0  0  0  0  0  0  0  0  0  0  0  0
    1.1885   -0.9205    7.2431 H   0  0  0  0  0  0  0  0  0  0  0  0
    1.5691    0.5984    4.6882 H   0  0  0  0  0  0  0  0  0  0  0  0
    0.3791    1.9681    7.8261 H   0  0  0  0  0  0  0  0  0  0  0  0
    1.9439    1.4445    7.1946 H   0  0  0  0  0  0  0  0  0  0  0  0
    1.4482    0.9776    8.8262 H   0  0  0  0  0  0  0  0  0  0  0  0
   -0.3170   -1.0338   10.1214 H   0  0  0  0  0  0  0  0  0  0  0  0
   -4.1915   -1.7289   10.4193 H   0  0  0  0  0  0  0  0  0  0  0  0
    0.4702   -3.2803   14.3328 H   0  0  0  0  0  0  0  0  0  0  0  0
   -2.6158   -4.7851   16.9043 H   0  0  0  0  0  0  0  0  0  0  0  0
   -4.3466   -3.9829   15.3670 H   0  0  0  0  0  0  0  0  0  0  0  0
  1  2  2  0  0  0  0
  2  3  1  0  0  0  0
  3  4  2  0  0  0  0
  3  5  1  0  0  0  0
  5  6  2  0  0  0  0
  6  7  1  0  0  0  0
  7  8  2  0  0  0  0
  8  9  1  0  0  0  0
  9 10  2  0  0  0  0
 10 11  1  0  0  0  0
 11 12  2  0  0  0  0
 12 13  1  0  0  0  0
 13 14  3  0  0  0  0
 12 15  1  0  0  0  0
 15 16  3  0  0  0  0
  8 17  1  0  0  0  0
 17 18  1  0  0  0  0
 18 19  1  0  0  0  0
 19 20  2  0  0  0  0
 20 21  1  0  0  0  0
 21 22  1  0  0  0  0
 21 23  1  0  0  0  0
  1 24  1  0  0  0  0
 24 25  1  0  0  0  0
 25 26  1  0  0  0  0
 26 27  1  0  0  0  0
 27 28  2  0  0  0  0
 28 29  1  0  0  0  0
 29 30  1  0  0  0  0
 30 31  1  0  0  0  0
 29 32  1  0  0  0  0
 28 33  1  0  0  0  0
 33 34  2  0  0  0  0
 34 35  1  0  0  0  0
 35 36  2  0  0  0  0
 36 37  1  0  0  0  0
 37 38  1  0  0  0  0
 38 39  1  0  0  0  0
 37 40  1  0  0  0  0
 40 41  1  0  0  0  0
 37 42  1  0  0  0  0
 42 43  2  0  0  0  0
 36 44  1  0  0  0  0
 44 45  2  0  0  0  0
 45 46  1  0  0  0  0
 46 47  1  0  0  0  0
 47 48  1  0  0  0  0
 46 49  1  0  0  0  0
 49 50  1  0  0  0  0
 45 51  1  0  0  0  0
 51 52  2  0  0  0  0
 52 53  1  0  0  0  0
 53 54  2  0  0  0  0
 54 55  1  0  0  0  0
 55 56  1  0  0  0  0
 56 57  2  0  0  0  0
 55 58  1  0  0  0  0
 54 59  1  0  0  0  0
 59 60  2  0  0  0  0
 60 61  1  0  0  0  0
 60 62  1  0  0  0  0
 62 63  2  0  0  0  0
 63 64  1  0  0  0  0
 64 65  2  0  0  0  0
 64 66  1  0  0  0  0
 66 67  2  0  0  0  0
 67 68  1  0  0  0  0
 68 69  1  0  0  0  0
 68 70  2  0  0  0  0
 70 71  1  0  0  0  0
 71 72  2  0  0  0  0
 72 73  1  0  0  0  0
 73 74  2  0  0  0  0
 74 75  1  0  0  0  0
 75 76  3  0  0  0  0
 74 77  1  0  0  0  0
 77 78  3  0  0  0  0
 11  2  1  0  0  0  0
 23 17  1  0  0  0  0
 31 24  2  0  0  0  0
 42 34  1  0  0  0  0
 57 44  1  0  0  0  0
 73 63  1  0  0  0  0
 10  5  1  0  0  0  0
 22 18  1  0  0  0  0
 30 26  2  0  0  0  0
 46 35  1  0  0  0  0
 56 52  1  0  0  0  0
 72 66  1  0  0  0  0
 23  7  1  0  0  0  0
 43 27  1  0  0  0  0
 61 53  1  0  0  0  0
  1 79  1  0  0  0  0
  6 80  1  0  0  0  0
  9 81  1  0  0  0  0
 17 82  1  0  0  0  0
 18 83  1  0  0  0  0
 19 84  1  0  0  0  0
 20 85  1  0  0  0  0
 21 86  1  0  0  0  0
 22 87  1  0  0  0  0
 22 88  1  0  0  0  0
 23 89  1  0  0  0  0
 29 90  1  0  0  0  0
 31 91  1  0  0  0  0
 32 92  1  0  0  0  0
 32 93  1  0  0  0  0
 32 94  1  0  0  0  0
 33 95  1  0  0  0  0
 38 96  1  0  0  0  0
 38 97  1  0  0  0  0
 39 98  1  0  0  0  0
 39 99  1  0  0  0  0
 39100  1  0  0  0  0
 40101  1  0  0  0  0
 40102  1  0  0  0  0
 41103  1  0  0  0  0
 41104  1  0  0  0  0
 41105  1  0  0  0  0
 43106  1  0  0  0  0
 47107  1  0  0  0  0
 47108  1  0  0  0  0
 48109  1  0  0  0  0
 48110  1  0  0  0  0
 48111  1  0  0  0  0
 49112  1  0  0  0  0
 49113  1  0  0  0  0
 50114  1  0  0  0  0
 50115  1  0  0  0  0
 50116  1  0  0  0  0
 51117  1  0  0  0  0
 55118  1  0  0  0  0
 57119  1  0  0  0  0
 58120  1  0  0  0  0
 58121  1  0  0  0  0
 58122  1  0  0  0  0
 59123  1  0  0  0  0
 62124  1  0  0  0  0
 67125  1  0  0  0  0
 70126  1  0  0  0  0
 71127  1  0  0  0  0
M  END
