
  xtb     02022208343D
 energy: -177.483307707591 gnorm: 0.000257199584 xtb: 6.4.1 (unknown)
 95109  0     0  0            999 V2000
   -4.5752   -0.6603    4.9216 C   0  0  0  0  0  0  0  0  0  0  0  0
   -4.3042    0.4813    5.6361 C   0  0  0  0  0  0  0  0  0  0  0  0
   -3.3963    1.5414    5.2181 C   0  0  0  0  0  0  0  0  0  0  0  0
   -2.7640    1.6018    4.1681 O   0  0  0  0  0  0  0  0  0  0  0  0
   -3.3755    2.5364    6.2975 C   0  0  0  0  0  0  0  0  0  0  0  0
   -2.6357    3.7165    6.3443 C   0  0  0  0  0  0  0  0  0  0  0  0
   -2.8193    4.4449    7.4951 C   0  0  0  0  0  0  0  0  0  0  0  0
   -3.6801    4.0333    8.5209 C   0  0  0  0  0  0  0  0  0  0  0  0
   -4.4184    2.8734    8.4854 C   0  0  0  0  0  0  0  0  0  0  0  0
   -4.2431    2.1128    7.3260 C   0  0  0  0  0  0  0  0  0  0  0  0
   -4.8445    0.8372    6.9342 C   0  0  0  0  0  0  0  0  0  0  0  0
   -5.7570    0.1320    7.6752 C   0  0  0  0  0  0  0  0  0  0  0  0
   -6.2458    0.5338    8.9364 C   0  0  0  0  0  0  0  0  0  0  0  0
   -6.6882    0.7929    9.9638 N   0  0  0  0  0  0  0  0  0  0  0  0
   -6.3533   -1.0914    7.3029 C   0  0  0  0  0  0  0  0  0  0  0  0
   -6.8887   -2.0835    7.0813 N   0  0  0  0  0  0  0  0  0  0  0  0
   -3.3710    5.2385    9.3736 C   0  0  0  0  0  0  0  0  0  0  0  0
   -2.4110    5.0144   10.5611 C   0  0  0  0  0  0  0  0  0  0  0  0
   -1.9229    6.4047   10.8991 C   0  0  0  0  0  0  0  0  0  0  0  0
   -1.1050    6.7922    9.9288 C   0  0  0  0  0  0  0  0  0  0  0  0
   -1.0268    5.6704    8.9183 C   0  0  0  0  0  0  0  0  0  0  0  0
   -1.1662    4.4627    9.8541 C   0  0  0  0  0  0  0  0  0  0  0  0
   -2.4087    5.6962    8.2308 C   0  0  0  0  0  0  0  0  0  0  0  0
   -4.0964   -1.0927    3.6775 C   0  0  0  0  0  0  0  0  0  0  0  0
   -4.4996   -2.3186    3.1425 C   0  0  0  0  0  0  0  0  0  0  0  0
   -3.9527   -2.6336    1.9133 C   0  0  0  0  0  0  0  0  0  0  0  0
   -4.1762   -4.0477    0.8986 S   0  0  0  0  0  0  0  0  0  0  0  0
   -3.0862   -3.3550   -0.2490 C   0  0  0  0  0  0  0  0  0  0  0  0
   -2.5439   -3.6456   -1.5061 C   0  0  0  0  0  0  0  0  0  0  0  0
   -2.7940   -4.7202   -2.3880 C   0  0  0  0  0  0  0  0  0  0  0  0
   -2.1711   -4.7141   -3.6773 C   0  0  0  0  0  0  0  0  0  0  0  0
   -2.5287   -5.7512   -4.4179 N   0  0  0  0  0  0  0  0  0  0  0  0
   -3.5589   -6.6606   -3.5618 S   0  0  0  0  0  0  0  0  0  0  0  0
   -3.5885   -5.7644   -2.2142 N   0  0  0  0  0  0  0  0  0  0  0  0
   -1.2516   -3.6866   -3.9839 C   0  0  0  0  0  0  0  0  0  0  0  0
   -0.4287   -3.5066   -5.1014 C   0  0  0  0  0  0  0  0  0  0  0  0
    0.3819   -2.3956   -4.8388 C   0  0  0  0  0  0  0  0  0  0  0  0
    0.0634   -1.8662   -3.6161 N   0  0  0  0  0  0  0  0  0  0  0  0
    0.9624   -0.9152   -3.0043 C   0  0  0  0  0  0  0  0  0  0  0  0
    1.7681   -1.5524   -1.8752 C   0  0  0  0  0  0  0  0  0  0  0  0
   -0.9446   -2.6385   -3.0639 C   0  0  0  0  0  0  0  0  0  0  0  0
   -1.6750   -2.5652   -1.8476 C   0  0  0  0  0  0  0  0  0  0  0  0
   -1.7257   -1.6344   -0.8232 N   0  0  0  0  0  0  0  0  0  0  0  0
   -2.5805   -2.1081    0.1371 C   0  0  0  0  0  0  0  0  0  0  0  0
   -3.0709   -1.6744    1.3725 C   0  0  0  0  0  0  0  0  0  0  0  0
   -2.8856   -0.2053    2.5131 Se  0  0  0  0  0  2  0  0  0  0  0  0
   -1.3510   -0.2390   -0.8032 C   0  0  0  0  0  0  0  0  0  0  0  0
   -2.0782    0.5502   -1.8888 C   0  0  0  0  0  0  0  0  0  0  0  0
    1.2965   -2.1293   -5.8620 C   0  0  0  0  0  0  0  0  0  0  0  0
    1.1444   -3.0610   -6.9107 C   0  0  0  0  0  0  0  0  0  0  0  0
   -0.1111   -4.2531   -6.6267 S   0  0  0  0  0  0  0  0  0  0  0  0
    2.0038   -2.9030   -7.9811 C   0  0  0  0  0  0  0  0  0  0  0  0
    2.9075   -1.8438   -7.8677 C   0  0  0  0  0  0  0  0  0  0  0  0
    2.6641   -0.9115   -6.2301 Se  0  0  0  0  0  2  0  0  0  0  0  0
    3.8439   -1.5855   -8.8778 C   0  0  0  0  0  0  0  0  0  0  0  0
    4.8232   -0.6280   -8.9696 C   0  0  0  0  0  0  0  0  0  0  0  0
    5.1059    0.3986   -7.9612 C   0  0  0  0  0  0  0  0  0  0  0  0
    4.5216    0.5732   -6.8983 O   0  0  0  0  0  0  0  0  0  0  0  0
    6.2242    1.1563   -8.4969 C   0  0  0  0  0  0  0  0  0  0  0  0
    7.1769    2.4871   -8.0038 S   0  0  0  0  0  0  0  0  0  0  0  0
    8.0966    2.3679   -9.4569 C   0  0  0  0  0  0  0  0  0  0  0  0
    7.6983    1.3594  -10.2852 C   0  0  0  0  0  0  0  0  0  0  0  0
    6.6129    0.6543   -9.7329 C   0  0  0  0  0  0  0  0  0  0  0  0
    5.7561   -0.4686  -10.0725 C   0  0  0  0  0  0  0  0  0  0  0  0
    5.8587   -1.1996  -11.2267 C   0  0  0  0  0  0  0  0  0  0  0  0
    6.8365   -0.9072  -12.2013 C   0  0  0  0  0  0  0  0  0  0  0  0
    7.6251   -0.6868  -13.0051 N   0  0  0  0  0  0  0  0  0  0  0  0
    5.0469   -2.2918  -11.5914 C   0  0  0  0  0  0  0  0  0  0  0  0
    4.4249   -3.1869  -11.9535 N   0  0  0  0  0  0  0  0  0  0  0  0
   -5.2638   -1.3641    5.3754 H   0  0  0  0  0  0  0  0  0  0  0  0
   -1.9888    3.9979    5.5282 H   0  0  0  0  0  0  0  0  0  0  0  0
   -5.0773    2.5755    9.2834 H   0  0  0  0  0  0  0  0  0  0  0  0
   -4.2197    5.8713    9.6253 H   0  0  0  0  0  0  0  0  0  0  0  0
   -2.8257    4.4291   11.3770 H   0  0  0  0  0  0  0  0  0  0  0  0
   -2.2549    6.9660   11.7526 H   0  0  0  0  0  0  0  0  0  0  0  0
   -0.6172    7.7418    9.8098 H   0  0  0  0  0  0  0  0  0  0  0  0
   -0.1791    5.6825    8.2384 H   0  0  0  0  0  0  0  0  0  0  0  0
   -0.3182    4.3662   10.5300 H   0  0  0  0  0  0  0  0  0  0  0  0
   -1.3303    3.5180    9.3390 H   0  0  0  0  0  0  0  0  0  0  0  0
   -2.6134    6.6364    7.7221 H   0  0  0  0  0  0  0  0  0  0  0  0
   -5.1879   -2.9636    3.6626 H   0  0  0  0  0  0  0  0  0  0  0  0
    1.6501   -0.5839   -3.7916 H   0  0  0  0  0  0  0  0  0  0  0  0
    0.4190   -0.0328   -2.6674 H   0  0  0  0  0  0  0  0  0  0  0  0
    1.1155   -1.9686   -1.1109 H   0  0  0  0  0  0  0  0  0  0  0  0
    2.3850   -2.3566   -2.2692 H   0  0  0  0  0  0  0  0  0  0  0  0
    2.4184   -0.8108   -1.4196 H   0  0  0  0  0  0  0  0  0  0  0  0
   -1.6454    0.1490    0.1792 H   0  0  0  0  0  0  0  0  0  0  0  0
   -0.2693   -0.1276   -0.8756 H   0  0  0  0  0  0  0  0  0  0  0  0
   -3.1519    0.5053   -1.7222 H   0  0  0  0  0  0  0  0  0  0  0  0
   -1.7682    1.5912   -1.8613 H   0  0  0  0  0  0  0  0  0  0  0  0
   -1.8716    0.1453   -2.8771 H   0  0  0  0  0  0  0  0  0  0  0  0
    1.9921   -3.5467   -8.8446 H   0  0  0  0  0  0  0  0  0  0  0  0
    3.7669   -2.2729   -9.7134 H   0  0  0  0  0  0  0  0  0  0  0  0
    8.8963    3.0634   -9.6212 H   0  0  0  0  0  0  0  0  0  0  0  0
    8.1625    1.1450  -11.2298 H   0  0  0  0  0  0  0  0  0  0  0  0
  1  2  2  0  0  0  0
  2  3  1  0  0  0  0
  3  4  2  0  0  0  0
  3  5  1  0  0  0  0
  5  6  2  0  0  0  0
  6  7  1  0  0  0  0
  7  8  2  0  0  0  0
  8  9  1  0  0  0  0
  9 10  2  0  0  0  0
 10 11  1  0  0  0  0
 11 12  2  0  0  0  0
 12 13  1  0  0  0  0
 13 14  3  0  0  0  0
 12 15  1  0  0  0  0
 15 16  3  0  0  0  0
  8 17  1  0  0  0  0
 17 18  1  0  0  0  0
 18 19  1  0  0  0  0
 19 20  2  0  0  0  0
 20 21  1  0  0  0  0
 21 22  1  0  0  0  0
 21 23  1  0  0  0  0
  1 24  1  0  0  0  0
 24 25  2  0  0  0  0
 25 26  1  0  0  0  0
 26 27  1  0  0  0  0
 27 28  1  0  0  0  0
 28 29  1  0  0  0  0
 29 30  1  0  0  0  0
 30 31  1  0  0  0  0
 31 32  2  0  0  0  0
 32 33  1  0  0  0  0
 33 34  1  0  0  0  0
 31 35  1  0  0  0  0
 35 36  1  0  0  0  0
 36 37  2  0  0  0  0
 37 38  1  0  0  0  0
 38 39  1  0  0  0  0
 39 40  1  0  0  0  0
 38 41  1  0  0  0  0
 41 42  1  0  0  0  0
 42 43  1  0  0  0  0
 43 44  1  0  0  0  0
 44 45  1  0  0  0  0
 45 46  1  0  0  0  0
 43 47  1  0  0  0  0
 47 48  1  0  0  0  0
 37 49  1  0  0  0  0
 49 50  2  0  0  0  0
 50 51  1  0  0  0  0
 50 52  1  0  0  0  0
 52 53  2  0  0  0  0
 53 54  1  0  0  0  0
 53 55  1  0  0  0  0
 55 56  2  0  0  0  0
 56 57  1  0  0  0  0
 57 58  2  0  0  0  0
 57 59  1  0  0  0  0
 59 60  1  0  0  0  0
 60 61  1  0  0  0  0
 61 62  2  0  0  0  0
 62 63  1  0  0  0  0
 63 64  1  0  0  0  0
 64 65  2  0  0  0  0
 65 66  1  0  0  0  0
 66 67  3  0  0  0  0
 65 68  1  0  0  0  0
 68 69  3  0  0  0  0
 11  2  1  0  0  0  0
 23 17  1  0  0  0  0
 46 24  1  0  0  0  0
 54 49  1  0  0  0  0
 64 56  1  0  0  0  0
 10  5  1  0  0  0  0
 22 18  1  0  0  0  0
 45 26  2  0  0  0  0
 63 59  2  0  0  0  0
 23  7  1  0  0  0  0
 44 28  2  0  0  0  0
 42 29  2  0  0  0  0
 34 30  2  0  0  0  0
 41 35  2  0  0  0  0
 51 36  1  0  0  0  0
  1 70  1  0  0  0  0
  6 71  1  0  0  0  0
  9 72  1  0  0  0  0
 17 73  1  0  0  0  0
 18 74  1  0  0  0  0
 19 75  1  0  0  0  0
 20 76  1  0  0  0  0
 21 77  1  0  0  0  0
 22 78  1  0  0  0  0
 22 79  1  0  0  0  0
 23 80  1  0  0  0  0
 25 81  1  0  0  0  0
 39 82  1  0  0  0  0
 39 83  1  0  0  0  0
 40 84  1  0  0  0  0
 40 85  1  0  0  0  0
 40 86  1  0  0  0  0
 47 87  1  0  0  0  0
 47 88  1  0  0  0  0
 48 89  1  0  0  0  0
 48 90  1  0  0  0  0
 48 91  1  0  0  0  0
 52 92  1  0  0  0  0
 55 93  1  0  0  0  0
 61 94  1  0  0  0  0
 62 95  1  0  0  0  0
M  END
