
  xtb     02022223293D
 energy: -195.611435724524 gnorm: 0.000244474213 xtb: 6.4.1 (unknown)
110125  0     0  0            999 V2000
   -5.4673    1.8343    4.9840 C   0  0  0  0  0  0  0  0  0  0  0  0
   -5.0511    3.1118    5.2644 C   0  0  0  0  0  0  0  0  0  0  0  0
   -3.7800    3.7186    4.8622 C   0  0  0  0  0  0  0  0  0  0  0  0
   -2.8596    3.1879    4.2607 O   0  0  0  0  0  0  0  0  0  0  0  0
   -3.8202    5.1152    5.3235 C   0  0  0  0  0  0  0  0  0  0  0  0
   -2.8388    6.0862    5.1414 C   0  0  0  0  0  0  0  0  0  0  0  0
   -3.1661    7.3153    5.6612 C   0  0  0  0  0  0  0  0  0  0  0  0
   -4.3794    7.5587    6.3181 C   0  0  0  0  0  0  0  0  0  0  0  0
   -5.3521    6.6063    6.5116 C   0  0  0  0  0  0  0  0  0  0  0  0
   -5.0418    5.3490    5.9865 C   0  0  0  0  0  0  0  0  0  0  0  0
   -5.8194    4.1100    5.9821 C   0  0  0  0  0  0  0  0  0  0  0  0
   -7.0526    3.9494    6.5622 C   0  0  0  0  0  0  0  0  0  0  0  0
   -7.8108    2.7605    6.5777 C   0  0  0  0  0  0  0  0  0  0  0  0
   -8.4932    1.8374    6.6399 N   0  0  0  0  0  0  0  0  0  0  0  0
   -7.7538    4.9648    7.2457 C   0  0  0  0  0  0  0  0  0  0  0  0
   -8.3880    5.7345    7.8150 N   0  0  0  0  0  0  0  0  0  0  0  0
   -4.0489    9.0099    6.5601 C   0  0  0  0  0  0  0  0  0  0  0  0
   -4.7252   10.0636    5.6482 C   0  0  0  0  0  0  0  0  0  0  0  0
   -5.0353    9.3692    4.3453 C   0  0  0  0  0  0  0  0  0  0  0  0
   -3.8857    9.1394    3.7251 C   0  0  0  0  0  0  0  0  0  0  0  0
   -2.7771    9.6740    4.5978 C   0  0  0  0  0  0  0  0  0  0  0  0
   -3.4898   10.8786    5.2329 C   0  0  0  0  0  0  0  0  0  0  0  0
   -2.6960    8.7383    5.8296 C   0  0  0  0  0  0  0  0  0  0  0  0
   -4.8523    0.8083    4.2575 C   0  0  0  0  0  0  0  0  0  0  0  0
   -5.4656   -0.4335    4.0180 C   0  0  0  0  0  0  0  0  0  0  0  0
   -6.7828   -0.8781    4.5644 C   0  0  0  0  0  0  0  0  0  0  0  0
   -6.6305   -1.3949    5.9976 C   0  0  0  0  0  0  0  0  0  0  0  0
   -4.6682   -1.2463    3.2231 C   0  0  0  0  0  0  0  0  0  0  0  0
   -3.4440   -0.6644    2.8529 C   0  0  0  0  0  0  0  0  0  0  0  0
   -3.2667    0.9255    3.4936 S   0  0  0  0  0  0  0  0  0  0  0  0
   -2.7130   -1.5156    2.0195 C   0  0  0  0  0  0  0  0  0  0  0  0
   -3.3945   -2.7086    1.7396 C   0  0  0  0  0  0  0  0  0  0  0  0
   -4.9211   -2.8432    2.5417 S   0  0  0  0  0  0  0  0  0  0  0  0
   -2.6303   -3.4067    0.7948 C   0  0  0  0  0  0  0  0  0  0  0  0
   -2.9200   -4.5452    0.0075 C   0  0  0  0  0  0  0  0  0  0  0  0
   -3.9660   -5.3520    0.0810 N   0  0  0  0  0  0  0  0  0  0  0  0
   -3.8799   -6.4195   -1.1329 S   0  0  0  0  0  0  0  0  0  0  0  0
   -2.5037   -5.8927   -1.8022 N   0  0  0  0  0  0  0  0  0  0  0  0
   -2.0581   -4.8659   -1.0967 C   0  0  0  0  0  0  0  0  0  0  0  0
   -0.8663   -4.1267   -1.2741 C   0  0  0  0  0  0  0  0  0  0  0  0
    0.1816   -4.2329   -2.2027 C   0  0  0  0  0  0  0  0  0  0  0  0
    0.5764   -5.1138   -3.6384 S   0  0  0  0  0  0  0  0  0  0  0  0
    2.0905   -4.2422   -3.7294 C   0  0  0  0  0  0  0  0  0  0  0  0
    3.1392   -4.2583   -4.6405 C   0  0  0  0  0  0  0  0  0  0  0  0
    4.1462   -3.3712   -4.3007 C   0  0  0  0  0  0  0  0  0  0  0  0
    3.7770   -2.5157   -2.7967 S   0  0  0  0  0  0  0  0  0  0  0  0
    2.2691   -3.3324   -2.6704 C   0  0  0  0  0  0  0  0  0  0  0  0
    1.1697   -3.3197   -1.8114 C   0  0  0  0  0  0  0  0  0  0  0  0
    0.7661   -2.6370   -0.6912 N   0  0  0  0  0  0  0  0  0  0  0  0
    1.7645   -2.0892    0.2033 C   0  0  0  0  0  0  0  0  0  0  0  0
    2.6923   -3.1830    0.7319 C   0  0  0  0  0  0  0  0  0  0  0  0
   -0.5012   -3.0909   -0.3699 C   0  0  0  0  0  0  0  0  0  0  0  0
   -1.4571   -2.6305    0.5680 C   0  0  0  0  0  0  0  0  0  0  0  0
   -1.5385   -1.4759    1.3169 N   0  0  0  0  0  0  0  0  0  0  0  0
   -0.7961   -0.2401    1.2006 C   0  0  0  0  0  0  0  0  0  0  0  0
    0.0009    0.0759    2.4664 C   0  0  0  0  0  0  0  0  0  0  0  0
    5.3866   -3.0619   -4.8925 C   0  0  0  0  0  0  0  0  0  0  0  0
    5.8695   -3.3292   -6.1429 C   0  0  0  0  0  0  0  0  0  0  0  0
    5.1239   -3.8259   -7.3243 C   0  0  0  0  0  0  0  0  0  0  0  0
    4.0227   -4.3388   -7.3496 O   0  0  0  0  0  0  0  0  0  0  0  0
    5.9915   -3.5446   -8.4843 C   0  0  0  0  0  0  0  0  0  0  0  0
    7.2119   -3.0352   -8.0448 C   0  0  0  0  0  0  0  0  0  0  0  0
    8.2084   -2.6810   -8.9643 C   0  0  0  0  0  0  0  0  0  0  0  0
    7.9578   -2.8421  -10.3018 C   0  0  0  0  0  0  0  0  0  0  0  0
    6.7315   -3.3534  -10.7794 C   0  0  0  0  0  0  0  0  0  0  0  0
    6.4823   -3.5102  -12.1580 C   0  0  0  0  0  0  0  0  0  0  0  0
    5.2844   -4.0013  -12.5990 C   0  0  0  0  0  0  0  0  0  0  0  0
    4.2815   -4.3586  -11.6836 C   0  0  0  0  0  0  0  0  0  0  0  0
    4.4860   -4.2224  -10.3383 C   0  0  0  0  0  0  0  0  0  0  0  0
    5.7109   -3.7193   -9.8538 C   0  0  0  0  0  0  0  0  0  0  0  0
    7.2009   -2.9605   -6.5887 C   0  0  0  0  0  0  0  0  0  0  0  0
    8.2797   -2.6801   -5.7918 C   0  0  0  0  0  0  0  0  0  0  0  0
    8.2794   -2.7221   -4.3809 C   0  0  0  0  0  0  0  0  0  0  0  0
    8.3687   -2.7557   -3.2362 N   0  0  0  0  0  0  0  0  0  0  0  0
    9.5661   -2.3580   -6.2731 C   0  0  0  0  0  0  0  0  0  0  0  0
   10.6350   -2.0841   -6.5904 N   0  0  0  0  0  0  0  0  0  0  0  0
   -6.4440    1.5621    5.3595 H   0  0  0  0  0  0  0  0  0  0  0  0
   -1.9185    5.8545    4.6282 H   0  0  0  0  0  0  0  0  0  0  0  0
   -6.2785    6.8126    7.0207 H   0  0  0  0  0  0  0  0  0  0  0  0
   -4.0130    9.3247    7.6011 H   0  0  0  0  0  0  0  0  0  0  0  0
   -5.5474   10.6009    6.1128 H   0  0  0  0  0  0  0  0  0  0  0  0
   -6.0236    9.0746    4.0444 H   0  0  0  0  0  0  0  0  0  0  0  0
   -3.7215    8.6141    2.8024 H   0  0  0  0  0  0  0  0  0  0  0  0
   -1.8251    9.8574    4.1065 H   0  0  0  0  0  0  0  0  0  0  0  0
   -2.9496   11.3077    6.0757 H   0  0  0  0  0  0  0  0  0  0  0  0
   -3.7234   11.6586    4.5099 H   0  0  0  0  0  0  0  0  0  0  0  0
   -1.7757    8.8742    6.3944 H   0  0  0  0  0  0  0  0  0  0  0  0
   -7.1590   -1.6847    3.9320 H   0  0  0  0  0  0  0  0  0  0  0  0
   -7.5100   -0.0648    4.5495 H   0  0  0  0  0  0  0  0  0  0  0  0
   -6.2614   -0.6095    6.6529 H   0  0  0  0  0  0  0  0  0  0  0  0
   -7.5936   -1.7295    6.3719 H   0  0  0  0  0  0  0  0  0  0  0  0
   -5.9337   -2.2293    6.0269 H   0  0  0  0  0  0  0  0  0  0  0  0
    3.1776   -4.8768   -5.5168 H   0  0  0  0  0  0  0  0  0  0  0  0
    1.2714   -1.6189    1.0466 H   0  0  0  0  0  0  0  0  0  0  0  0
    2.3463   -1.3415   -0.3447 H   0  0  0  0  0  0  0  0  0  0  0  0
    3.3997   -2.7504    1.4339 H   0  0  0  0  0  0  0  0  0  0  0  0
    3.2513   -3.6476   -0.0753 H   0  0  0  0  0  0  0  0  0  0  0  0
    2.1157   -3.9509    1.2436 H   0  0  0  0  0  0  0  0  0  0  0  0
   -0.1567   -0.2946    0.3190 H   0  0  0  0  0  0  0  0  0  0  0  0
   -1.5190    0.5673    1.0395 H   0  0  0  0  0  0  0  0  0  0  0  0
    0.5929   -0.7765    2.7935 H   0  0  0  0  0  0  0  0  0  0  0  0
   -0.6726    0.3478    3.2740 H   0  0  0  0  0  0  0  0  0  0  0  0
    0.6649    0.9150    2.2805 H   0  0  0  0  0  0  0  0  0  0  0  0
    6.0323   -2.4775   -4.2459 H   0  0  0  0  0  0  0  0  0  0  0  0
    9.1517   -2.2804   -8.6320 H   0  0  0  0  0  0  0  0  0  0  0  0
    8.7137   -2.5691  -11.0240 H   0  0  0  0  0  0  0  0  0  0  0  0
    7.2561   -3.2335  -12.8596 H   0  0  0  0  0  0  0  0  0  0  0  0
    5.1010   -4.1164  -13.6571 H   0  0  0  0  0  0  0  0  0  0  0  0
    3.3422   -4.7430  -12.0524 H   0  0  0  0  0  0  0  0  0  0  0  0
    3.7215   -4.4935   -9.6279 H   0  0  0  0  0  0  0  0  0  0  0  0
  1  2  2  0  0  0  0
  2  3  1  0  0  0  0
  3  4  2  0  0  0  0
  3  5  1  0  0  0  0
  5  6  2  0  0  0  0
  6  7  1  0  0  0  0
  7  8  2  0  0  0  0
  8  9  1  0  0  0  0
  9 10  2  0  0  0  0
 10 11  1  0  0  0  0
 11 12  2  0  0  0  0
 12 13  1  0  0  0  0
 13 14  3  0  0  0  0
 12 15  1  0  0  0  0
 15 16  3  0  0  0  0
  8 17  1  0  0  0  0
 17 18  1  0  0  0  0
 18 19  1  0  0  0  0
 19 20  2  0  0  0  0
 20 21  1  0  0  0  0
 21 22  1  0  0  0  0
 21 23  1  0  0  0  0
  1 24  1  0  0  0  0
 24 25  2  0  0  0  0
 25 26  1  0  0  0  0
 26 27  1  0  0  0  0
 25 28  1  0  0  0  0
 28 29  2  0  0  0  0
 29 30  1  0  0  0  0
 29 31  1  0  0  0  0
 31 32  2  0  0  0  0
 32 33  1  0  0  0  0
 32 34  1  0  0  0  0
 34 35  1  0  0  0  0
 35 36  2  0  0  0  0
 36 37  1  0  0  0  0
 37 38  1  0  0  0  0
 38 39  2  0  0  0  0
 39 40  1  0  0  0  0
 40 41  1  0  0  0  0
 41 42  1  0  0  0  0
 42 43  1  0  0  0  0
 43 44  1  0  0  0  0
 44 45  2  0  0  0  0
 45 46  1  0  0  0  0
 46 47  1  0  0  0  0
 47 48  1  0  0  0  0
 48 49  1  0  0  0  0
 49 50  1  0  0  0  0
 50 51  1  0  0  0  0
 49 52  1  0  0  0  0
 52 53  1  0  0  0  0
 53 54  1  0  0  0  0
 54 55  1  0  0  0  0
 55 56  1  0  0  0  0
 45 57  1  0  0  0  0
 57 58  2  0  0  0  0
 58 59  1  0  0  0  0
 59 60  2  0  0  0  0
 59 61  1  0  0  0  0
 61 62  2  0  0  0  0
 62 63  1  0  0  0  0
 63 64  2  0  0  0  0
 64 65  1  0  0  0  0
 65 66  2  0  0  0  0
 66 67  1  0  0  0  0
 67 68  2  0  0  0  0
 68 69  1  0  0  0  0
 69 70  2  0  0  0  0
 62 71  1  0  0  0  0
 71 72  2  0  0  0  0
 72 73  1  0  0  0  0
 73 74  3  0  0  0  0
 72 75  1  0  0  0  0
 75 76  3  0  0  0  0
 11  2  1  0  0  0  0
 23 17  1  0  0  0  0
 30 24  1  0  0  0  0
 54 31  1  0  0  0  0
 71 58  1  0  0  0  0
 10  5  1  0  0  0  0
 22 18  1  0  0  0  0
 33 28  1  0  0  0  0
 53 34  2  0  0  0  0
 70 61  1  0  0  0  0
 23  7  1  0  0  0  0
 39 35  1  0  0  0  0
 52 40  2  0  0  0  0
 70 65  1  0  0  0  0
 48 41  2  0  0  0  0
 47 43  2  0  0  0  0
  1 77  1  0  0  0  0
  6 78  1  0  0  0  0
  9 79  1  0  0  0  0
 17 80  1  0  0  0  0
 18 81  1  0  0  0  0
 19 82  1  0  0  0  0
 20 83  1  0  0  0  0
 21 84  1  0  0  0  0
 22 85  1  0  0  0  0
 22 86  1  0  0  0  0
 23 87  1  0  0  0  0
 26 88  1  0  0  0  0
 26 89  1  0  0  0  0
 27 90  1  0  0  0  0
 27 91  1  0  0  0  0
 27 92  1  0  0  0  0
 44 93  1  0  0  0  0
 50 94  1  0  0  0  0
 50 95  1  0  0  0  0
 51 96  1  0  0  0  0
 51 97  1  0  0  0  0
 51 98  1  0  0  0  0
 55 99  1  0  0  0  0
 55100  1  0  0  0  0
 56101  1  0  0  0  0
 56102  1  0  0  0  0
 56103  1  0  0  0  0
 57104  1  0  0  0  0
 63105  1  0  0  0  0
 64106  1  0  0  0  0
 66107  1  0  0  0  0
 67108  1  0  0  0  0
 68109  1  0  0  0  0
 69110  1  0  0  0  0
M  END
