
  xtb     02022211383D
 energy: -169.860336026558 gnorm: 0.000882432971 xtb: 6.4.1 (unknown)
 98111  0     0  0            999 V2000
   -0.5991   -2.0561    4.4598 C   0  0  0  0  0  0  0  0  0  0  0  0
    0.2093   -1.1308    5.0731 C   0  0  0  0  0  0  0  0  0  0  0  0
    0.9628   -0.0633    4.4129 C   0  0  0  0  0  0  0  0  0  0  0  0
    0.9883    0.2033    3.2215 O   0  0  0  0  0  0  0  0  0  0  0  0
    1.7035    0.6401    5.4737 C   0  0  0  0  0  0  0  0  0  0  0  0
    2.5695    1.7203    5.3186 C   0  0  0  0  0  0  0  0  0  0  0  0
    3.1295    2.1610    6.4937 C   0  0  0  0  0  0  0  0  0  0  0  0
    2.8522    1.5671    7.7317 C   0  0  0  0  0  0  0  0  0  0  0  0
    2.0009    0.5004    7.8982 C   0  0  0  0  0  0  0  0  0  0  0  0
    1.4149    0.0395    6.7155 C   0  0  0  0  0  0  0  0  0  0  0  0
    0.4746   -1.0593    6.4953 C   0  0  0  0  0  0  0  0  0  0  0  0
   -0.0497   -1.8594    7.4799 C   0  0  0  0  0  0  0  0  0  0  0  0
    0.2412   -1.7320    8.8540 C   0  0  0  0  0  0  0  0  0  0  0  0
    0.4255   -1.6901    9.9868 N   0  0  0  0  0  0  0  0  0  0  0  0
   -0.9574   -2.9211    7.2882 C   0  0  0  0  0  0  0  0  0  0  0  0
   -1.6957   -3.8003    7.2270 N   0  0  0  0  0  0  0  0  0  0  0  0
    3.7539    2.5164    8.4805 C   0  0  0  0  0  0  0  0  0  0  0  0
    3.0604    3.6532    9.2603 C   0  0  0  0  0  0  0  0  0  0  0  0
    4.1599    4.6678    9.4749 C   0  0  0  0  0  0  0  0  0  0  0  0
    4.4225    5.2321    8.3031 C   0  0  0  0  0  0  0  0  0  0  0  0
    3.5042    4.6085    7.2768 C   0  0  0  0  0  0  0  0  0  0  0  0
    2.2681    4.3540    8.1490 C   0  0  0  0  0  0  0  0  0  0  0  0
    4.0622    3.1803    7.1002 C   0  0  0  0  0  0  0  0  0  0  0  0
   -0.9174   -2.2470    3.1122 C   0  0  0  0  0  0  0  0  0  0  0  0
   -1.7608   -3.2765    2.6631 C   0  0  0  0  0  0  0  0  0  0  0  0
   -2.4889   -4.2521    3.5291 C   0  0  0  0  0  0  0  0  0  0  0  0
   -3.7855   -3.6404    4.0639 C   0  0  0  0  0  0  0  0  0  0  0  0
   -1.9012   -3.2613    1.2823 C   0  0  0  0  0  0  0  0  0  0  0  0
   -2.8641   -4.3777    0.0849 Se  0  0  0  0  0  2  0  0  0  0  0  0
   -2.1459   -3.2773   -1.2305 C   0  0  0  0  0  0  0  0  0  0  0  0
   -2.1497   -3.1715   -2.6241 C   0  0  0  0  0  0  0  0  0  0  0  0
   -2.7317   -4.0239   -3.5850 C   0  0  0  0  0  0  0  0  0  0  0  0
   -2.4896   -3.7602   -4.9679 C   0  0  0  0  0  0  0  0  0  0  0  0
   -3.0510   -4.6546   -5.7659 N   0  0  0  0  0  0  0  0  0  0  0  0
   -3.8244   -5.7419   -4.8421 S   0  0  0  0  0  0  0  0  0  0  0  0
   -3.4679   -5.1068   -3.3926 N   0  0  0  0  0  0  0  0  0  0  0  0
   -1.7562   -2.6076   -5.3161 C   0  0  0  0  0  0  0  0  0  0  0  0
   -1.4732   -2.0852   -6.5833 C   0  0  0  0  0  0  0  0  0  0  0  0
   -1.7540   -2.5256   -8.3679 Se  0  0  0  0  0  2  0  0  0  0  0  0
   -0.8866   -0.8822   -8.7259 C   0  0  0  0  0  0  0  0  0  0  0  0
   -0.5676   -0.2285   -9.9314 C   0  0  0  0  0  0  0  0  0  0  0  0
   -0.8939   -0.8426  -11.2543 C   0  0  0  0  0  0  0  0  0  0  0  0
   -2.3449   -0.5581  -11.6452 C   0  0  0  0  0  0  0  0  0  0  0  0
    0.0595    0.9770   -9.7002 C   0  0  0  0  0  0  0  0  0  0  0  0
    0.2799    1.2897   -7.9823 S   0  0  0  0  0  0  0  0  0  0  0  0
   -0.4983   -0.1982   -7.5735 C   0  0  0  0  0  0  0  0  0  0  0  0
   -0.8173   -0.8688   -6.3808 C   0  0  0  0  0  0  0  0  0  0  0  0
   -0.6603   -0.6430   -5.0390 N   0  0  0  0  0  0  0  0  0  0  0  0
   -1.2287   -1.7051   -4.3510 C   0  0  0  0  0  0  0  0  0  0  0  0
   -1.3516   -2.0430   -2.9725 C   0  0  0  0  0  0  0  0  0  0  0  0
   -0.8604   -1.5003   -1.7987 N   0  0  0  0  0  0  0  0  0  0  0  0
   -1.3292   -2.2472   -0.7487 C   0  0  0  0  0  0  0  0  0  0  0  0
   -1.1823   -2.2350    0.6446 C   0  0  0  0  0  0  0  0  0  0  0  0
   -0.3131   -1.2662    1.7777 S   0  0  0  0  0  0  0  0  0  0  0  0
    0.2155   -0.5601   -1.5808 C   0  0  0  0  0  0  0  0  0  0  0  0
    1.5448   -1.1052   -2.0983 C   0  0  0  0  0  0  0  0  0  0  0  0
   -0.2879    0.6745   -4.5766 C   0  0  0  0  0  0  0  0  0  0  0  0
   -1.4904    1.4276   -4.0110 C   0  0  0  0  0  0  0  0  0  0  0  0
    0.5442    1.9586  -10.6180 C   0  0  0  0  0  0  0  0  0  0  0  0
    0.1799    2.1997  -11.9253 C   0  0  0  0  0  0  0  0  0  0  0  0
    0.8730    3.2648  -12.5070 C   0  0  0  0  0  0  0  0  0  0  0  0
    1.7711    3.8547  -11.6500 C   0  0  0  0  0  0  0  0  0  0  0  0
    2.6081    4.9379  -11.9128 C   0  0  0  0  0  0  0  0  0  0  0  0
    3.2952    5.8312  -12.1348 N   0  0  0  0  0  0  0  0  0  0  0  0
    1.7683    3.0801  -10.0944 S   0  0  0  0  0  0  0  0  0  0  0  0
   -1.0731   -2.7752    5.1134 H   0  0  0  0  0  0  0  0  0  0  0  0
    2.7599    2.1421    4.3441 H   0  0  0  0  0  0  0  0  0  0  0  0
    1.8047    0.0535    8.8580 H   0  0  0  0  0  0  0  0  0  0  0  0
    4.5719    2.0582    9.0330 H   0  0  0  0  0  0  0  0  0  0  0  0
    2.5116    3.3314   10.1410 H   0  0  0  0  0  0  0  0  0  0  0  0
    4.6556    4.8252   10.4148 H   0  0  0  0  0  0  0  0  0  0  0  0
    5.1814    5.9553    8.0684 H   0  0  0  0  0  0  0  0  0  0  0  0
    3.3597    5.1592    6.3510 H   0  0  0  0  0  0  0  0  0  0  0  0
    1.5142    3.7259    7.6779 H   0  0  0  0  0  0  0  0  0  0  0  0
    1.8086    5.2794    8.4920 H   0  0  0  0  0  0  0  0  0  0  0  0
    5.0867    3.1658    6.7325 H   0  0  0  0  0  0  0  0  0  0  0  0
   -1.8702   -4.5814    4.3649 H   0  0  0  0  0  0  0  0  0  0  0  0
   -2.7331   -5.1268    2.9178 H   0  0  0  0  0  0  0  0  0  0  0  0
   -4.4284   -3.3410    3.2386 H   0  0  0  0  0  0  0  0  0  0  0  0
   -3.5749   -2.7671    4.6765 H   0  0  0  0  0  0  0  0  0  0  0  0
   -4.3134   -4.3680    4.6736 H   0  0  0  0  0  0  0  0  0  0  0  0
   -0.2097   -0.4792  -12.0217 H   0  0  0  0  0  0  0  0  0  0  0  0
   -0.7628   -1.9256  -11.1615 H   0  0  0  0  0  0  0  0  0  0  0  0
   -2.5313    0.5125  -11.6988 H   0  0  0  0  0  0  0  0  0  0  0  0
   -3.0177   -0.9852  -10.9033 H   0  0  0  0  0  0  0  0  0  0  0  0
   -2.5687   -1.0022  -12.6117 H   0  0  0  0  0  0  0  0  0  0  0  0
   -0.0265    0.4059   -2.0235 H   0  0  0  0  0  0  0  0  0  0  0  0
    0.2882   -0.4080   -0.5018 H   0  0  0  0  0  0  0  0  0  0  0  0
    1.8087   -2.0103   -1.5560 H   0  0  0  0  0  0  0  0  0  0  0  0
    2.3307   -0.3705   -1.9454 H   0  0  0  0  0  0  0  0  0  0  0  0
    1.4881   -1.3493   -3.1572 H   0  0  0  0  0  0  0  0  0  0  0  0
    0.5258    0.6119   -3.8547 H   0  0  0  0  0  0  0  0  0  0  0  0
    0.0967    1.2154   -5.4447 H   0  0  0  0  0  0  0  0  0  0  0  0
   -1.9498    0.8782   -3.1921 H   0  0  0  0  0  0  0  0  0  0  0  0
   -2.2391    1.5668   -4.7874 H   0  0  0  0  0  0  0  0  0  0  0  0
   -1.1806    2.4050   -3.6508 H   0  0  0  0  0  0  0  0  0  0  0  0
   -0.5849    1.6518  -12.4418 H   0  0  0  0  0  0  0  0  0  0  0  0
    0.7219    3.6045  -13.5163 H   0  0  0  0  0  0  0  0  0  0  0  0
  1  2  2  0  0  0  0
  2  3  1  0  0  0  0
  3  4  2  0  0  0  0
  3  5  1  0  0  0  0
  5  6  2  0  0  0  0
  6  7  1  0  0  0  0
  7  8  2  0  0  0  0
  8  9  1  0  0  0  0
  9 10  2  0  0  0  0
 10 11  1  0  0  0  0
 11 12  2  0  0  0  0
 12 13  1  0  0  0  0
 13 14  3  0  0  0  0
 12 15  1  0  0  0  0
 15 16  3  0  0  0  0
  8 17  1  0  0  0  0
 17 18  1  0  0  0  0
 18 19  1  0  0  0  0
 19 20  2  0  0  0  0
 20 21  1  0  0  0  0
 21 22  1  0  0  0  0
 21 23  1  0  0  0  0
  1 24  1  0  0  0  0
 24 25  2  0  0  0  0
 25 26  1  0  0  0  0
 26 27  1  0  0  0  0
 25 28  1  0  0  0  0
 28 29  1  0  0  0  0
 29 30  1  0  0  0  0
 30 31  1  0  0  0  0
 31 32  1  0  0  0  0
 32 33  1  0  0  0  0
 33 34  2  0  0  0  0
 34 35  1  0  0  0  0
 35 36  1  0  0  0  0
 33 37  1  0  0  0  0
 37 38  1  0  0  0  0
 38 39  1  0  0  0  0
 39 40  1  0  0  0  0
 40 41  1  0  0  0  0
 41 42  1  0  0  0  0
 42 43  1  0  0  0  0
 41 44  2  0  0  0  0
 44 45  1  0  0  0  0
 45 46  1  0  0  0  0
 46 47  1  0  0  0  0
 47 48  1  0  0  0  0
 48 49  1  0  0  0  0
 49 50  1  0  0  0  0
 50 51  1  0  0  0  0
 51 52  1  0  0  0  0
 52 53  1  0  0  0  0
 53 54  1  0  0  0  0
 51 55  1  0  0  0  0
 55 56  1  0  0  0  0
 48 57  1  0  0  0  0
 57 58  1  0  0  0  0
 44 59  1  0  0  0  0
 59 60  2  0  0  0  0
 60 61  1  0  0  0  0
 61 62  2  0  0  0  0
 62 63  1  0  0  0  0
 63 64  3  0  0  0  0
 62 65  1  0  0  0  0
 11  2  1  0  0  0  0
 23 17  1  0  0  0  0
 54 24  1  0  0  0  0
 65 59  1  0  0  0  0
 10  5  1  0  0  0  0
 22 18  1  0  0  0  0
 53 28  2  0  0  0  0
 23  7  1  0  0  0  0
 52 30  2  0  0  0  0
 50 31  2  0  0  0  0
 36 32  2  0  0  0  0
 49 37  2  0  0  0  0
 47 38  2  0  0  0  0
 46 40  2  0  0  0  0
  1 66  1  0  0  0  0
  6 67  1  0  0  0  0
  9 68  1  0  0  0  0
 17 69  1  0  0  0  0
 18 70  1  0  0  0  0
 19 71  1  0  0  0  0
 20 72  1  0  0  0  0
 21 73  1  0  0  0  0
 22 74  1  0  0  0  0
 22 75  1  0  0  0  0
 23 76  1  0  0  0  0
 26 77  1  0  0  0  0
 26 78  1  0  0  0  0
 27 79  1  0  0  0  0
 27 80  1  0  0  0  0
 27 81  1  0  0  0  0
 42 82  1  0  0  0  0
 42 83  1  0  0  0  0
 43 84  1  0  0  0  0
 43 85  1  0  0  0  0
 43 86  1  0  0  0  0
 55 87  1  0  0  0  0
 55 88  1  0  0  0  0
 56 89  1  0  0  0  0
 56 90  1  0  0  0  0
 56 91  1  0  0  0  0
 57 92  1  0  0  0  0
 57 93  1  0  0  0  0
 58 94  1  0  0  0  0
 58 95  1  0  0  0  0
 58 96  1  0  0  0  0
 60 97  1  0  0  0  0
 61 98  1  0  0  0  0
M  END
