
  xtb     02102220113D
 energy: -219.122611229636 gnorm: 0.000736868344 xtb: 6.4.1 (unknown)
140154  0     0  0            999 V2000
   -7.0335   -1.8249    4.0942 C   0  0  0  0  0  0  0  0  0  0  0  0
   -7.2145   -3.1743    3.9666 C   0  0  0  0  0  0  0  0  0  0  0  0
   -6.2661   -4.1502    3.3810 C   0  0  0  0  0  0  0  0  0  0  0  0
   -5.2657   -3.9455    2.7217 O   0  0  0  0  0  0  0  0  0  0  0  0
   -6.7318   -5.4784    3.8276 C   0  0  0  0  0  0  0  0  0  0  0  0
   -6.1135   -6.7007    3.5757 C   0  0  0  0  0  0  0  0  0  0  0  0
   -6.7593   -7.7788    4.1306 C   0  0  0  0  0  0  0  0  0  0  0  0
   -7.9342   -7.6514    4.8831 C   0  0  0  0  0  0  0  0  0  0  0  0
   -8.5562   -6.4519    5.1355 C   0  0  0  0  0  0  0  0  0  0  0  0
   -7.9142   -5.3418    4.5792 C   0  0  0  0  0  0  0  0  0  0  0  0
   -8.2611   -3.9250    4.6351 C   0  0  0  0  0  0  0  0  0  0  0  0
   -9.4189   -3.4088    5.1597 C   0  0  0  0  0  0  0  0  0  0  0  0
   -9.7964   -2.0503    5.1176 C   0  0  0  0  0  0  0  0  0  0  0  0
  -10.1945   -0.9725    5.1090 N   0  0  0  0  0  0  0  0  0  0  0  0
  -10.4237   -4.1757    5.7829 C   0  0  0  0  0  0  0  0  0  0  0  0
  -11.2750   -4.7353    6.3138 N   0  0  0  0  0  0  0  0  0  0  0  0
   -8.0192   -9.1338    5.1490 C   0  0  0  0  0  0  0  0  0  0  0  0
   -7.5874   -9.6419    6.5468 C   0  0  0  0  0  0  0  0  0  0  0  0
   -6.5908   -8.6417    7.0777 C   0  0  0  0  0  0  0  0  0  0  0  0
   -5.4786   -8.7610    6.3650 C   0  0  0  0  0  0  0  0  0  0  0  0
   -5.7030   -9.8446    5.3396 C   0  0  0  0  0  0  0  0  0  0  0  0
   -6.6367  -10.7754    6.1296 C   0  0  0  0  0  0  0  0  0  0  0  0
   -6.7104   -9.2757    4.3098 C   0  0  0  0  0  0  0  0  0  0  0  0
   -6.0826   -0.9816    3.4463 C   0  0  0  0  0  0  0  0  0  0  0  0
   -5.6680    0.1924    4.1246 C   0  0  0  0  0  0  0  0  0  0  0  0
   -4.7086    1.0240    3.6153 C   0  0  0  0  0  0  0  0  0  0  0  0
   -4.1374    0.7211    2.3725 C   0  0  0  0  0  0  0  0  0  0  0  0
   -3.1552    1.2905    1.5445 C   0  0  0  0  0  0  0  0  0  0  0  0
   -3.0679    0.5060    0.3858 C   0  0  0  0  0  0  0  0  0  0  0  0
   -3.9621   -0.5174    0.4361 N   0  0  0  0  0  0  0  0  0  0  0  0
   -4.6104   -0.4257    1.6471 C   0  0  0  0  0  0  0  0  0  0  0  0
   -5.5727   -1.2587    2.1725 C   0  0  0  0  0  0  0  0  0  0  0  0
   -4.0757   -1.5883   -0.5205 C   0  0  0  0  0  0  0  0  0  0  0  0
   -3.3776   -2.8551   -0.0292 C   0  0  0  0  0  0  0  0  0  0  0  0
   -2.0602    1.0566   -0.4249 C   0  0  0  0  0  0  0  0  0  0  0  0
   -1.4540    0.6591   -1.6333 C   0  0  0  0  0  0  0  0  0  0  0  0
   -0.3518    1.3981   -2.1463 C   0  0  0  0  0  0  0  0  0  0  0  0
    0.0615    0.7859   -3.2596 N   0  0  0  0  0  0  0  0  0  0  0  0
   -0.7466   -0.2422   -3.3816 N   0  0  0  0  0  0  0  0  0  0  0  0
   -0.6654   -1.1398   -4.4962 C   0  0  0  0  0  0  0  0  0  0  0  0
   -1.4809   -0.6134   -5.6743 C   0  0  0  0  0  0  0  0  0  0  0  0
   -1.6692   -0.3703   -2.4563 N   0  0  0  0  0  0  0  0  0  0  0  0
    0.0406    2.5994   -1.5223 C   0  0  0  0  0  0  0  0  0  0  0  0
   -0.6369    3.0562   -0.3549 C   0  0  0  0  0  0  0  0  0  0  0  0
   -1.5844    2.2064    0.2664 C   0  0  0  0  0  0  0  0  0  0  0  0
   -2.2435    2.3254    1.4829 N   0  0  0  0  0  0  0  0  0  0  0  0
   -1.6548    2.8566    2.6919 C   0  0  0  0  0  0  0  0  0  0  0  0
   -1.1532    1.7458    3.6155 C   0  0  0  0  0  0  0  0  0  0  0  0
   -0.2096    4.3409   -0.0549 N   0  0  0  0  0  0  0  0  0  0  0  0
   -0.8745    5.3517    0.7364 C   0  0  0  0  0  0  0  0  0  0  0  0
    0.0086    5.8917    1.8623 C   0  0  0  0  0  0  0  0  0  0  0  0
    0.7283    4.6900   -1.0013 C   0  0  0  0  0  0  0  0  0  0  0  0
    0.9237    3.6277   -1.8861 C   0  0  0  0  0  0  0  0  0  0  0  0
    1.8334    3.9637   -2.8491 N   0  0  0  0  0  0  0  0  0  0  0  0
    2.3985    3.0623   -3.8185 C   0  0  0  0  0  0  0  0  0  0  0  0
    3.6707    2.4005   -3.2873 C   0  0  0  0  0  0  0  0  0  0  0  0
    2.2374    5.2471   -2.5821 C   0  0  0  0  0  0  0  0  0  0  0  0
    1.5488    5.7624   -1.4383 C   0  0  0  0  0  0  0  0  0  0  0  0
    1.7963    7.0793   -1.0527 C   0  0  0  0  0  0  0  0  0  0  0  0
    2.7217    7.8232   -1.7506 C   0  0  0  0  0  0  0  0  0  0  0  0
    3.4137    7.3047   -2.8520 C   0  0  0  0  0  0  0  0  0  0  0  0
    3.1543    6.0165   -3.2814 C   0  0  0  0  0  0  0  0  0  0  0  0
    4.4768    8.1713   -3.5033 C   0  0  0  0  0  0  0  0  0  0  0  0
    4.7517    7.8157   -4.9237 C   0  0  0  0  0  0  0  0  0  0  0  0
    5.5452    6.7802   -5.2269 C   0  0  0  0  0  0  0  0  0  0  0  0
    6.1199    5.9536   -4.1956 C   0  0  0  0  0  0  0  0  0  0  0  0
    6.4208    4.6239   -4.4180 C   0  0  0  0  0  0  0  0  0  0  0  0
    5.9120    3.9476   -5.6099 C   0  0  0  0  0  0  0  0  0  0  0  0
    5.0599    4.4113   -6.3457 O   0  0  0  0  0  0  0  0  0  0  0  0
    6.4159    2.6780   -5.8656 N   0  0  0  0  0  0  0  0  0  0  0  0
    5.9769    2.0413   -7.1024 C   0  0  0  0  0  0  0  0  0  0  0  0
    6.9306    2.3438   -8.2503 C   0  0  0  0  0  0  0  0  0  0  0  0
    7.2807    2.0148   -5.0445 C   0  0  0  0  0  0  0  0  0  0  0  0
    7.9225    0.5591   -5.4877 S   0  0  0  0  0  0  0  0  0  0  0  0
    7.5697    2.5731   -3.8348 N   0  0  0  0  0  0  0  0  0  0  0  0
    7.1733    3.8477   -3.4368 C   0  0  0  0  0  0  0  0  0  0  0  0
    7.4923    4.2498   -2.3334 O   0  0  0  0  0  0  0  0  0  0  0  0
    8.3978    1.8304   -2.8906 C   0  0  0  0  0  0  0  0  0  0  0  0
    9.8798    2.0902   -3.1247 C   0  0  0  0  0  0  0  0  0  0  0  0
    6.3390    6.5918   -2.8619 C   0  0  0  0  0  0  0  0  0  0  0  0
    5.8183    8.0219   -2.7647 C   0  0  0  0  0  0  0  0  0  0  0  0
   -7.6458   -1.3230    4.8354 H   0  0  0  0  0  0  0  0  0  0  0  0
   -5.2075   -6.7529    2.9921 H   0  0  0  0  0  0  0  0  0  0  0  0
   -9.4567   -6.3695    5.7209 H   0  0  0  0  0  0  0  0  0  0  0  0
   -8.9150   -9.6333    4.7849 H   0  0  0  0  0  0  0  0  0  0  0  0
   -8.4109   -9.8966    7.2087 H   0  0  0  0  0  0  0  0  0  0  0  0
   -6.8102   -7.9321    7.8539 H   0  0  0  0  0  0  0  0  0  0  0  0
   -4.5833   -8.1703    6.4265 H   0  0  0  0  0  0  0  0  0  0  0  0
   -4.8099  -10.2843    4.9028 H   0  0  0  0  0  0  0  0  0  0  0  0
   -6.1431  -11.2455    6.9790 H   0  0  0  0  0  0  0  0  0  0  0  0
   -7.1133  -11.5367    5.5135 H   0  0  0  0  0  0  0  0  0  0  0  0
   -6.7516   -9.8694    3.3984 H   0  0  0  0  0  0  0  0  0  0  0  0
   -6.1079    0.4088    5.0871 H   0  0  0  0  0  0  0  0  0  0  0  0
   -4.3987    1.9041    4.1595 H   0  0  0  0  0  0  0  0  0  0  0  0
   -5.9483   -2.0942    1.6087 H   0  0  0  0  0  0  0  0  0  0  0  0
   -3.6075   -1.2450   -1.4464 H   0  0  0  0  0  0  0  0  0  0  0  0
   -5.1359   -1.7894   -0.7038 H   0  0  0  0  0  0  0  0  0  0  0  0
   -2.3214   -2.6549    0.1345 H   0  0  0  0  0  0  0  0  0  0  0  0
   -3.4705   -3.6383   -0.7768 H   0  0  0  0  0  0  0  0  0  0  0  0
   -3.8174   -3.2040    0.9016 H   0  0  0  0  0  0  0  0  0  0  0  0
    0.3872   -1.2312   -4.7729 H   0  0  0  0  0  0  0  0  0  0  0  0
   -1.0506   -2.1065   -4.1657 H   0  0  0  0  0  0  0  0  0  0  0  0
   -2.5257   -0.5114   -5.3910 H   0  0  0  0  0  0  0  0  0  0  0  0
   -1.1049    0.3587   -5.9842 H   0  0  0  0  0  0  0  0  0  0  0  0
   -1.4097   -1.3013   -6.5120 H   0  0  0  0  0  0  0  0  0  0  0  0
   -0.8043    3.4702    2.4107 H   0  0  0  0  0  0  0  0  0  0  0  0
   -2.3943    3.4725    3.2155 H   0  0  0  0  0  0  0  0  0  0  0  0
   -1.9704    1.1143    3.9516 H   0  0  0  0  0  0  0  0  0  0  0  0
   -0.4297    1.1248    3.0913 H   0  0  0  0  0  0  0  0  0  0  0  0
   -0.6710    2.1848    4.4854 H   0  0  0  0  0  0  0  0  0  0  0  0
   -1.8094    4.9470    1.1262 H   0  0  0  0  0  0  0  0  0  0  0  0
   -1.1252    6.1838    0.0665 H   0  0  0  0  0  0  0  0  0  0  0  0
   -0.4828    6.7375    2.3362 H   0  0  0  0  0  0  0  0  0  0  0  0
    0.9636    6.2182    1.4617 H   0  0  0  0  0  0  0  0  0  0  0  0
    0.2097    5.1428    2.6239 H   0  0  0  0  0  0  0  0  0  0  0  0
    2.6191    3.6176   -4.7346 H   0  0  0  0  0  0  0  0  0  0  0  0
    1.6499    2.2945   -4.0305 H   0  0  0  0  0  0  0  0  0  0  0  0
    3.4402    1.8003   -2.4104 H   0  0  0  0  0  0  0  0  0  0  0  0
    4.4053    3.1541   -3.0077 H   0  0  0  0  0  0  0  0  0  0  0  0
    4.1003    1.7534   -4.0479 H   0  0  0  0  0  0  0  0  0  0  0  0
    1.2701    7.5265   -0.2232 H   0  0  0  0  0  0  0  0  0  0  0  0
    2.9200    8.8398   -1.4418 H   0  0  0  0  0  0  0  0  0  0  0  0
    3.6386    5.6072   -4.1524 H   0  0  0  0  0  0  0  0  0  0  0  0
    4.1493    9.2139   -3.4403 H   0  0  0  0  0  0  0  0  0  0  0  0
    4.2871    8.3989   -5.7041 H   0  0  0  0  0  0  0  0  0  0  0  0
    5.7160    6.5084   -6.2564 H   0  0  0  0  0  0  0  0  0  0  0  0
    5.9174    0.9657   -6.9297 H   0  0  0  0  0  0  0  0  0  0  0  0
    4.9840    2.4378   -7.3228 H   0  0  0  0  0  0  0  0  0  0  0  0
    7.9239    1.9609   -8.0291 H   0  0  0  0  0  0  0  0  0  0  0  0
    6.9904    3.4167   -8.4177 H   0  0  0  0  0  0  0  0  0  0  0  0
    6.5685    1.8681   -9.1570 H   0  0  0  0  0  0  0  0  0  0  0  0
    8.1727    0.7691   -3.0044 H   0  0  0  0  0  0  0  0  0  0  0  0
    8.1113    2.1657   -1.8923 H   0  0  0  0  0  0  0  0  0  0  0  0
   10.1706    1.7627   -4.1199 H   0  0  0  0  0  0  0  0  0  0  0  0
   10.0961    3.1507   -3.0192 H   0  0  0  0  0  0  0  0  0  0  0  0
   10.4636    1.5396   -2.3931 H   0  0  0  0  0  0  0  0  0  0  0  0
    7.4035    6.5568   -2.6161 H   0  0  0  0  0  0  0  0  0  0  0  0
    5.8493    5.9665   -2.1102 H   0  0  0  0  0  0  0  0  0  0  0  0
    5.7003    8.2878   -1.7138 H   0  0  0  0  0  0  0  0  0  0  0  0
    6.5357    8.7130   -3.2139 H   0  0  0  0  0  0  0  0  0  0  0  0
  1  2  2  0  0  0  0
  2  3  1  0  0  0  0
  3  4  2  0  0  0  0
  3  5  1  0  0  0  0
  5  6  2  0  0  0  0
  6  7  1  0  0  0  0
  7  8  2  0  0  0  0
  8  9  1  0  0  0  0
  9 10  2  0  0  0  0
 10 11  1  0  0  0  0
 11 12  2  0  0  0  0
 12 13  1  0  0  0  0
 13 14  3  0  0  0  0
 12 15  1  0  0  0  0
 15 16  3  0  0  0  0
  8 17  1  0  0  0  0
 17 18  1  0  0  0  0
 18 19  1  0  0  0  0
 19 20  2  0  0  0  0
 20 21  1  0  0  0  0
 21 22  1  0  0  0  0
 21 23  1  0  0  0  0
  1 24  1  0  0  0  0
 24 25  2  0  0  0  0
 25 26  1  0  0  0  0
 26 27  2  0  0  0  0
 27 28  1  0  0  0  0
 28 29  2  0  0  0  0
 29 30  1  0  0  0  0
 30 31  1  0  0  0  0
 31 32  2  0  0  0  0
 30 33  1  0  0  0  0
 33 34  1  0  0  0  0
 29 35  1  0  0  0  0
 35 36  1  0  0  0  0
 36 37  1  0  0  0  0
 37 38  2  0  0  0  0
 38 39  1  0  0  0  0
 39 40  1  0  0  0  0
 40 41  1  0  0  0  0
 39 42  1  0  0  0  0
 37 43  1  0  0  0  0
 43 44  2  0  0  0  0
 44 45  1  0  0  0  0
 45 46  1  0  0  0  0
 46 47  1  0  0  0  0
 47 48  1  0  0  0  0
 44 49  1  0  0  0  0
 49 50  1  0  0  0  0
 50 51  1  0  0  0  0
 49 52  1  0  0  0  0
 52 53  2  0  0  0  0
 53 54  1  0  0  0  0
 54 55  1  0  0  0  0
 55 56  1  0  0  0  0
 54 57  1  0  0  0  0
 57 58  2  0  0  0  0
 58 59  1  0  0  0  0
 59 60  2  0  0  0  0
 60 61  1  0  0  0  0
 61 62  2  0  0  0  0
 61 63  1  0  0  0  0
 63 64  1  0  0  0  0
 64 65  2  0  0  0  0
 65 66  1  0  0  0  0
 66 67  2  0  0  0  0
 67 68  1  0  0  0  0
 68 69  2  0  0  0  0
 68 70  1  0  0  0  0
 70 71  1  0  0  0  0
 71 72  1  0  0  0  0
 70 73  1  0  0  0  0
 73 74  2  0  0  0  0
 73 75  1  0  0  0  0
 75 76  1  0  0  0  0
 76 77  2  0  0  0  0
 75 78  1  0  0  0  0
 78 79  1  0  0  0  0
 66 80  1  0  0  0  0
 80 81  1  0  0  0  0
 11  2  1  0  0  0  0
 23 17  1  0  0  0  0
 32 24  1  0  0  0  0
 45 35  2  0  0  0  0
 58 52  1  0  0  0  0
 81 63  1  0  0  0  0
 10  5  1  0  0  0  0
 22 18  1  0  0  0  0
 31 27  1  0  0  0  0
 42 36  2  0  0  0  0
 53 43  1  0  0  0  0
 62 57  1  0  0  0  0
 76 67  1  0  0  0  0
 23  7  1  0  0  0  0
 46 28  1  0  0  0  0
  1 82  1  0  0  0  0
  6 83  1  0  0  0  0
  9 84  1  0  0  0  0
 17 85  1  0  0  0  0
 18 86  1  0  0  0  0
 19 87  1  0  0  0  0
 20 88  1  0  0  0  0
 21 89  1  0  0  0  0
 22 90  1  0  0  0  0
 22 91  1  0  0  0  0
 23 92  1  0  0  0  0
 25 93  1  0  0  0  0
 26 94  1  0  0  0  0
 32 95  1  0  0  0  0
 33 96  1  0  0  0  0
 33 97  1  0  0  0  0
 34 98  1  0  0  0  0
 34 99  1  0  0  0  0
 34100  1  0  0  0  0
 40101  1  0  0  0  0
 40102  1  0  0  0  0
 41103  1  0  0  0  0
 41104  1  0  0  0  0
 41105  1  0  0  0  0
 47106  1  0  0  0  0
 47107  1  0  0  0  0
 48108  1  0  0  0  0
 48109  1  0  0  0  0
 48110  1  0  0  0  0
 50111  1  0  0  0  0
 50112  1  0  0  0  0
 51113  1  0  0  0  0
 51114  1  0  0  0  0
 51115  1  0  0  0  0
 55116  1  0  0  0  0
 55117  1  0  0  0  0
 56118  1  0  0  0  0
 56119  1  0  0  0  0
 56120  1  0  0  0  0
 59121  1  0  0  0  0
 60122  1  0  0  0  0
 62123  1  0  0  0  0
 63124  1  0  0  0  0
 64125  1  0  0  0  0
 65126  1  0  0  0  0
 71127  1  0  0  0  0
 71128  1  0  0  0  0
 72129  1  0  0  0  0
 72130  1  0  0  0  0
 72131  1  0  0  0  0
 78132  1  0  0  0  0
 78133  1  0  0  0  0
 79134  1  0  0  0  0
 79135  1  0  0  0  0
 79136  1  0  0  0  0
 80137  1  0  0  0  0
 80138  1  0  0  0  0
 81139  1  0  0  0  0
 81140  1  0  0  0  0
M  END
