
  xtb     02022200113D
 energy: -226.357362271576 gnorm: 0.000847392116 xtb: 6.4.1 (unknown)
130146  0     0  0            999 V2000
   -5.2318    1.9120   -4.0519 C   0  0  0  0  0  0  0  0  0  0  0  0
   -6.3667    1.3667   -3.5107 C   0  0  0  0  0  0  0  0  0  0  0  0
   -6.4166    0.3153   -2.4922 C   0  0  0  0  0  0  0  0  0  0  0  0
   -5.4757   -0.1970   -1.9066 O   0  0  0  0  0  0  0  0  0  0  0  0
   -7.8383   -0.0234   -2.3180 C   0  0  0  0  0  0  0  0  0  0  0  0
   -8.3725   -0.9878   -1.4661 C   0  0  0  0  0  0  0  0  0  0  0  0
   -9.7426   -1.0801   -1.5165 C   0  0  0  0  0  0  0  0  0  0  0  0
  -10.5239   -0.2787   -2.3593 C   0  0  0  0  0  0  0  0  0  0  0  0
  -10.0094    0.6745   -3.2062 C   0  0  0  0  0  0  0  0  0  0  0  0
   -8.6170    0.7926   -3.1642 C   0  0  0  0  0  0  0  0  0  0  0  0
   -7.7252    1.6949   -3.8916 C   0  0  0  0  0  0  0  0  0  0  0  0
   -8.1221    2.7065   -4.7287 C   0  0  0  0  0  0  0  0  0  0  0  0
   -7.2705    3.6389   -5.3586 C   0  0  0  0  0  0  0  0  0  0  0  0
   -6.6612    4.4546   -5.8913 N   0  0  0  0  0  0  0  0  0  0  0  0
   -9.4651    2.9885   -5.0546 C   0  0  0  0  0  0  0  0  0  0  0  0
  -10.5331    3.2731   -5.3658 N   0  0  0  0  0  0  0  0  0  0  0  0
  -11.8144   -0.9021   -1.8884 C   0  0  0  0  0  0  0  0  0  0  0  0
  -12.6556   -0.0732   -0.8949 C   0  0  0  0  0  0  0  0  0  0  0  0
  -13.5675   -1.0938   -0.2530 C   0  0  0  0  0  0  0  0  0  0  0  0
  -12.8271   -1.8494    0.5480 C   0  0  0  0  0  0  0  0  0  0  0  0
  -11.4021   -1.3525    0.4604 C   0  0  0  0  0  0  0  0  0  0  0  0
  -11.6579    0.1455    0.2499 C   0  0  0  0  0  0  0  0  0  0  0  0
  -10.9430   -1.7932   -0.9460 C   0  0  0  0  0  0  0  0  0  0  0  0
   -3.8861    1.7258   -3.7137 C   0  0  0  0  0  0  0  0  0  0  0  0
   -2.8605    2.4263   -4.3699 C   0  0  0  0  0  0  0  0  0  0  0  0
   -3.1073    3.2822   -5.5404 C   0  0  0  0  0  0  0  0  0  0  0  0
   -3.4386    2.6703   -6.7460 C   0  0  0  0  0  0  0  0  0  0  0  0
   -3.6912    3.4286   -7.8723 C   0  0  0  0  0  0  0  0  0  0  0  0
   -3.6224    4.8087   -7.7967 C   0  0  0  0  0  0  0  0  0  0  0  0
   -3.3009    5.4181   -6.5985 C   0  0  0  0  0  0  0  0  0  0  0  0
   -3.0370    4.6736   -5.4569 C   0  0  0  0  0  0  0  0  0  0  0  0
   -2.7794    5.3688   -4.1507 C   0  0  0  0  0  0  0  0  0  0  0  0
   -4.0750    5.4797   -3.3434 C   0  0  0  0  0  0  0  0  0  0  0  0
   -1.6204    2.1761   -3.7953 C   0  0  0  0  0  0  0  0  0  0  0  0
   -0.0069    2.7654   -4.1472 S   0  0  0  0  0  0  0  0  0  0  0  0
    0.5895    1.8136   -2.8303 C   0  0  0  0  0  0  0  0  0  0  0  0
    1.7903    1.5958   -2.1412 C   0  0  0  0  0  0  0  0  0  0  0  0
    3.0536    2.2227   -2.2381 C   0  0  0  0  0  0  0  0  0  0  0  0
    4.0413    1.9573   -1.2299 C   0  0  0  0  0  0  0  0  0  0  0  0
    5.1396    2.6763   -1.3976 N   0  0  0  0  0  0  0  0  0  0  0  0
    4.9534    3.6005   -2.7134 S   0  0  0  0  0  0  0  0  0  0  0  0
    3.4607    3.1233   -3.1180 N   0  0  0  0  0  0  0  0  0  0  0  0
    3.7741    0.9729   -0.2518 C   0  0  0  0  0  0  0  0  0  0  0  0
    4.5582    0.4477    0.7877 C   0  0  0  0  0  0  0  0  0  0  0  0
    6.0970    0.7110    1.5335 S   0  0  0  0  0  0  0  0  0  0  0  0
    5.7722   -0.6252    2.6153 C   0  0  0  0  0  0  0  0  0  0  0  0
    6.5071   -1.1799    3.6705 C   0  0  0  0  0  0  0  0  0  0  0  0
    7.7865   -0.6046    4.0973 C   0  0  0  0  0  0  0  0  0  0  0  0
    8.0204   -0.1145    5.3862 C   0  0  0  0  0  0  0  0  0  0  0  0
    6.9490   -0.0565    6.4446 C   0  0  0  0  0  0  0  0  0  0  0  0
    7.4107   -0.6018    7.7968 C   0  0  0  0  0  0  0  0  0  0  0  0
    9.2762    0.4114    5.6682 C   0  0  0  0  0  0  0  0  0  0  0  0
   10.2797    0.4498    4.7184 C   0  0  0  0  0  0  0  0  0  0  0  0
   10.0304   -0.0079    3.4364 C   0  0  0  0  0  0  0  0  0  0  0  0
    8.7868   -0.5190    3.1276 C   0  0  0  0  0  0  0  0  0  0  0  0
    5.8288   -2.2581    4.2428 C   0  0  0  0  0  0  0  0  0  0  0  0
    4.2378   -2.5053    3.5089 S   0  0  0  0  0  0  0  0  0  0  0  0
    4.5235   -1.2256    2.3948 C   0  0  0  0  0  0  0  0  0  0  0  0
    3.8304   -0.6063    1.3539 C   0  0  0  0  0  0  0  0  0  0  0  0
    2.6185   -0.7393    0.7242 N   0  0  0  0  0  0  0  0  0  0  0  0
    2.5517    0.2432   -0.2491 C   0  0  0  0  0  0  0  0  0  0  0  0
    1.5027    0.6600   -1.1054 C   0  0  0  0  0  0  0  0  0  0  0  0
    0.1552    0.3663   -1.1390 N   0  0  0  0  0  0  0  0  0  0  0  0
   -0.3996    1.0637   -2.1788 C   0  0  0  0  0  0  0  0  0  0  0  0
   -1.6731    1.2781   -2.7142 C   0  0  0  0  0  0  0  0  0  0  0  0
   -3.2793    0.7332   -2.3953 S   0  0  0  0  0  0  0  0  0  0  0  0
   -0.6895   -0.2303   -0.1274 C   0  0  0  0  0  0  0  0  0  0  0  0
   -1.3141   -1.5456   -0.5950 C   0  0  0  0  0  0  0  0  0  0  0  0
    1.9697   -2.0337    0.7416 C   0  0  0  0  0  0  0  0  0  0  0  0
    2.8199   -3.0841    0.0271 C   0  0  0  0  0  0  0  0  0  0  0  0
    6.1525   -3.1085    5.3148 C   0  0  0  0  0  0  0  0  0  0  0  0
    7.4000   -3.4576    5.7636 C   0  0  0  0  0  0  0  0  0  0  0  0
    8.6399   -3.4013    4.9627 C   0  0  0  0  0  0  0  0  0  0  0  0
    8.7563   -3.0711    3.8012 O   0  0  0  0  0  0  0  0  0  0  0  0
    9.6898   -3.9933    5.8172 C   0  0  0  0  0  0  0  0  0  0  0  0
   11.0359   -4.1447    5.5466 C   0  0  0  0  0  0  0  0  0  0  0  0
   11.8371   -4.7554    6.4987 C   0  0  0  0  0  0  0  0  0  0  0  0
   11.2616   -5.2018    7.6788 C   0  0  0  0  0  0  0  0  0  0  0  0
   12.0511   -5.7988    8.5873 F   0  0  0  0  0  0  0  0  0  0  0  0
    9.9114   -5.0651    7.9715 C   0  0  0  0  0  0  0  0  0  0  0  0
    9.1188   -4.4463    7.0191 C   0  0  0  0  0  0  0  0  0  0  0  0
    7.6925   -4.1200    7.0146 C   0  0  0  0  0  0  0  0  0  0  0  0
    6.8255   -4.3152    8.0595 C   0  0  0  0  0  0  0  0  0  0  0  0
    5.4889   -3.8661    8.0926 C   0  0  0  0  0  0  0  0  0  0  0  0
    4.4051   -3.5036    8.2092 N   0  0  0  0  0  0  0  0  0  0  0  0
    7.1688   -4.9620    9.2644 C   0  0  0  0  0  0  0  0  0  0  0  0
    7.3838   -5.4875   10.2622 N   0  0  0  0  0  0  0  0  0  0  0  0
   -5.3648    2.6142   -4.8665 H   0  0  0  0  0  0  0  0  0  0  0  0
   -7.7328   -1.5881   -0.8383 H   0  0  0  0  0  0  0  0  0  0  0  0
  -10.6244    1.2783   -3.8520 H   0  0  0  0  0  0  0  0  0  0  0  0
  -12.4154   -1.3869   -2.6552 H   0  0  0  0  0  0  0  0  0  0  0  0
  -13.1288    0.8062   -1.3228 H   0  0  0  0  0  0  0  0  0  0  0  0
  -14.6123   -1.1930   -0.4821 H   0  0  0  0  0  0  0  0  0  0  0  0
  -13.1295   -2.7058    1.1216 H   0  0  0  0  0  0  0  0  0  0  0  0
  -10.7337   -1.6382    1.2683 H   0  0  0  0  0  0  0  0  0  0  0  0
  -10.7730    0.7118   -0.0346 H   0  0  0  0  0  0  0  0  0  0  0  0
  -12.1231    0.6093    1.1181 H   0  0  0  0  0  0  0  0  0  0  0  0
  -10.9649   -2.8730   -1.0819 H   0  0  0  0  0  0  0  0  0  0  0  0
   -3.4919    1.5913   -6.7910 H   0  0  0  0  0  0  0  0  0  0  0  0
   -3.9476    2.9435   -8.8020 H   0  0  0  0  0  0  0  0  0  0  0  0
   -3.8282    5.4098   -8.6693 H   0  0  0  0  0  0  0  0  0  0  0  0
   -3.2614    6.4959   -6.5399 H   0  0  0  0  0  0  0  0  0  0  0  0
   -2.3942    6.3708   -4.3467 H   0  0  0  0  0  0  0  0  0  0  0  0
   -2.0327    4.8283   -3.5670 H   0  0  0  0  0  0  0  0  0  0  0  0
   -4.4318    4.4943   -3.0512 H   0  0  0  0  0  0  0  0  0  0  0  0
   -4.8496    5.9564   -3.9398 H   0  0  0  0  0  0  0  0  0  0  0  0
   -3.9120    6.0680   -2.4432 H   0  0  0  0  0  0  0  0  0  0  0  0
    6.6490    0.9887    6.5707 H   0  0  0  0  0  0  0  0  0  0  0  0
    6.0666   -0.6072    6.1205 H   0  0  0  0  0  0  0  0  0  0  0  0
    6.5531   -0.7657    8.4453 H   0  0  0  0  0  0  0  0  0  0  0  0
    7.9342   -1.5466    7.6693 H   0  0  0  0  0  0  0  0  0  0  0  0
    8.0833    0.0909    8.2954 H   0  0  0  0  0  0  0  0  0  0  0  0
    9.4682    0.8092    6.6532 H   0  0  0  0  0  0  0  0  0  0  0  0
   11.2485    0.8515    4.9761 H   0  0  0  0  0  0  0  0  0  0  0  0
   10.7987    0.0354    2.6797 H   0  0  0  0  0  0  0  0  0  0  0  0
    8.5862   -0.8916    2.1355 H   0  0  0  0  0  0  0  0  0  0  0  0
   -1.4981    0.4768    0.0882 H   0  0  0  0  0  0  0  0  0  0  0  0
   -0.1079   -0.3549    0.7870 H   0  0  0  0  0  0  0  0  0  0  0  0
   -0.5731   -2.2096   -1.0353 H   0  0  0  0  0  0  0  0  0  0  0  0
   -2.0776   -1.3529   -1.3430 H   0  0  0  0  0  0  0  0  0  0  0  0
   -1.7831   -2.0477    0.2464 H   0  0  0  0  0  0  0  0  0  0  0  0
    1.8217   -2.3226    1.7867 H   0  0  0  0  0  0  0  0  0  0  0  0
    1.0083   -1.9704    0.2470 H   0  0  0  0  0  0  0  0  0  0  0  0
    2.2995   -4.0378    0.0312 H   0  0  0  0  0  0  0  0  0  0  0  0
    2.9980   -2.7863   -1.0043 H   0  0  0  0  0  0  0  0  0  0  0  0
    3.7789   -3.2128    0.5216 H   0  0  0  0  0  0  0  0  0  0  0  0
    5.2962   -3.5491    5.8135 H   0  0  0  0  0  0  0  0  0  0  0  0
   11.4426   -3.7856    4.6143 H   0  0  0  0  0  0  0  0  0  0  0  0
   12.8951   -4.8932    6.3417 H   0  0  0  0  0  0  0  0  0  0  0  0
    9.5287   -5.4394    8.9066 H   0  0  0  0  0  0  0  0  0  0  0  0
  1  2  2  0  0  0  0
  2  3  1  0  0  0  0
  3  4  2  0  0  0  0
  3  5  1  0  0  0  0
  5  6  2  0  0  0  0
  6  7  1  0  0  0  0
  7  8  2  0  0  0  0
  8  9  1  0  0  0  0
  9 10  2  0  0  0  0
 10 11  1  0  0  0  0
 11 12  2  0  0  0  0
 12 13  1  0  0  0  0
 13 14  3  0  0  0  0
 12 15  1  0  0  0  0
 15 16  3  0  0  0  0
  8 17  1  0  0  0  0
 17 18  1  0  0  0  0
 18 19  1  0  0  0  0
 19 20  2  0  0  0  0
 20 21  1  0  0  0  0
 21 22  1  0  0  0  0
 21 23  1  0  0  0  0
  1 24  1  0  0  0  0
 24 25  2  0  0  0  0
 25 26  1  0  0  0  0
 26 27  2  0  0  0  0
 27 28  1  0  0  0  0
 28 29  2  0  0  0  0
 29 30  1  0  0  0  0
 30 31  2  0  0  0  0
 31 32  1  0  0  0  0
 32 33  1  0  0  0  0
 25 34  1  0  0  0  0
 34 35  1  0  0  0  0
 35 36  1  0  0  0  0
 36 37  1  0  0  0  0
 37 38  1  0  0  0  0
 38 39  1  0  0  0  0
 39 40  2  0  0  0  0
 40 41  1  0  0  0  0
 41 42  1  0  0  0  0
 39 43  1  0  0  0  0
 43 44  1  0  0  0  0
 44 45  1  0  0  0  0
 45 46  1  0  0  0  0
 46 47  1  0  0  0  0
 47 48  1  0  0  0  0
 48 49  2  0  0  0  0
 49 50  1  0  0  0  0
 50 51  1  0  0  0  0
 49 52  1  0  0  0  0
 52 53  2  0  0  0  0
 53 54  1  0  0  0  0
 54 55  2  0  0  0  0
 47 56  2  0  0  0  0
 56 57  1  0  0  0  0
 57 58  1  0  0  0  0
 58 59  1  0  0  0  0
 59 60  1  0  0  0  0
 60 61  1  0  0  0  0
 61 62  1  0  0  0  0
 62 63  1  0  0  0  0
 63 64  1  0  0  0  0
 64 65  1  0  0  0  0
 65 66  1  0  0  0  0
 63 67  1  0  0  0  0
 67 68  1  0  0  0  0
 60 69  1  0  0  0  0
 69 70  1  0  0  0  0
 56 71  1  0  0  0  0
 71 72  2  0  0  0  0
 72 73  1  0  0  0  0
 73 74  2  0  0  0  0
 73 75  1  0  0  0  0
 75 76  2  0  0  0  0
 76 77  1  0  0  0  0
 77 78  2  0  0  0  0
 78 79  1  0  0  0  0
 78 80  1  0  0  0  0
 80 81  2  0  0  0  0
 81 82  1  0  0  0  0
 82 83  2  0  0  0  0
 83 84  1  0  0  0  0
 84 85  3  0  0  0  0
 83 86  1  0  0  0  0
 86 87  3  0  0  0  0
 11  2  1  0  0  0  0
 23 17  1  0  0  0  0
 66 24  1  0  0  0  0
 82 72  1  0  0  0  0
 10  5  1  0  0  0  0
 22 18  1  0  0  0  0
 31 26  1  0  0  0  0
 65 34  2  0  0  0  0
 81 75  1  0  0  0  0
 23  7  1  0  0  0  0
 64 36  2  0  0  0  0
 62 37  2  0  0  0  0
 42 38  2  0  0  0  0
 61 43  2  0  0  0  0
 59 44  2  0  0  0  0
 58 46  2  0  0  0  0
 55 48  1  0  0  0  0
  1 88  1  0  0  0  0
  6 89  1  0  0  0  0
  9 90  1  0  0  0  0
 17 91  1  0  0  0  0
 18 92  1  0  0  0  0
 19 93  1  0  0  0  0
 20 94  1  0  0  0  0
 21 95  1  0  0  0  0
 22 96  1  0  0  0  0
 22 97  1  0  0  0  0
 23 98  1  0  0  0  0
 27 99  1  0  0  0  0
 28100  1  0  0  0  0
 29101  1  0  0  0  0
 30102  1  0  0  0  0
 32103  1  0  0  0  0
 32104  1  0  0  0  0
 33105  1  0  0  0  0
 33106  1  0  0  0  0
 33107  1  0  0  0  0
 50108  1  0  0  0  0
 50109  1  0  0  0  0
 51110  1  0  0  0  0
 51111  1  0  0  0  0
 51112  1  0  0  0  0
 52113  1  0  0  0  0
 53114  1  0  0  0  0
 54115  1  0  0  0  0
 55116  1  0  0  0  0
 67117  1  0  0  0  0
 67118  1  0  0  0  0
 68119  1  0  0  0  0
 68120  1  0  0  0  0
 68121  1  0  0  0  0
 69122  1  0  0  0  0
 69123  1  0  0  0  0
 70124  1  0  0  0  0
 70125  1  0  0  0  0
 70126  1  0  0  0  0
 71127  1  0  0  0  0
 76128  1  0  0  0  0
 77129  1  0  0  0  0
 80130  1  0  0  0  0
M  END
