
  xtb     02012223443D
 energy: -244.749194952618 gnorm: 0.000648641163 xtb: 6.4.1 (unknown)
139155  0     0  0            999 V2000
   -6.2591   -2.2303   -4.2323 C   0  0  0  0  0  0  0  0  0  0  0  0
   -7.5755   -1.8945   -4.1196 C   0  0  0  0  0  0  0  0  0  0  0  0
   -8.1570   -1.2179   -2.9331 C   0  0  0  0  0  0  0  0  0  0  0  0
   -7.5675   -0.8052   -1.9570 O   0  0  0  0  0  0  0  0  0  0  0  0
   -9.6178   -1.2893   -3.1125 C   0  0  0  0  0  0  0  0  0  0  0  0
  -10.5875   -0.7987   -2.2411 C   0  0  0  0  0  0  0  0  0  0  0  0
  -11.8776   -1.0138   -2.6613 C   0  0  0  0  0  0  0  0  0  0  0  0
  -12.1841   -1.6828   -3.8544 C   0  0  0  0  0  0  0  0  0  0  0  0
  -11.2380   -2.1824   -4.7172 C   0  0  0  0  0  0  0  0  0  0  0  0
   -9.9171   -1.9635   -4.3142 C   0  0  0  0  0  0  0  0  0  0  0  0
   -8.6651   -2.3355   -4.9654 C   0  0  0  0  0  0  0  0  0  0  0  0
   -8.5362   -2.9169   -6.2003 C   0  0  0  0  0  0  0  0  0  0  0  0
   -7.3030   -3.1764   -6.8341 C   0  0  0  0  0  0  0  0  0  0  0  0
   -6.3376   -3.4018   -7.4139 N   0  0  0  0  0  0  0  0  0  0  0  0
   -9.6168   -3.3063   -7.0177 C   0  0  0  0  0  0  0  0  0  0  0  0
  -10.4510   -3.6493   -7.7282 N   0  0  0  0  0  0  0  0  0  0  0  0
  -13.6707   -1.5348   -3.6479 C   0  0  0  0  0  0  0  0  0  0  0  0
  -14.4076   -0.4514   -4.4737 C   0  0  0  0  0  0  0  0  0  0  0  0
  -13.3853    0.6099   -4.7970 C   0  0  0  0  0  0  0  0  0  0  0  0
  -13.0930    1.2467   -3.6709 C   0  0  0  0  0  0  0  0  0  0  0  0
  -13.9126    0.6277   -2.5657 C   0  0  0  0  0  0  0  0  0  0  0  0
  -15.1815    0.2525   -3.3474 C   0  0  0  0  0  0  0  0  0  0  0  0
  -13.3285   -0.7861   -2.3212 C   0  0  0  0  0  0  0  0  0  0  0  0
   -5.1866   -1.6320   -3.5226 C   0  0  0  0  0  0  0  0  0  0  0  0
   -4.9240   -0.3009   -3.2366 C   0  0  0  0  0  0  0  0  0  0  0  0
   -5.7235    0.8723   -3.7053 C   0  0  0  0  0  0  0  0  0  0  0  0
   -6.1713    1.7746   -2.5559 C   0  0  0  0  0  0  0  0  0  0  0  0
   -3.6895   -0.1621   -2.5831 C   0  0  0  0  0  0  0  0  0  0  0  0
   -2.8316    1.2342   -1.9733 S   0  0  0  0  0  0  0  0  0  0  0  0
   -1.5755    0.1910   -1.4163 C   0  0  0  0  0  0  0  0  0  0  0  0
   -0.3722    0.2746   -0.7032 C   0  0  0  0  0  0  0  0  0  0  0  0
    0.2324    1.4103   -0.1125 C   0  0  0  0  0  0  0  0  0  0  0  0
   -0.2397    2.6371   -0.3201 N   0  0  0  0  0  0  0  0  0  0  0  0
    0.3203    3.6496    0.3225 C   0  0  0  0  0  0  0  0  0  0  0  0
   -0.1335    4.9568   -0.0965 C   0  0  0  0  0  0  0  0  0  0  0  0
    0.8712    6.3759   -0.0565 S   0  0  0  0  0  0  0  0  0  0  0  0
   -0.3503    7.3413   -0.8111 C   0  0  0  0  0  0  0  0  0  0  0  0
   -0.1405    8.7840   -1.1140 C   0  0  0  0  0  0  0  0  0  0  0  0
    0.9254    8.9806   -2.1931 C   0  0  0  0  0  0  0  0  0  0  0  0
   -1.4465    6.5700   -1.0724 C   0  0  0  0  0  0  0  0  0  0  0  0
   -1.3386    5.2223   -0.6888 C   0  0  0  0  0  0  0  0  0  0  0  0
   -2.5546    7.0676   -1.6509 F   0  0  0  0  0  0  0  0  0  0  0  0
    1.3256    3.4042    1.3066 C   0  0  0  0  0  0  0  0  0  0  0  0
    1.7878    4.3781    2.2646 C   0  0  0  0  0  0  0  0  0  0  0  0
    1.1278    5.4197    2.8580 C   0  0  0  0  0  0  0  0  0  0  0  0
    1.9319    6.0577    3.8172 C   0  0  0  0  0  0  0  0  0  0  0  0
    1.4961    7.1167    4.5254 F   0  0  0  0  0  0  0  0  0  0  0  0
    3.1803    5.5274    3.9816 C   0  0  0  0  0  0  0  0  0  0  0  0
    4.2612    5.9950    4.8938 C   0  0  0  0  0  0  0  0  0  0  0  0
    5.5028    6.4315    4.1161 C   0  0  0  0  0  0  0  0  0  0  0  0
    3.3806    4.1737    2.9259 S   0  0  0  0  0  0  0  0  0  0  0  0
    1.8752    2.2055    1.4176 N   0  0  0  0  0  0  0  0  0  0  0  0
    1.3793    1.2071    0.6913 C   0  0  0  0  0  0  0  0  0  0  0  0
    1.9445   -0.0906    0.7230 C   0  0  0  0  0  0  0  0  0  0  0  0
    3.1191   -0.5251    1.3520 C   0  0  0  0  0  0  0  0  0  0  0  0
    4.3700    0.1103    2.3534 S   0  0  0  0  0  0  0  0  0  0  0  0
    5.1444   -1.4620    2.3544 C   0  0  0  0  0  0  0  0  0  0  0  0
    6.3284   -1.9431    2.9287 C   0  0  0  0  0  0  0  0  0  0  0  0
    7.1861   -1.1772    3.8766 C   0  0  0  0  0  0  0  0  0  0  0  0
    6.3912   -0.3406    4.8752 C   0  0  0  0  0  0  0  0  0  0  0  0
    6.5375   -3.2816    2.5939 C   0  0  0  0  0  0  0  0  0  0  0  0
    5.2138   -3.9475    1.6318 S   0  0  0  0  0  0  0  0  0  0  0  0
    4.4348   -2.4139    1.6023 C   0  0  0  0  0  0  0  0  0  0  0  0
    3.2769   -1.8776    1.0348 C   0  0  0  0  0  0  0  0  0  0  0  0
    2.2301   -2.3020    0.2578 N   0  0  0  0  0  0  0  0  0  0  0  0
    2.3339   -3.5554   -0.4546 C   0  0  0  0  0  0  0  0  0  0  0  0
    2.6274   -3.3308   -1.9362 C   0  0  0  0  0  0  0  0  0  0  0  0
    1.3885   -1.2210    0.0549 C   0  0  0  0  0  0  0  0  0  0  0  0
    0.1427   -1.0502   -0.6003 C   0  0  0  0  0  0  0  0  0  0  0  0
   -0.7487   -1.9094   -1.2222 N   0  0  0  0  0  0  0  0  0  0  0  0
   -1.7915   -1.1601   -1.6988 C   0  0  0  0  0  0  0  0  0  0  0  0
   -3.0030   -1.3642   -2.3695 C   0  0  0  0  0  0  0  0  0  0  0  0
   -3.8719   -2.6986   -3.0276 S   0  0  0  0  0  0  0  0  0  0  0  0
   -0.8787   -3.3463   -1.1449 C   0  0  0  0  0  0  0  0  0  0  0  0
   -1.1449   -3.8062    0.2867 C   0  0  0  0  0  0  0  0  0  0  0  0
    7.5477   -4.1884    2.9573 C   0  0  0  0  0  0  0  0  0  0  0  0
    8.8743   -3.9188    3.1847 C   0  0  0  0  0  0  0  0  0  0  0  0
    9.6043   -2.7552    2.6419 C   0  0  0  0  0  0  0  0  0  0  0  0
    9.1553   -1.8158    2.0174 O   0  0  0  0  0  0  0  0  0  0  0  0
   11.0337   -3.0336    2.9006 C   0  0  0  0  0  0  0  0  0  0  0  0
   12.1351   -2.2648    2.5775 C   0  0  0  0  0  0  0  0  0  0  0  0
   13.3945   -2.7395    2.9091 C   0  0  0  0  0  0  0  0  0  0  0  0
   13.5192   -3.9686    3.5427 C   0  0  0  0  0  0  0  0  0  0  0  0
   15.2576   -4.6033    3.9763 Br  0  0  0  0  0  0  0  0  0  0  0  0
   12.4224   -4.7568    3.8709 C   0  0  0  0  0  0  0  0  0  0  0  0
   11.1658   -4.2756    3.5450 C   0  0  0  0  0  0  0  0  0  0  0  0
    9.8326   -4.8395    3.7541 C   0  0  0  0  0  0  0  0  0  0  0  0
    9.5459   -5.9852    4.4496 C   0  0  0  0  0  0  0  0  0  0  0  0
    8.2418   -6.4433    4.7332 C   0  0  0  0  0  0  0  0  0  0  0  0
    7.2121   -6.8592    5.0255 N   0  0  0  0  0  0  0  0  0  0  0  0
   10.5208   -6.8404    5.0036 C   0  0  0  0  0  0  0  0  0  0  0  0
   11.2691   -7.5766    5.4680 N   0  0  0  0  0  0  0  0  0  0  0  0
   -5.9823   -3.0530   -4.8817 H   0  0  0  0  0  0  0  0  0  0  0  0
  -10.3087   -0.2946   -1.3289 H   0  0  0  0  0  0  0  0  0  0  0  0
  -11.4882   -2.7042   -5.6258 H   0  0  0  0  0  0  0  0  0  0  0  0
  -14.2370   -2.4615   -3.5792 H   0  0  0  0  0  0  0  0  0  0  0  0
  -14.9817   -0.8360   -5.3121 H   0  0  0  0  0  0  0  0  0  0  0  0
  -12.9513    0.7460   -5.7702 H   0  0  0  0  0  0  0  0  0  0  0  0
  -12.3652    2.0215   -3.5148 H   0  0  0  0  0  0  0  0  0  0  0  0
  -14.0364    1.2262   -1.6669 H   0  0  0  0  0  0  0  0  0  0  0  0
  -15.7338    1.1235   -3.6968 H   0  0  0  0  0  0  0  0  0  0  0  0
  -15.8489   -0.4108   -2.7990 H   0  0  0  0  0  0  0  0  0  0  0  0
  -13.6742   -1.2213   -1.3856 H   0  0  0  0  0  0  0  0  0  0  0  0
   -5.0893    1.4528   -4.3837 H   0  0  0  0  0  0  0  0  0  0  0  0
   -6.5923    0.5265   -4.2665 H   0  0  0  0  0  0  0  0  0  0  0  0
   -5.3118    2.1957   -2.0417 H   0  0  0  0  0  0  0  0  0  0  0  0
   -6.7603    1.2047   -1.8433 H   0  0  0  0  0  0  0  0  0  0  0  0
   -6.7772    2.5893   -2.9445 H   0  0  0  0  0  0  0  0  0  0  0  0
   -1.0905    9.2060   -1.4488 H   0  0  0  0  0  0  0  0  0  0  0  0
    0.1681    9.3060   -0.2045 H   0  0  0  0  0  0  0  0  0  0  0  0
    1.8760    8.5677   -1.8629 H   0  0  0  0  0  0  0  0  0  0  0  0
    0.6305    8.4811   -3.1131 H   0  0  0  0  0  0  0  0  0  0  0  0
    1.0571   10.0394   -2.3994 H   0  0  0  0  0  0  0  0  0  0  0  0
   -2.1052    4.4847   -0.8325 H   0  0  0  0  0  0  0  0  0  0  0  0
    0.1147    5.7089    2.6493 H   0  0  0  0  0  0  0  0  0  0  0  0
    4.5328    5.1882    5.5798 H   0  0  0  0  0  0  0  0  0  0  0  0
    3.8765    6.8303    5.4828 H   0  0  0  0  0  0  0  0  0  0  0  0
    6.2732    6.7730    4.8025 H   0  0  0  0  0  0  0  0  0  0  0  0
    5.8939    5.5991    3.5358 H   0  0  0  0  0  0  0  0  0  0  0  0
    5.2583    7.2439    3.4360 H   0  0  0  0  0  0  0  0  0  0  0  0
    7.8235   -1.8805    4.4178 H   0  0  0  0  0  0  0  0  0  0  0  0
    7.8463   -0.5273    3.2932 H   0  0  0  0  0  0  0  0  0  0  0  0
    5.8735    0.4777    4.3835 H   0  0  0  0  0  0  0  0  0  0  0  0
    7.0694    0.0806    5.6131 H   0  0  0  0  0  0  0  0  0  0  0  0
    5.6589   -0.9566    5.3924 H   0  0  0  0  0  0  0  0  0  0  0  0
    1.4362   -4.1554   -0.3085 H   0  0  0  0  0  0  0  0  0  0  0  0
    3.1637   -4.1032   -0.0015 H   0  0  0  0  0  0  0  0  0  0  0  0
    3.5811   -2.8211   -2.0525 H   0  0  0  0  0  0  0  0  0  0  0  0
    2.6804   -4.2848   -2.4536 H   0  0  0  0  0  0  0  0  0  0  0  0
    1.8577   -2.7186   -2.4009 H   0  0  0  0  0  0  0  0  0  0  0  0
   -1.7307   -3.6160   -1.7740 H   0  0  0  0  0  0  0  0  0  0  0  0
   -0.0002   -3.8323   -1.5694 H   0  0  0  0  0  0  0  0  0  0  0  0
   -0.3596   -3.4704    0.9604 H   0  0  0  0  0  0  0  0  0  0  0  0
   -1.2037   -4.8905    0.3246 H   0  0  0  0  0  0  0  0  0  0  0  0
   -2.0892   -3.3967    0.6376 H   0  0  0  0  0  0  0  0  0  0  0  0
    7.2318   -5.2249    3.0046 H   0  0  0  0  0  0  0  0  0  0  0  0
   12.0083   -1.3154    2.0810 H   0  0  0  0  0  0  0  0  0  0  0  0
   14.2775   -2.1642    2.6778 H   0  0  0  0  0  0  0  0  0  0  0  0
   12.5658   -5.7084    4.3565 H   0  0  0  0  0  0  0  0  0  0  0  0
  1  2  2  0  0  0  0
  2  3  1  0  0  0  0
  3  4  2  0  0  0  0
  3  5  1  0  0  0  0
  5  6  2  0  0  0  0
  6  7  1  0  0  0  0
  7  8  2  0  0  0  0
  8  9  1  0  0  0  0
  9 10  2  0  0  0  0
 10 11  1  0  0  0  0
 11 12  2  0  0  0  0
 12 13  1  0  0  0  0
 13 14  3  0  0  0  0
 12 15  1  0  0  0  0
 15 16  3  0  0  0  0
  8 17  1  0  0  0  0
 17 18  1  0  0  0  0
 18 19  1  0  0  0  0
 19 20  2  0  0  0  0
 20 21  1  0  0  0  0
 21 22  1  0  0  0  0
 21 23  1  0  0  0  0
  1 24  1  0  0  0  0
 24 25  2  0  0  0  0
 25 26  1  0  0  0  0
 26 27  1  0  0  0  0
 25 28  1  0  0  0  0
 28 29  1  0  0  0  0
 29 30  1  0  0  0  0
 30 31  1  0  0  0  0
 31 32  2  0  0  0  0
 32 33  1  0  0  0  0
 33 34  2  0  0  0  0
 34 35  1  0  0  0  0
 35 36  1  0  0  0  0
 36 37  1  0  0  0  0
 37 38  1  0  0  0  0
 38 39  1  0  0  0  0
 37 40  2  0  0  0  0
 40 41  1  0  0  0  0
 40 42  1  0  0  0  0
 34 43  1  0  0  0  0
 43 44  1  0  0  0  0
 44 45  2  0  0  0  0
 45 46  1  0  0  0  0
 46 47  1  0  0  0  0
 46 48  2  0  0  0  0
 48 49  1  0  0  0  0
 49 50  1  0  0  0  0
 48 51  1  0  0  0  0
 43 52  2  0  0  0  0
 52 53  1  0  0  0  0
 53 54  2  0  0  0  0
 54 55  1  0  0  0  0
 55 56  1  0  0  0  0
 56 57  1  0  0  0  0
 57 58  1  0  0  0  0
 58 59  1  0  0  0  0
 59 60  1  0  0  0  0
 58 61  2  0  0  0  0
 61 62  1  0  0  0  0
 62 63  1  0  0  0  0
 63 64  1  0  0  0  0
 64 65  1  0  0  0  0
 65 66  1  0  0  0  0
 66 67  1  0  0  0  0
 65 68  1  0  0  0  0
 68 69  2  0  0  0  0
 69 70  1  0  0  0  0
 70 71  1  0  0  0  0
 71 72  1  0  0  0  0
 72 73  1  0  0  0  0
 70 74  1  0  0  0  0
 74 75  1  0  0  0  0
 61 76  1  0  0  0  0
 76 77  2  0  0  0  0
 77 78  1  0  0  0  0
 78 79  2  0  0  0  0
 78 80  1  0  0  0  0
 80 81  2  0  0  0  0
 81 82  1  0  0  0  0
 82 83  2  0  0  0  0
 83 84  1  0  0  0  0
 83 85  1  0  0  0  0
 85 86  2  0  0  0  0
 86 87  1  0  0  0  0
 87 88  2  0  0  0  0
 88 89  1  0  0  0  0
 89 90  3  0  0  0  0
 88 91  1  0  0  0  0
 91 92  3  0  0  0  0
 11  2  1  0  0  0  0
 23 17  1  0  0  0  0
 73 24  1  0  0  0  0
 87 77  1  0  0  0  0
 10  5  1  0  0  0  0
 22 18  1  0  0  0  0
 72 28  2  0  0  0  0
 86 80  1  0  0  0  0
 23  7  1  0  0  0  0
 71 30  2  0  0  0  0
 69 31  1  0  0  0  0
 53 32  1  0  0  0  0
 68 54  1  0  0  0  0
 41 35  2  0  0  0  0
 51 44  1  0  0  0  0
 64 55  2  0  0  0  0
 63 57  2  0  0  0  0
  1 93  1  0  0  0  0
  6 94  1  0  0  0  0
  9 95  1  0  0  0  0
 17 96  1  0  0  0  0
 18 97  1  0  0  0  0
 19 98  1  0  0  0  0
 20 99  1  0  0  0  0
 21100  1  0  0  0  0
 22101  1  0  0  0  0
 22102  1  0  0  0  0
 23103  1  0  0  0  0
 26104  1  0  0  0  0
 26105  1  0  0  0  0
 27106  1  0  0  0  0
 27107  1  0  0  0  0
 27108  1  0  0  0  0
 38109  1  0  0  0  0
 38110  1  0  0  0  0
 39111  1  0  0  0  0
 39112  1  0  0  0  0
 39113  1  0  0  0  0
 41114  1  0  0  0  0
 45115  1  0  0  0  0
 49116  1  0  0  0  0
 49117  1  0  0  0  0
 50118  1  0  0  0  0
 50119  1  0  0  0  0
 50120  1  0  0  0  0
 59121  1  0  0  0  0
 59122  1  0  0  0  0
 60123  1  0  0  0  0
 60124  1  0  0  0  0
 60125  1  0  0  0  0
 66126  1  0  0  0  0
 66127  1  0  0  0  0
 67128  1  0  0  0  0
 67129  1  0  0  0  0
 67130  1  0  0  0  0
 74131  1  0  0  0  0
 74132  1  0  0  0  0
 75133  1  0  0  0  0
 75134  1  0  0  0  0
 75135  1  0  0  0  0
 76136  1  0  0  0  0
 81137  1  0  0  0  0
 82138  1  0  0  0  0
 85139  1  0  0  0  0
M  END
