
  xtb     02022212283D
 energy: -191.492498232637 gnorm: 0.000361118766 xtb: 6.4.1 (unknown)
104119  0     0  0            999 V2000
   -3.4930    4.6252   -1.8920 C   0  0  0  0  0  0  0  0  0  0  0  0
   -4.6132    4.1453   -1.2614 C   0  0  0  0  0  0  0  0  0  0  0  0
   -4.6558    3.0798   -0.2566 C   0  0  0  0  0  0  0  0  0  0  0  0
   -3.7295    2.3852    0.1299 O   0  0  0  0  0  0  0  0  0  0  0  0
   -6.0479    3.0110    0.2174 C   0  0  0  0  0  0  0  0  0  0  0  0
   -6.5577    2.1730    1.2059 C   0  0  0  0  0  0  0  0  0  0  0  0
   -7.8976    2.3515    1.4537 C   0  0  0  0  0  0  0  0  0  0  0  0
   -8.6719    3.3007    0.7736 C   0  0  0  0  0  0  0  0  0  0  0  0
   -8.1811    4.1322   -0.2050 C   0  0  0  0  0  0  0  0  0  0  0  0
   -6.8219    3.9603   -0.4801 C   0  0  0  0  0  0  0  0  0  0  0  0
   -5.9600    4.6513   -1.4384 C   0  0  0  0  0  0  0  0  0  0  0  0
   -6.3832    5.5808   -2.3548 C   0  0  0  0  0  0  0  0  0  0  0  0
   -5.5709    6.2289   -3.3080 C   0  0  0  0  0  0  0  0  0  0  0  0
   -4.9835    6.7962   -4.1169 N   0  0  0  0  0  0  0  0  0  0  0  0
   -7.7187    6.0115   -2.4978 C   0  0  0  0  0  0  0  0  0  0  0  0
   -8.7807    6.4098   -2.6775 N   0  0  0  0  0  0  0  0  0  0  0  0
   -9.9250    2.9385    1.5304 C   0  0  0  0  0  0  0  0  0  0  0  0
  -10.9817    2.0718    0.8023 C   0  0  0  0  0  0  0  0  0  0  0  0
  -10.2357    1.2696   -0.2347 C   0  0  0  0  0  0  0  0  0  0  0  0
   -9.5024    0.3667    0.4027 C   0  0  0  0  0  0  0  0  0  0  0  0
   -9.7399    0.5418    1.8824 C   0  0  0  0  0  0  0  0  0  0  0  0
  -11.2102    0.9895    1.8695 C   0  0  0  0  0  0  0  0  0  0  0  0
   -9.0636    1.8763    2.2837 C   0  0  0  0  0  0  0  0  0  0  0  0
   -2.1507    4.2398   -1.7994 C   0  0  0  0  0  0  0  0  0  0  0  0
   -1.1208    4.8842   -2.5055 C   0  0  0  0  0  0  0  0  0  0  0  0
   -1.2894    6.0089   -3.4738 C   0  0  0  0  0  0  0  0  0  0  0  0
   -1.6478    5.4772   -4.8642 C   0  0  0  0  0  0  0  0  0  0  0  0
    0.1133    4.3065   -2.2388 C   0  0  0  0  0  0  0  0  0  0  0  0
    0.0612    3.2229   -1.3454 C   0  0  0  0  0  0  0  0  0  0  0  0
   -1.5465    2.9133   -0.8051 S   0  0  0  0  0  0  0  0  0  0  0  0
    1.3369    2.6970   -1.1205 C   0  0  0  0  0  0  0  0  0  0  0  0
    2.3344    3.3934   -1.8154 C   0  0  0  0  0  0  0  0  0  0  0  0
    1.7334    4.6864   -2.7931 S   0  0  0  0  0  0  0  0  0  0  0  0
    3.5618    2.8288   -1.4467 C   0  0  0  0  0  0  0  0  0  0  0  0
    4.8886    3.2339   -1.7141 C   0  0  0  0  0  0  0  0  0  0  0  0
    5.3100    4.2336   -2.4720 N   0  0  0  0  0  0  0  0  0  0  0  0
    6.9224    4.3218   -2.3554 S   0  0  0  0  0  0  0  0  0  0  0  0
    7.1452    3.0852   -1.3346 N   0  0  0  0  0  0  0  0  0  0  0  0
    5.9652    2.5581   -1.0502 C   0  0  0  0  0  0  0  0  0  0  0  0
    5.6748    1.4218   -0.2617 C   0  0  0  0  0  0  0  0  0  0  0  0
    6.5202    0.4957    0.3634 C   0  0  0  0  0  0  0  0  0  0  0  0
    8.2098    0.2454    0.6411 S   0  0  0  0  0  0  0  0  0  0  0  0
    7.8230   -1.2758    1.4193 C   0  0  0  0  0  0  0  0  0  0  0  0
    8.5917   -2.2699    1.9949 C   0  0  0  0  0  0  0  0  0  0  0  0
    7.8274   -3.3357    2.4712 C   0  0  0  0  0  0  0  0  0  0  0  0
    6.1092   -3.0779    2.1957 S   0  0  0  0  0  0  0  0  0  0  0  0
    6.4427   -1.5568    1.4554 C   0  0  0  0  0  0  0  0  0  0  0  0
    5.7059   -0.5296    0.8601 C   0  0  0  0  0  0  0  0  0  0  0  0
    4.3875   -0.2507    0.6057 N   0  0  0  0  0  0  0  0  0  0  0  0
    3.4460   -1.3506    0.5944 C   0  0  0  0  0  0  0  0  0  0  0  0
    3.3640   -1.9814   -0.7939 C   0  0  0  0  0  0  0  0  0  0  0  0
    4.3407    0.9529   -0.0781 C   0  0  0  0  0  0  0  0  0  0  0  0
    3.2692    1.7475   -0.5629 C   0  0  0  0  0  0  0  0  0  0  0  0
    1.9043    1.7082   -0.3621 N   0  0  0  0  0  0  0  0  0  0  0  0
    1.1276    1.0678    0.6754 C   0  0  0  0  0  0  0  0  0  0  0  0
    0.2230   -0.0334    0.1247 C   0  0  0  0  0  0  0  0  0  0  0  0
    8.4083   -4.4570    3.0827 C   0  0  0  0  0  0  0  0  0  0  0  0
    7.8350   -5.6004    3.5704 C   0  0  0  0  0  0  0  0  0  0  0  0
    6.3993   -5.9359    3.5513 C   0  0  0  0  0  0  0  0  0  0  0  0
    5.4803   -5.2517    3.1377 O   0  0  0  0  0  0  0  0  0  0  0  0
    6.3052   -7.2768    4.1371 C   0  0  0  0  0  0  0  0  0  0  0  0
    7.5784   -7.7047    4.4926 C   0  0  0  0  0  0  0  0  0  0  0  0
    7.6144   -9.2794    5.1973 S   0  0  0  0  0  0  0  0  0  0  0  0
    5.8908   -9.3851    5.0165 C   0  0  0  0  0  0  0  0  0  0  0  0
    4.9364  -10.3723    5.3245 C   0  0  0  0  0  0  0  0  0  0  0  0
    3.6861   -9.9660    4.9779 C   0  0  0  0  0  0  0  0  0  0  0  0
    3.6260   -8.3864    4.2735 S   0  0  0  0  0  0  0  0  0  0  0  0
    5.3332   -8.2381    4.4360 C   0  0  0  0  0  0  0  0  0  0  0  0
    8.5631   -6.7087    4.1725 C   0  0  0  0  0  0  0  0  0  0  0  0
    9.9087   -6.8389    4.4151 C   0  0  0  0  0  0  0  0  0  0  0  0
   10.8999   -5.8844    4.1231 C   0  0  0  0  0  0  0  0  0  0  0  0
   11.7569   -5.1489    3.9119 N   0  0  0  0  0  0  0  0  0  0  0  0
   10.4210   -8.0086    5.0138 C   0  0  0  0  0  0  0  0  0  0  0  0
   10.8464   -8.9577    5.4988 N   0  0  0  0  0  0  0  0  0  0  0  0
   -3.6511    5.4522   -2.5707 H   0  0  0  0  0  0  0  0  0  0  0  0
   -5.9231    1.4617    1.7112 H   0  0  0  0  0  0  0  0  0  0  0  0
   -8.7907    4.8599   -0.7138 H   0  0  0  0  0  0  0  0  0  0  0  0
  -10.3752    3.7376    2.1160 H   0  0  0  0  0  0  0  0  0  0  0  0
  -11.8510    2.6208    0.4506 H   0  0  0  0  0  0  0  0  0  0  0  0
  -10.2723    1.4730   -1.2889 H   0  0  0  0  0  0  0  0  0  0  0  0
   -8.8033   -0.3353   -0.0128 H   0  0  0  0  0  0  0  0  0  0  0  0
   -9.4795   -0.3038    2.5137 H   0  0  0  0  0  0  0  0  0  0  0  0
  -11.5513    1.3868    2.8245 H   0  0  0  0  0  0  0  0  0  0  0  0
  -11.8866    0.2044    1.5349 H   0  0  0  0  0  0  0  0  0  0  0  0
   -8.9559    1.9785    3.3620 H   0  0  0  0  0  0  0  0  0  0  0  0
   -2.0621    6.7035   -3.1420 H   0  0  0  0  0  0  0  0  0  0  0  0
   -0.3437    6.5516   -3.5326 H   0  0  0  0  0  0  0  0  0  0  0  0
   -1.7430    6.3047   -5.5610 H   0  0  0  0  0  0  0  0  0  0  0  0
   -0.8727    4.8038   -5.2226 H   0  0  0  0  0  0  0  0  0  0  0  0
   -2.5931    4.9406   -4.8386 H   0  0  0  0  0  0  0  0  0  0  0  0
    9.6636   -2.2478    2.0726 H   0  0  0  0  0  0  0  0  0  0  0  0
    2.4616   -1.0306    0.9204 H   0  0  0  0  0  0  0  0  0  0  0  0
    3.8150   -2.0878    1.3117 H   0  0  0  0  0  0  0  0  0  0  0  0
    2.6667   -2.8144   -0.7804 H   0  0  0  0  0  0  0  0  0  0  0  0
    3.0305   -1.2509   -1.5287 H   0  0  0  0  0  0  0  0  0  0  0  0
    4.3401   -2.3526   -1.0973 H   0  0  0  0  0  0  0  0  0  0  0  0
    0.4940    1.8362    1.1322 H   0  0  0  0  0  0  0  0  0  0  0  0
    1.8067    0.7024    1.4470 H   0  0  0  0  0  0  0  0  0  0  0  0
   -0.2560   -0.5590    0.9459 H   0  0  0  0  0  0  0  0  0  0  0  0
    0.7804   -0.7463   -0.4767 H   0  0  0  0  0  0  0  0  0  0  0  0
   -0.5543    0.4036   -0.4959 H   0  0  0  0  0  0  0  0  0  0  0  0
    9.4868   -4.3843    3.1601 H   0  0  0  0  0  0  0  0  0  0  0  0
    5.1654  -11.3207    5.7730 H   0  0  0  0  0  0  0  0  0  0  0  0
    2.7697  -10.5099    5.0945 H   0  0  0  0  0  0  0  0  0  0  0  0
  1  2  2  0  0  0  0
  2  3  1  0  0  0  0
  3  4  2  0  0  0  0
  3  5  1  0  0  0  0
  5  6  2  0  0  0  0
  6  7  1  0  0  0  0
  7  8  2  0  0  0  0
  8  9  1  0  0  0  0
  9 10  2  0  0  0  0
 10 11  1  0  0  0  0
 11 12  2  0  0  0  0
 12 13  1  0  0  0  0
 13 14  3  0  0  0  0
 12 15  1  0  0  0  0
 15 16  3  0  0  0  0
  8 17  1  0  0  0  0
 17 18  1  0  0  0  0
 18 19  1  0  0  0  0
 19 20  2  0  0  0  0
 20 21  1  0  0  0  0
 21 22  1  0  0  0  0
 21 23  1  0  0  0  0
  1 24  1  0  0  0  0
 24 25  2  0  0  0  0
 25 26  1  0  0  0  0
 26 27  1  0  0  0  0
 25 28  1  0  0  0  0
 28 29  2  0  0  0  0
 29 30  1  0  0  0  0
 29 31  1  0  0  0  0
 31 32  2  0  0  0  0
 32 33  1  0  0  0  0
 32 34  1  0  0  0  0
 34 35  1  0  0  0  0
 35 36  2  0  0  0  0
 36 37  1  0  0  0  0
 37 38  1  0  0  0  0
 38 39  2  0  0  0  0
 39 40  1  0  0  0  0
 40 41  1  0  0  0  0
 41 42  1  0  0  0  0
 42 43  1  0  0  0  0
 43 44  1  0  0  0  0
 44 45  2  0  0  0  0
 45 46  1  0  0  0  0
 46 47  1  0  0  0  0
 47 48  1  0  0  0  0
 48 49  1  0  0  0  0
 49 50  1  0  0  0  0
 50 51  1  0  0  0  0
 49 52  1  0  0  0  0
 52 53  1  0  0  0  0
 53 54  1  0  0  0  0
 54 55  1  0  0  0  0
 55 56  1  0  0  0  0
 45 57  1  0  0  0  0
 57 58  2  0  0  0  0
 58 59  1  0  0  0  0
 59 60  2  0  0  0  0
 59 61  1  0  0  0  0
 61 62  2  0  0  0  0
 62 63  1  0  0  0  0
 63 64  1  0  0  0  0
 64 65  1  0  0  0  0
 65 66  2  0  0  0  0
 66 67  1  0  0  0  0
 67 68  1  0  0  0  0
 62 69  1  0  0  0  0
 69 70  2  0  0  0  0
 70 71  1  0  0  0  0
 71 72  3  0  0  0  0
 70 73  1  0  0  0  0
 73 74  3  0  0  0  0
 11  2  1  0  0  0  0
 23 17  1  0  0  0  0
 30 24  1  0  0  0  0
 54 31  1  0  0  0  0
 69 58  1  0  0  0  0
 10  5  1  0  0  0  0
 22 18  1  0  0  0  0
 33 28  1  0  0  0  0
 53 34  2  0  0  0  0
 68 61  1  0  0  0  0
 23  7  1  0  0  0  0
 39 35  1  0  0  0  0
 52 40  2  0  0  0  0
 68 64  2  0  0  0  0
 48 41  2  0  0  0  0
 47 43  2  0  0  0  0
  1 75  1  0  0  0  0
  6 76  1  0  0  0  0
  9 77  1  0  0  0  0
 17 78  1  0  0  0  0
 18 79  1  0  0  0  0
 19 80  1  0  0  0  0
 20 81  1  0  0  0  0
 21 82  1  0  0  0  0
 22 83  1  0  0  0  0
 22 84  1  0  0  0  0
 23 85  1  0  0  0  0
 26 86  1  0  0  0  0
 26 87  1  0  0  0  0
 27 88  1  0  0  0  0
 27 89  1  0  0  0  0
 27 90  1  0  0  0  0
 44 91  1  0  0  0  0
 50 92  1  0  0  0  0
 50 93  1  0  0  0  0
 51 94  1  0  0  0  0
 51 95  1  0  0  0  0
 51 96  1  0  0  0  0
 55 97  1  0  0  0  0
 55 98  1  0  0  0  0
 56 99  1  0  0  0  0
 56100  1  0  0  0  0
 56101  1  0  0  0  0
 57102  1  0  0  0  0
 65103  1  0  0  0  0
 66104  1  0  0  0  0
M  END
