130

C         -0.33370        1.42610        6.72220
C          0.50400        0.52650        7.33160
C          1.42920       -0.38660        6.65590
O          1.59680       -0.51780        5.45380
C          2.12830       -1.13050        7.71560
C          3.10530       -2.10880        7.54880
C          3.58070       -2.63040        8.72780
C          3.11400       -2.21240        9.98090
C          2.14690       -1.25140       10.15850
C          1.65270       -0.70290        8.97200
C          0.63800        0.32970        8.76120
C         -0.04810        0.97800        9.75670
C         -1.02930        1.97690        9.58340
N         -1.83530        2.79580        9.55410
C          0.13080        0.73910       11.13570
N          0.21810        0.60690       12.27320
C          4.03470       -3.14670       10.72460
C          5.30120       -2.54050       11.37810
C          5.64770       -1.30770       10.58070
C          6.09020       -1.70370        9.39480
C          6.05070       -3.21170        9.36870
C          6.36160       -3.51610       10.84290
C          4.55510       -3.61260        9.32820
C         -0.56590        1.67990        5.36470
C         -1.47560        2.66410        4.93030
C         -2.11870        3.64110        5.80250
C         -1.38340        4.36300        6.74230
C         -2.00880        5.27610        7.56550
C         -3.37810        5.49590        7.47760
C         -4.04470        6.50900        8.35970
C         -3.95270        7.90340        7.73560
C         -4.10320        4.79560        6.52090
C         -3.48630        3.88360        5.68930
C         -1.67310        2.60160        3.55210
S         -2.67200        3.52970        2.45070
C         -2.05240        2.58550        1.14040
C         -2.18120        2.49100       -0.25440
C         -2.85040        3.28220       -1.21730
C         -2.65750        2.99910       -2.61520
N         -3.28080        3.86710       -3.39510
S         -4.05120        4.94110       -2.46020
N         -3.61690        4.34260       -1.02110
C         -1.92730        1.84710       -2.99080
C         -1.69210        1.22520       -4.22550
S         -1.97730        1.51060       -5.90680
C         -1.21070       -0.02480       -6.26650
C         -0.98360       -0.70900       -7.45340
C         -1.40840       -0.23430       -8.76490
C         -2.08300       -1.07360       -9.65150
C         -2.47250       -0.61000      -10.89080
C         -2.19830        0.69480      -11.28350
C         -2.64500        1.19760      -12.62330
C         -4.07340        1.74090      -12.53970
C         -1.54900        1.53610      -10.38730
C         -1.16360        1.08530       -9.14170
C         -0.30280       -1.92930       -7.22530
S         -0.03740       -2.22770       -5.50560
C         -0.76710       -0.71410       -5.12150
C         -1.04560        0.00670       -3.96060
N         -0.85800       -0.14020       -2.60760
C         -1.35950        0.99430       -2.00380
C         -1.34810        1.41130       -0.65580
N         -0.68010        0.91060        0.44440
C         -1.12080        1.61490        1.53700
C         -0.89800        1.61910        2.91710
S          0.08850        0.73940        4.02660
C          0.63360        0.29620        0.45410
C          1.72080        1.32570        0.75950
C         -0.75560       -1.46300       -2.02180
C         -1.97480       -2.31650       -2.36840
C          0.19580       -2.70450       -8.26800
C          0.89670       -3.89480       -8.25330
C          1.23580       -4.66820       -7.06260
O          0.96710       -4.41540       -5.90330
C          1.98620       -5.85000       -7.55140
C          2.08880       -5.78950       -8.95220
C          2.75780       -6.78060       -9.64910
C          3.31620       -7.82550       -8.92590
F          3.96720       -8.79160       -9.57970
C          3.22070       -7.90020       -7.53910
F          3.77190       -8.92340       -6.87930
C          2.54530       -6.89620       -6.84150
F          2.45740       -6.96780       -5.51570
C          1.40660       -4.57730       -9.41730
C          1.29420       -4.20130      -10.73350
C          1.82170       -4.93750      -11.81490
N          2.22090       -5.48650      -12.74090
C          0.64290       -3.04850      -11.22000
N          0.13820       -2.14470      -11.71870
H         -0.93860        2.04190        7.37640
H          3.43310       -2.40240        6.56380
H          1.79910       -0.94570       11.13080
H          3.55210       -3.88500       11.36190
H          5.23570       -2.41250       12.45520
H          5.48610       -0.30440       10.92930
H          6.37240       -1.09720        8.55410
H          6.66840       -3.69540        8.61660
H          7.37450       -3.23430       11.12640
H          6.17670       -4.55290       11.12030
H          4.41230       -4.65590        9.05330
H         -0.31360        4.22280        6.80690
H         -1.42730        5.82110        8.29420
H         -5.09460        6.24530        8.49880
H         -3.56080        6.51790        9.33780
H         -4.43720        7.91510        6.76170
H         -4.43770        8.63800        8.37400
H         -2.91230        8.19160        7.60270
H         -5.16740        4.96030        6.43260
H         -4.06650        3.33170        4.96470
H         -2.32520       -2.08360       -9.35260
H         -2.98930       -1.27290      -11.56850
H         -1.97730        1.99160      -12.96210
H         -2.60890        0.38500      -13.35070
H         -4.12660        2.55830      -11.82390
H         -4.39710        2.10770      -13.51070
H         -4.75820        0.95980      -12.21740
H         -1.33510        2.55580      -10.67300
H         -0.64250        1.74420       -8.46330
H          0.64620       -0.49000        1.21500
H          0.83510       -0.13400       -0.52500
H          1.59950        1.73680        1.75730
H          2.69490        0.84860        0.70170
H          1.68450        2.13810        0.03650
H         -0.70040       -1.37070       -0.93910
H          0.15130       -1.94440       -2.39990
H         -2.03890       -2.49180       -3.43820
H         -2.88650       -1.82410       -2.03630
H         -1.89380       -3.27750       -1.86890
H          0.01230       -2.27400       -9.24470
H          2.86590       -6.77770      -10.72080
