
  xtb     02112207233D
 energy: -200.729543816830 gnorm: 0.000965949915 xtb: 6.4.1 (unknown)
110124  0     0  0            999 V2000
   -3.8793   -4.7996    1.6170 C   0  0  0  0  0  0  0  0  0  0  0  0
   -2.7982   -5.6433    1.6115 C   0  0  0  0  0  0  0  0  0  0  0  0
   -1.4135   -5.2768    1.3018 C   0  0  0  0  0  0  0  0  0  0  0  0
   -0.9933   -4.1835    0.9576 O   0  0  0  0  0  0  0  0  0  0  0  0
   -0.6078   -6.4924    1.4960 C   0  0  0  0  0  0  0  0  0  0  0  0
    0.7715   -6.6170    1.3431 C   0  0  0  0  0  0  0  0  0  0  0  0
    1.2503   -7.8782    1.6033 C   0  0  0  0  0  0  0  0  0  0  0  0
    0.4184   -8.9371    1.9905 C   0  0  0  0  0  0  0  0  0  0  0  0
   -0.9430   -8.8264    2.1479 C   0  0  0  0  0  0  0  0  0  0  0  0
   -1.4529   -7.5515    1.8848 C   0  0  0  0  0  0  0  0  0  0  0  0
   -2.8265   -7.0539    1.9479 C   0  0  0  0  0  0  0  0  0  0  0  0
   -3.9281   -7.8107    2.2575 C   0  0  0  0  0  0  0  0  0  0  0  0
   -3.8915   -9.1863    2.5685 C   0  0  0  0  0  0  0  0  0  0  0  0
   -3.9476  -10.3039    2.8265 N   0  0  0  0  0  0  0  0  0  0  0  0
   -5.2604   -7.3504    2.3050 C   0  0  0  0  0  0  0  0  0  0  0  0
   -6.3714   -7.0617    2.3628 N   0  0  0  0  0  0  0  0  0  0  0  0
    1.5665   -9.9109    2.0837 C   0  0  0  0  0  0  0  0  0  0  0  0
    1.7203  -10.9103    0.9178 C   0  0  0  0  0  0  0  0  0  0  0  0
    3.1511  -11.3842    1.0352 C   0  0  0  0  0  0  0  0  0  0  0  0
    3.9397  -10.3818    0.6691 C   0  0  0  0  0  0  0  0  0  0  0  0
    3.0552   -9.2132    0.2981 C   0  0  0  0  0  0  0  0  0  0  0  0
    1.8529   -9.9669   -0.2849 C   0  0  0  0  0  0  0  0  0  0  0  0
    2.4943   -8.7299    1.6523 C   0  0  0  0  0  0  0  0  0  0  0  0
   -3.9798   -3.4345    1.3197 C   0  0  0  0  0  0  0  0  0  0  0  0
   -5.1886   -2.7238    1.3998 C   0  0  0  0  0  0  0  0  0  0  0  0
   -6.5220   -3.2997    1.7480 C   0  0  0  0  0  0  0  0  0  0  0  0
   -7.1714   -3.9478    0.5221 C   0  0  0  0  0  0  0  0  0  0  0  0
   -5.0149   -1.3891    1.0549 C   0  0  0  0  0  0  0  0  0  0  0  0
   -6.1277   -0.0338    0.9884 S   0  0  0  0  0  0  0  0  0  0  0  0
   -4.8138    0.9773    0.5000 C   0  0  0  0  0  0  0  0  0  0  0  0
   -4.5667    2.3235    0.2028 C   0  0  0  0  0  0  0  0  0  0  0  0
   -5.4197    3.4497    0.2949 C   0  0  0  0  0  0  0  0  0  0  0  0
   -4.8572    4.7533    0.0685 C   0  0  0  0  0  0  0  0  0  0  0  0
   -5.6953    5.7582    0.2302 N   0  0  0  0  0  0  0  0  0  0  0  0
   -7.2728    5.1095    0.6788 Se  0  0  0  0  0  2  0  0  0  0  0  0
   -6.6960    3.4448    0.6259 N   0  0  0  0  0  0  0  0  0  0  0  0
   -3.5075    4.8394   -0.3504 C   0  0  0  0  0  0  0  0  0  0  0  0
   -2.7554    5.9526   -0.7466 C   0  0  0  0  0  0  0  0  0  0  0  0
   -2.9151    7.6687   -0.8396 S   0  0  0  0  0  0  0  0  0  0  0  0
   -1.3023    7.7545   -1.5128 C   0  0  0  0  0  0  0  0  0  0  0  0
   -0.5205    8.8261   -1.9435 C   0  0  0  0  0  0  0  0  0  0  0  0
   -0.9309   10.2534   -1.8183 C   0  0  0  0  0  0  0  0  0  0  0  0
   -0.2990   10.8805   -0.5725 C   0  0  0  0  0  0  0  0  0  0  0  0
    0.7260    8.3991   -2.3996 C   0  0  0  0  0  0  0  0  0  0  0  0
    0.8862    6.6415   -2.3285 S   0  0  0  0  0  0  0  0  0  0  0  0
   -0.6924    6.4977   -1.6525 C   0  0  0  0  0  0  0  0  0  0  0  0
   -1.5210    5.4696   -1.2030 C   0  0  0  0  0  0  0  0  0  0  0  0
   -1.4745    4.1082   -1.0701 N   0  0  0  0  0  0  0  0  0  0  0  0
   -2.6801    3.6932   -0.5328 C   0  0  0  0  0  0  0  0  0  0  0  0
   -3.1853    2.4257   -0.1379 C   0  0  0  0  0  0  0  0  0  0  0  0
   -2.6129    1.1735   -0.0093 N   0  0  0  0  0  0  0  0  0  0  0  0
   -3.5923    0.3025    0.3827 C   0  0  0  0  0  0  0  0  0  0  0  0
   -3.6961   -1.0541    0.7077 C   0  0  0  0  0  0  0  0  0  0  0  0
   -2.6369   -2.4101    0.8116 S   0  0  0  0  0  0  0  0  0  0  0  0
   -1.2249    0.7855    0.1167 C   0  0  0  0  0  0  0  0  0  0  0  0
   -0.5468    1.5075    1.2781 C   0  0  0  0  0  0  0  0  0  0  0  0
   -0.4487    3.3562   -1.7579 C   0  0  0  0  0  0  0  0  0  0  0  0
   -1.0214    2.5850   -2.9440 C   0  0  0  0  0  0  0  0  0  0  0  0
    1.7259    9.2108   -2.9605 C   0  0  0  0  0  0  0  0  0  0  0  0
    3.0392    8.9220   -3.2091 C   0  0  0  0  0  0  0  0  0  0  0  0
    3.7775    9.6816   -4.2438 C   0  0  0  0  0  0  0  0  0  0  0  0
    3.4381   10.7106   -4.7811 O   0  0  0  0  0  0  0  0  0  0  0  0
    4.9903    8.8724   -4.5183 C   0  0  0  0  0  0  0  0  0  0  0  0
    5.9614    9.0709   -5.4792 C   0  0  0  0  0  0  0  0  0  0  0  0
    6.9902    8.1452   -5.5556 C   0  0  0  0  0  0  0  0  0  0  0  0
    7.9505    8.2969   -6.4763 F   0  0  0  0  0  0  0  0  0  0  0  0
    7.0352    7.0549   -4.6867 C   0  0  0  0  0  0  0  0  0  0  0  0
    8.0328    6.1694   -4.7953 F   0  0  0  0  0  0  0  0  0  0  0  0
    6.0677    6.8610   -3.7118 C   0  0  0  0  0  0  0  0  0  0  0  0
    5.0367    7.7818   -3.6316 C   0  0  0  0  0  0  0  0  0  0  0  0
    3.9069    7.8837   -2.7085 C   0  0  0  0  0  0  0  0  0  0  0  0
    3.8439    7.3112   -1.4637 C   0  0  0  0  0  0  0  0  0  0  0  0
    4.7400    6.3293   -1.0009 C   0  0  0  0  0  0  0  0  0  0  0  0
    5.4230    5.5009   -0.5943 N   0  0  0  0  0  0  0  0  0  0  0  0
    2.9162    7.7255   -0.4849 C   0  0  0  0  0  0  0  0  0  0  0  0
    2.2148    8.0884    0.3484 N   0  0  0  0  0  0  0  0  0  0  0  0
   -4.8239   -5.2419    1.9023 H   0  0  0  0  0  0  0  0  0  0  0  0
    1.3746   -5.7722    1.0488 H   0  0  0  0  0  0  0  0  0  0  0  0
   -1.5649   -9.6507    2.4535 H   0  0  0  0  0  0  0  0  0  0  0  0
    1.7229  -10.3675    3.0591 H   0  0  0  0  0  0  0  0  0  0  0  0
    0.9522  -11.6773    0.8717 H   0  0  0  0  0  0  0  0  0  0  0  0
    3.4341  -12.3489    1.4131 H   0  0  0  0  0  0  0  0  0  0  0  0
    5.0131  -10.3419    0.6802 H   0  0  0  0  0  0  0  0  0  0  0  0
    3.5040   -8.4348   -0.3133 H   0  0  0  0  0  0  0  0  0  0  0  0
    0.9784   -9.3421   -0.4579 H   0  0  0  0  0  0  0  0  0  0  0  0
    2.1060  -10.5000   -1.1997 H   0  0  0  0  0  0  0  0  0  0  0  0
    3.2696   -8.3984    2.3405 H   0  0  0  0  0  0  0  0  0  0  0  0
   -6.4355   -4.0395    2.5448 H   0  0  0  0  0  0  0  0  0  0  0  0
   -7.1608   -2.4881    2.1025 H   0  0  0  0  0  0  0  0  0  0  0  0
   -7.2967   -3.2151   -0.2718 H   0  0  0  0  0  0  0  0  0  0  0  0
   -6.5596   -4.7656    0.1487 H   0  0  0  0  0  0  0  0  0  0  0  0
   -8.1463   -4.3442    0.7897 H   0  0  0  0  0  0  0  0  0  0  0  0
   -0.6244   10.8140   -2.7037 H   0  0  0  0  0  0  0  0  0  0  0  0
   -2.0185   10.2976   -1.7367 H   0  0  0  0  0  0  0  0  0  0  0  0
   -0.6092   11.9178   -0.4804 H   0  0  0  0  0  0  0  0  0  0  0  0
    0.7859   10.8406   -0.6336 H   0  0  0  0  0  0  0  0  0  0  0  0
   -0.6098   10.3421    0.3191 H   0  0  0  0  0  0  0  0  0  0  0  0
   -0.6945    0.9437   -0.8224 H   0  0  0  0  0  0  0  0  0  0  0  0
   -1.2200   -0.2897    0.3106 H   0  0  0  0  0  0  0  0  0  0  0  0
    0.4944    1.2046    1.3434 H   0  0  0  0  0  0  0  0  0  0  0  0
   -0.5929    2.5875    1.1576 H   0  0  0  0  0  0  0  0  0  0  0  0
   -1.0398    1.2499    2.2125 H   0  0  0  0  0  0  0  0  0  0  0  0
    0.2800    4.0856   -2.1203 H   0  0  0  0  0  0  0  0  0  0  0  0
    0.0760    2.6986   -1.0649 H   0  0  0  0  0  0  0  0  0  0  0  0
   -1.4496    3.2768   -3.6657 H   0  0  0  0  0  0  0  0  0  0  0  0
   -0.2329    2.0200   -3.4330 H   0  0  0  0  0  0  0  0  0  0  0  0
   -1.8031    1.8982   -2.6283 H   0  0  0  0  0  0  0  0  0  0  0  0
    1.3936   10.1735   -3.3376 H   0  0  0  0  0  0  0  0  0  0  0  0
    5.9271    9.9146   -6.1497 H   0  0  0  0  0  0  0  0  0  0  0  0
    6.1408    6.0048   -3.0611 H   0  0  0  0  0  0  0  0  0  0  0  0
  1  2  2  0  0  0  0
  2  3  1  0  0  0  0
  3  4  2  0  0  0  0
  3  5  1  0  0  0  0
  5  6  2  0  0  0  0
  6  7  1  0  0  0  0
  7  8  2  0  0  0  0
  8  9  1  0  0  0  0
  9 10  2  0  0  0  0
 10 11  1  0  0  0  0
 11 12  2  0  0  0  0
 12 13  1  0  0  0  0
 13 14  3  0  0  0  0
 12 15  1  0  0  0  0
 15 16  3  0  0  0  0
  8 17  1  0  0  0  0
 17 18  1  0  0  0  0
 18 19  1  0  0  0  0
 19 20  2  0  0  0  0
 20 21  1  0  0  0  0
 21 22  1  0  0  0  0
 21 23  1  0  0  0  0
  1 24  1  0  0  0  0
 24 25  2  0  0  0  0
 25 26  1  0  0  0  0
 26 27  1  0  0  0  0
 25 28  1  0  0  0  0
 28 29  1  0  0  0  0
 29 30  1  0  0  0  0
 30 31  1  0  0  0  0
 31 32  1  0  0  0  0
 32 33  1  0  0  0  0
 33 34  2  0  0  0  0
 34 35  1  0  0  0  0
 35 36  1  0  0  0  0
 33 37  1  0  0  0  0
 37 38  1  0  0  0  0
 38 39  1  0  0  0  0
 39 40  1  0  0  0  0
 40 41  1  0  0  0  0
 41 42  1  0  0  0  0
 42 43  1  0  0  0  0
 41 44  2  0  0  0  0
 44 45  1  0  0  0  0
 45 46  1  0  0  0  0
 46 47  1  0  0  0  0
 47 48  1  0  0  0  0
 48 49  1  0  0  0  0
 49 50  1  0  0  0  0
 50 51  1  0  0  0  0
 51 52  1  0  0  0  0
 52 53  1  0  0  0  0
 53 54  1  0  0  0  0
 51 55  1  0  0  0  0
 55 56  1  0  0  0  0
 48 57  1  0  0  0  0
 57 58  1  0  0  0  0
 44 59  1  0  0  0  0
 59 60  2  0  0  0  0
 60 61  1  0  0  0  0
 61 62  2  0  0  0  0
 61 63  1  0  0  0  0
 63 64  2  0  0  0  0
 64 65  1  0  0  0  0
 65 66  1  0  0  0  0
 65 67  2  0  0  0  0
 67 68  1  0  0  0  0
 67 69  1  0  0  0  0
 69 70  2  0  0  0  0
 70 71  1  0  0  0  0
 71 72  2  0  0  0  0
 72 73  1  0  0  0  0
 73 74  3  0  0  0  0
 72 75  1  0  0  0  0
 75 76  3  0  0  0  0
 11  2  1  0  0  0  0
 23 17  1  0  0  0  0
 54 24  1  0  0  0  0
 71 60  1  0  0  0  0
 10  5  1  0  0  0  0
 22 18  1  0  0  0  0
 53 28  2  0  0  0  0
 70 63  1  0  0  0  0
 23  7  1  0  0  0  0
 52 30  2  0  0  0  0
 50 31  2  0  0  0  0
 36 32  2  0  0  0  0
 49 37  2  0  0  0  0
 47 38  2  0  0  0  0
 46 40  2  0  0  0  0
  1 77  1  0  0  0  0
  6 78  1  0  0  0  0
  9 79  1  0  0  0  0
 17 80  1  0  0  0  0
 18 81  1  0  0  0  0
 19 82  1  0  0  0  0
 20 83  1  0  0  0  0
 21 84  1  0  0  0  0
 22 85  1  0  0  0  0
 22 86  1  0  0  0  0
 23 87  1  0  0  0  0
 26 88  1  0  0  0  0
 26 89  1  0  0  0  0
 27 90  1  0  0  0  0
 27 91  1  0  0  0  0
 27 92  1  0  0  0  0
 42 93  1  0  0  0  0
 42 94  1  0  0  0  0
 43 95  1  0  0  0  0
 43 96  1  0  0  0  0
 43 97  1  0  0  0  0
 55 98  1  0  0  0  0
 55 99  1  0  0  0  0
 56100  1  0  0  0  0
 56101  1  0  0  0  0
 56102  1  0  0  0  0
 57103  1  0  0  0  0
 57104  1  0  0  0  0
 58105  1  0  0  0  0
 58106  1  0  0  0  0
 58107  1  0  0  0  0
 59108  1  0  0  0  0
 64109  1  0  0  0  0
 69110  1  0  0  0  0
M  END
