
  xtb     02112205113D
 energy: -178.167049726682 gnorm: 0.000702897835 xtb: 6.4.1 (unknown)
103115  0     0  0            999 V2000
   -5.6780   -2.8744    2.1344 C   0  0  0  0  0  0  0  0  0  0  0  0
   -6.4074   -2.8606    0.9823 C   0  0  0  0  0  0  0  0  0  0  0  0
   -7.8932   -2.8337    1.0761 C   0  0  0  0  0  0  0  0  0  0  0  0
   -8.5571   -3.0490    2.0648 O   0  0  0  0  0  0  0  0  0  0  0  0
   -8.3652   -2.4383   -0.2646 C   0  0  0  0  0  0  0  0  0  0  0  0
   -9.6736   -2.1516   -0.6489 C   0  0  0  0  0  0  0  0  0  0  0  0
   -9.8011   -1.7750   -1.9646 C   0  0  0  0  0  0  0  0  0  0  0  0
   -8.7085   -1.6873   -2.8379 C   0  0  0  0  0  0  0  0  0  0  0  0
   -7.4143   -1.9752   -2.4760 C   0  0  0  0  0  0  0  0  0  0  0  0
   -7.2634   -2.3634   -1.1418 C   0  0  0  0  0  0  0  0  0  0  0  0
   -6.0599   -2.7704   -0.4170 C   0  0  0  0  0  0  0  0  0  0  0  0
   -4.9045   -3.2098   -1.0138 C   0  0  0  0  0  0  0  0  0  0  0  0
   -3.8328   -3.8295   -0.3424 C   0  0  0  0  0  0  0  0  0  0  0  0
   -2.9234   -4.3605    0.1171 N   0  0  0  0  0  0  0  0  0  0  0  0
   -4.6479   -3.1481   -2.3984 C   0  0  0  0  0  0  0  0  0  0  0  0
   -4.3457   -3.0965   -3.5053 N   0  0  0  0  0  0  0  0  0  0  0  0
   -9.5640   -1.2308   -3.9927 C   0  0  0  0  0  0  0  0  0  0  0  0
   -9.5171    0.2741   -4.3319 C   0  0  0  0  0  0  0  0  0  0  0  0
  -10.7721    0.5016   -5.1433 C   0  0  0  0  0  0  0  0  0  0  0  0
  -11.8071    0.4182   -4.3173 C   0  0  0  0  0  0  0  0  0  0  0  0
  -11.2692    0.1332   -2.9334 C   0  0  0  0  0  0  0  0  0  0  0  0
   -9.9457    0.9062   -3.0012 C   0  0  0  0  0  0  0  0  0  0  0  0
  -10.7828   -1.3294   -3.0200 C   0  0  0  0  0  0  0  0  0  0  0  0
   -4.3187   -2.5547    2.3369 C   0  0  0  0  0  0  0  0  0  0  0  0
   -3.4255   -3.1922    3.9014 Se  0  0  0  0  0  2  0  0  0  0  0  0
   -1.9276   -2.3886    3.1971 C   0  0  0  0  0  0  0  0  0  0  0  0
   -0.5551   -2.2744    3.4452 C   0  0  0  0  0  0  0  0  0  0  0  0
    0.2247   -2.8409    4.4737 C   0  0  0  0  0  0  0  0  0  0  0  0
    1.6458   -2.6838    4.4322 C   0  0  0  0  0  0  0  0  0  0  0  0
    2.2522   -3.3106    5.4288 N   0  0  0  0  0  0  0  0  0  0  0  0
    1.1260   -4.0328    6.3403 S   0  0  0  0  0  0  0  0  0  0  0  0
   -0.1801   -3.5732    5.4992 N   0  0  0  0  0  0  0  0  0  0  0  0
    2.2048   -1.8816    3.4123 C   0  0  0  0  0  0  0  0  0  0  0  0
    3.5292   -1.4864    3.1882 C   0  0  0  0  0  0  0  0  0  0  0  0
    5.1033   -1.7581    3.8491 S   0  0  0  0  0  0  0  0  0  0  0  0
    5.7604   -0.6465    2.6667 C   0  0  0  0  0  0  0  0  0  0  0  0
    7.0541   -0.1801    2.4325 C   0  0  0  0  0  0  0  0  0  0  0  0
    8.2494   -0.6436    3.1958 C   0  0  0  0  0  0  0  0  0  0  0  0
    9.0857   -1.6250    2.3712 C   0  0  0  0  0  0  0  0  0  0  0  0
    7.0945    0.7113    1.3580 C   0  0  0  0  0  0  0  0  0  0  0  0
    5.4886    0.9816    0.6762 S   0  0  0  0  0  0  0  0  0  0  0  0
    4.7865   -0.1063    1.8127 C   0  0  0  0  0  0  0  0  0  0  0  0
    3.5117   -0.5948    2.1088 C   0  0  0  0  0  0  0  0  0  0  0  0
    2.2341   -0.4499    1.6422 N   0  0  0  0  0  0  0  0  0  0  0  0
    1.4032   -1.2405    2.4190 C   0  0  0  0  0  0  0  0  0  0  0  0
    0.0105   -1.5191    2.3811 C   0  0  0  0  0  0  0  0  0  0  0  0
   -1.0091   -1.1933    1.4980 N   0  0  0  0  0  0  0  0  0  0  0  0
   -2.1770   -1.7295    1.9832 C   0  0  0  0  0  0  0  0  0  0  0  0
   -3.4890   -1.8076    1.5183 C   0  0  0  0  0  0  0  0  0  0  0  0
   -0.9197   -0.8652    0.0908 C   0  0  0  0  0  0  0  0  0  0  0  0
   -0.1810   -1.9528   -0.6846 C   0  0  0  0  0  0  0  0  0  0  0  0
    1.9237    0.6300    0.7331 C   0  0  0  0  0  0  0  0  0  0  0  0
    1.1028    1.7210    1.4158 C   0  0  0  0  0  0  0  0  0  0  0  0
    8.2292    1.4423    0.9686 C   0  0  0  0  0  0  0  0  0  0  0  0
    8.5055    2.2330   -0.1202 C   0  0  0  0  0  0  0  0  0  0  0  0
    9.6420    3.1625    0.1087 C   0  0  0  0  0  0  0  0  0  0  0  0
   10.4155    3.0291    1.0384 O   0  0  0  0  0  0  0  0  0  0  0  0
    9.7467    4.2312   -0.7517 N   0  0  0  0  0  0  0  0  0  0  0  0
   10.7598    5.2395   -0.4560 C   0  0  0  0  0  0  0  0  0  0  0  0
   10.2074    6.3143    0.4710 C   0  0  0  0  0  0  0  0  0  0  0  0
    8.9413    4.4512   -1.8617 C   0  0  0  0  0  0  0  0  0  0  0  0
    9.0207    5.4795   -2.4985 O   0  0  0  0  0  0  0  0  0  0  0  0
    8.0780    3.3231   -2.2224 C   0  0  0  0  0  0  0  0  0  0  0  0
    7.8747    2.2484   -1.4021 C   0  0  0  0  0  0  0  0  0  0  0  0
    7.1108    1.0705   -1.9211 C   0  0  0  0  0  0  0  0  0  0  0  0
    7.4694    3.3784   -3.4920 C   0  0  0  0  0  0  0  0  0  0  0  0
    6.9600    3.3980   -4.5199 N   0  0  0  0  0  0  0  0  0  0  0  0
   -6.2501   -3.1211    3.0259 H   0  0  0  0  0  0  0  0  0  0  0  0
  -10.4879   -2.2334    0.0537 H   0  0  0  0  0  0  0  0  0  0  0  0
   -6.5822   -1.8994   -3.1564 H   0  0  0  0  0  0  0  0  0  0  0  0
   -9.5477   -1.8673   -4.8752 H   0  0  0  0  0  0  0  0  0  0  0  0
   -8.5825    0.6127   -4.7708 H   0  0  0  0  0  0  0  0  0  0  0  0
  -10.7806    0.6397   -6.2085 H   0  0  0  0  0  0  0  0  0  0  0  0
  -12.8532    0.4728   -4.5546 H   0  0  0  0  0  0  0  0  0  0  0  0
  -11.9309    0.3448   -2.0979 H   0  0  0  0  0  0  0  0  0  0  0  0
   -9.2692    0.7011   -2.1734 H   0  0  0  0  0  0  0  0  0  0  0  0
  -10.1007    1.9804   -3.0869 H   0  0  0  0  0  0  0  0  0  0  0  0
  -11.5813   -2.0306   -3.2546 H   0  0  0  0  0  0  0  0  0  0  0  0
    7.9067   -1.1352    4.1081 H   0  0  0  0  0  0  0  0  0  0  0  0
    8.8696    0.2112    3.4747 H   0  0  0  0  0  0  0  0  0  0  0  0
    9.4594   -1.1457    1.4694 H   0  0  0  0  0  0  0  0  0  0  0  0
    9.9329   -1.9722    2.9560 H   0  0  0  0  0  0  0  0  0  0  0  0
    8.4862   -2.4864    2.0854 H   0  0  0  0  0  0  0  0  0  0  0  0
   -3.8593   -1.3119    0.6369 H   0  0  0  0  0  0  0  0  0  0  0  0
   -0.4664    0.1155   -0.0495 H   0  0  0  0  0  0  0  0  0  0  0  0
   -1.9430   -0.7986   -0.2813 H   0  0  0  0  0  0  0  0  0  0  0  0
    0.8347   -2.0777   -0.3165 H   0  0  0  0  0  0  0  0  0  0  0  0
   -0.7044   -2.9003   -0.5733 H   0  0  0  0  0  0  0  0  0  0  0  0
   -0.1452   -1.6984   -1.7406 H   0  0  0  0  0  0  0  0  0  0  0  0
    1.4288    0.2472   -0.1601 H   0  0  0  0  0  0  0  0  0  0  0  0
    2.8799    1.0504    0.4120 H   0  0  0  0  0  0  0  0  0  0  0  0
    1.6691    2.1509    2.2388 H   0  0  0  0  0  0  0  0  0  0  0  0
    0.1727    1.3244    1.8159 H   0  0  0  0  0  0  0  0  0  0  0  0
    0.8736    2.5105    0.7053 H   0  0  0  0  0  0  0  0  0  0  0  0
    9.0107    1.4730    1.7247 H   0  0  0  0  0  0  0  0  0  0  0  0
   11.0668    5.6806   -1.4059 H   0  0  0  0  0  0  0  0  0  0  0  0
   11.6016    4.7263    0.0122 H   0  0  0  0  0  0  0  0  0  0  0  0
   10.9786    7.0513    0.6763 H   0  0  0  0  0  0  0  0  0  0  0  0
    9.8870    5.8710    1.4113 H   0  0  0  0  0  0  0  0  0  0  0  0
    9.3619    6.8132    0.0032 H   0  0  0  0  0  0  0  0  0  0  0  0
    6.0435    1.2846   -1.9600 H   0  0  0  0  0  0  0  0  0  0  0  0
    7.4287    0.8580   -2.9414 H   0  0  0  0  0  0  0  0  0  0  0  0
    7.2770    0.1887   -1.3093 H   0  0  0  0  0  0  0  0  0  0  0  0
  1  2  2  0  0  0  0
  2  3  1  0  0  0  0
  3  4  2  0  0  0  0
  3  5  1  0  0  0  0
  5  6  2  0  0  0  0
  6  7  1  0  0  0  0
  7  8  2  0  0  0  0
  8  9  1  0  0  0  0
  9 10  2  0  0  0  0
 10 11  1  0  0  0  0
 11 12  2  0  0  0  0
 12 13  1  0  0  0  0
 13 14  3  0  0  0  0
 12 15  1  0  0  0  0
 15 16  3  0  0  0  0
  8 17  1  0  0  0  0
 17 18  1  0  0  0  0
 18 19  1  0  0  0  0
 19 20  2  0  0  0  0
 20 21  1  0  0  0  0
 21 22  1  0  0  0  0
 21 23  1  0  0  0  0
  1 24  1  0  0  0  0
 24 25  1  0  0  0  0
 25 26  1  0  0  0  0
 26 27  1  0  0  0  0
 27 28  1  0  0  0  0
 28 29  1  0  0  0  0
 29 30  2  0  0  0  0
 30 31  1  0  0  0  0
 31 32  1  0  0  0  0
 29 33  1  0  0  0  0
 33 34  1  0  0  0  0
 34 35  1  0  0  0  0
 35 36  1  0  0  0  0
 36 37  1  0  0  0  0
 37 38  1  0  0  0  0
 38 39  1  0  0  0  0
 37 40  2  0  0  0  0
 40 41  1  0  0  0  0
 41 42  1  0  0  0  0
 42 43  1  0  0  0  0
 43 44  1  0  0  0  0
 44 45  1  0  0  0  0
 45 46  1  0  0  0  0
 46 47  1  0  0  0  0
 47 48  1  0  0  0  0
 48 49  1  0  0  0  0
 47 50  1  0  0  0  0
 50 51  1  0  0  0  0
 44 52  1  0  0  0  0
 52 53  1  0  0  0  0
 40 54  1  0  0  0  0
 54 55  2  0  0  0  0
 55 56  1  0  0  0  0
 56 57  2  0  0  0  0
 56 58  1  0  0  0  0
 58 59  1  0  0  0  0
 59 60  1  0  0  0  0
 58 61  1  0  0  0  0
 61 62  2  0  0  0  0
 61 63  1  0  0  0  0
 63 64  2  0  0  0  0
 64 65  1  0  0  0  0
 63 66  1  0  0  0  0
 66 67  3  0  0  0  0
 11  2  1  0  0  0  0
 23 17  1  0  0  0  0
 49 24  2  0  0  0  0
 64 55  1  0  0  0  0
 10  5  1  0  0  0  0
 22 18  1  0  0  0  0
 48 26  2  0  0  0  0
 23  7  1  0  0  0  0
 46 27  2  0  0  0  0
 32 28  2  0  0  0  0
 45 33  2  0  0  0  0
 43 34  2  0  0  0  0
 42 36  2  0  0  0  0
  1 68  1  0  0  0  0
  6 69  1  0  0  0  0
  9 70  1  0  0  0  0
 17 71  1  0  0  0  0
 18 72  1  0  0  0  0
 19 73  1  0  0  0  0
 20 74  1  0  0  0  0
 21 75  1  0  0  0  0
 22 76  1  0  0  0  0
 22 77  1  0  0  0  0
 23 78  1  0  0  0  0
 38 79  1  0  0  0  0
 38 80  1  0  0  0  0
 39 81  1  0  0  0  0
 39 82  1  0  0  0  0
 39 83  1  0  0  0  0
 49 84  1  0  0  0  0
 50 85  1  0  0  0  0
 50 86  1  0  0  0  0
 51 87  1  0  0  0  0
 51 88  1  0  0  0  0
 51 89  1  0  0  0  0
 52 90  1  0  0  0  0
 52 91  1  0  0  0  0
 53 92  1  0  0  0  0
 53 93  1  0  0  0  0
 53 94  1  0  0  0  0
 54 95  1  0  0  0  0
 59 96  1  0  0  0  0
 59 97  1  0  0  0  0
 60 98  1  0  0  0  0
 60 99  1  0  0  0  0
 60100  1  0  0  0  0
 65101  1  0  0  0  0
 65102  1  0  0  0  0
 65103  1  0  0  0  0
M  END
