110

C         -4.28810       -0.55050       -5.23750
C         -4.43990       -1.87240       -4.93510
C         -3.66580       -2.57360       -3.87840
O         -3.03660       -2.09080       -2.95990
C         -3.75000       -4.00500       -4.22040
C         -3.09910       -5.05080       -3.56920
C         -3.36620       -6.29010       -4.09800
C         -4.21530       -6.47900       -5.19720
C         -4.85560       -5.45550       -5.85530
C         -4.59900       -4.18450       -5.33120
C         -5.08670       -2.87640       -5.75510
C         -6.05180       -2.62850       -6.69510
C         -6.68750       -3.62230       -7.46610
N         -7.23280       -4.38880       -8.12430
C         -6.56510       -1.34150       -6.96240
N         -7.04410       -0.32420       -7.19440
C         -4.03260       -7.97660       -5.18040
C         -5.18640       -8.80490       -4.57580
C         -4.54610      -10.13660       -4.25640
C         -3.73870       -9.95800       -3.21880
C         -3.81960       -8.50240       -2.81930
C         -5.28700       -8.21560       -3.16270
C         -3.08340       -7.76460       -3.95750
C         -3.64720        0.38970       -4.38790
S         -2.40470        1.41020       -5.12150
C         -1.92230        1.91450       -3.56040
C         -0.86530        2.61470       -2.95450
C          0.20940        3.37130       -3.47320
C          1.16010        3.94880       -2.56170
N          2.08360        4.66420       -3.18300
S          1.78830        4.61650       -4.77400
N          0.47220        3.67670       -4.73370
C          1.07540        3.62350       -1.18810
C          1.99080        3.76820       -0.13520
S          3.56230        4.43250        0.14560
C          3.57430        3.67810        1.72700
C          4.56490        3.60610        2.71290
C          5.91480        4.19280        2.48420
C          7.02870        3.14720        2.51330
C          4.13780        2.82890        3.79240
S          2.51050        2.17400        3.52450
C          2.39620        2.97060        2.00620
C          1.48680        3.03520        0.94900
N          0.27850        2.48310        0.61820
C          0.00160        2.83410       -0.68590
C         -1.04740        2.46060       -1.55770
N         -2.23930        1.78850       -1.31440
C         -2.75260        1.41640       -2.54570
C         -3.75420        0.54600       -3.01290
C         -4.89030       -0.02710       -2.22380
C         -6.03460        0.98350       -2.10050
C         -3.12370        2.14270       -0.22180
C         -3.69290        3.54880       -0.41940
C         -0.29600        1.43510        1.43220
C         -0.95930        1.98950        2.69260
C          4.74040        2.34080        4.96540
C          5.76500        2.82930        5.73560
C          6.23810        4.22310        5.79310
O          5.81770        5.17840        5.16880
C          7.24500        4.25930        6.87350
C          7.99380        5.33210        7.31460
C          8.88270        5.15720        8.36970
C          9.73260        6.26810        8.89310
C          8.96370        3.88580        8.94060
F          9.81780        3.70850        9.96660
C          8.21980        2.79510        8.52150
C          7.34410        2.98940        7.46520
C          6.43840        2.07570        6.77510
C          6.32560        0.73160        7.02260
C          5.53470       -0.17580        6.28700
N          4.94040       -0.98510        5.72860
C          7.01870        0.05800        8.05020
N          7.54290       -0.54700        8.87290
H         -4.54190       -0.20570       -6.23320
H         -2.45140       -4.86120       -2.72770
H         -5.49350       -5.61110       -6.70960
H         -3.62400       -8.41600       -6.08830
H         -6.09240       -8.82800       -5.17500
H         -4.69890      -11.02950       -4.83370
H         -3.08220      -10.67130       -2.75600
H         -3.47970       -8.24990       -1.81840
H         -5.97440       -8.77610       -2.53140
H         -5.55020       -7.15970       -3.13950
H         -2.03960       -8.05840       -4.05100
H          6.10520        4.95180        3.24820
H          5.90580        4.68630        1.50990
H          7.98250        3.62160        2.29800
H          6.84740        2.37890        1.76440
H          7.09550        2.66850        3.48680
H         -4.53700       -0.34140       -1.24100
H         -5.27750       -0.90880       -2.72950
H         -6.41170        1.23590       -3.08910
H         -5.71530        1.90010       -1.61290
H         -6.84810        0.55120       -1.52280
H         -3.92700        1.40830       -0.18670
H         -2.58780        2.11160        0.72120
H         -2.89400        4.28690       -0.38430
H         -4.41060        3.77380        0.36530
H         -4.18920        3.63330       -1.38390
H         -0.99070        0.85640        0.82260
H          0.51630        0.76430        1.73430
H         -1.67790        2.77210        2.45830
H         -1.46910        1.18910        3.22110
H         -0.20850        2.41260        3.35450
H          4.28260        1.42300        5.32010
H          7.88760        6.29420        6.83700
H          9.55780        6.40470        9.95960
H         10.78720        6.02430        8.76720
H          9.51810        7.19720        8.37340
H          8.34010        1.84930        9.02310
