
  xtb     02022203103D
 energy: -220.314003242883 gnorm: 0.000557362903 xtb: 6.4.1 (unknown)
126140  0     0  0            999 V2000
    1.6568   -2.6079   -5.7137 C   0  0  0  0  0  0  0  0  0  0  0  0
    1.2821   -1.9055   -6.8172 C   0  0  0  0  0  0  0  0  0  0  0  0
    2.1928   -1.8485   -7.9921 C   0  0  0  0  0  0  0  0  0  0  0  0
    3.1195   -2.5908   -8.2278 O   0  0  0  0  0  0  0  0  0  0  0  0
    1.7671   -0.6548   -8.7496 C   0  0  0  0  0  0  0  0  0  0  0  0
    2.4088   -0.0748   -9.8424 C   0  0  0  0  0  0  0  0  0  0  0  0
    1.8014    1.0668  -10.3076 C   0  0  0  0  0  0  0  0  0  0  0  0
    0.6409    1.6011   -9.7306 C   0  0  0  0  0  0  0  0  0  0  0  0
   -0.0089    1.0367   -8.6586 C   0  0  0  0  0  0  0  0  0  0  0  0
    0.5922   -0.1269   -8.1727 C   0  0  0  0  0  0  0  0  0  0  0  0
    0.1850   -1.0005   -7.0763 C   0  0  0  0  0  0  0  0  0  0  0  0
   -1.0871   -1.1296   -6.5827 C   0  0  0  0  0  0  0  0  0  0  0  0
   -1.4702   -2.2037   -5.7520 C   0  0  0  0  0  0  0  0  0  0  0  0
   -1.8177   -3.0961   -5.1190 N   0  0  0  0  0  0  0  0  0  0  0  0
   -2.1554   -0.2759   -6.9166 C   0  0  0  0  0  0  0  0  0  0  0  0
   -3.0508    0.4083   -7.1369 N   0  0  0  0  0  0  0  0  0  0  0  0
    0.6001    2.7615  -10.6935 C   0  0  0  0  0  0  0  0  0  0  0  0
   -0.4291    2.6733  -11.8401 C   0  0  0  0  0  0  0  0  0  0  0  0
    0.0792    3.6686  -12.8583 C   0  0  0  0  0  0  0  0  0  0  0  0
    1.1752    3.1605  -13.4070 C   0  0  0  0  0  0  0  0  0  0  0  0
    1.4265    1.8131  -12.7690 C   0  0  0  0  0  0  0  0  0  0  0  0
   -0.0195    1.3630  -12.5247 C   0  0  0  0  0  0  0  0  0  0  0  0
    1.8911    2.1636  -11.3395 C   0  0  0  0  0  0  0  0  0  0  0  0
    1.2610   -2.4484   -4.3678 C   0  0  0  0  0  0  0  0  0  0  0  0
    1.6100   -3.2764   -3.3074 C   0  0  0  0  0  0  0  0  0  0  0  0
    2.3715   -4.5558   -3.4213 C   0  0  0  0  0  0  0  0  0  0  0  0
    3.8697   -4.3052   -3.2277 C   0  0  0  0  0  0  0  0  0  0  0  0
    1.1898   -2.7473   -2.0827 C   0  0  0  0  0  0  0  0  0  0  0  0
    1.3734   -3.3003   -0.4328 S   0  0  0  0  0  0  0  0  0  0  0  0
    0.5534   -1.8791    0.1050 C   0  0  0  0  0  0  0  0  0  0  0  0
    0.1932   -1.2544    1.3090 C   0  0  0  0  0  0  0  0  0  0  0  0
    0.5066   -1.6177    2.6419 C   0  0  0  0  0  0  0  0  0  0  0  0
    1.0923   -2.7758    2.9335 N   0  0  0  0  0  0  0  0  0  0  0  0
    1.4473   -3.0130    4.1857 C   0  0  0  0  0  0  0  0  0  0  0  0
    1.9075   -4.3535    4.4479 C   0  0  0  0  0  0  0  0  0  0  0  0
    2.5809   -5.2507    3.1219 S   0  0  0  0  0  0  0  0  0  0  0  0
    2.7767   -6.6620    4.0991 C   0  0  0  0  0  0  0  0  0  0  0  0
    3.3509   -7.9276    3.5632 C   0  0  0  0  0  0  0  0  0  0  0  0
    2.4807   -8.5096    2.4488 C   0  0  0  0  0  0  0  0  0  0  0  0
    2.3081   -6.4177    5.3595 C   0  0  0  0  0  0  0  0  0  0  0  0
    1.8122   -5.1215    5.5770 C   0  0  0  0  0  0  0  0  0  0  0  0
    2.3262   -7.3488    6.3315 F   0  0  0  0  0  0  0  0  0  0  0  0
    1.3333   -1.9870    5.1730 C   0  0  0  0  0  0  0  0  0  0  0  0
    1.9780   -2.0030    6.4665 C   0  0  0  0  0  0  0  0  0  0  0  0
    1.5821   -1.2808    7.5598 C   0  0  0  0  0  0  0  0  0  0  0  0
    2.4842   -1.4146    8.6291 C   0  0  0  0  0  0  0  0  0  0  0  0
    2.2877   -0.8132    9.8158 F   0  0  0  0  0  0  0  0  0  0  0  0
    3.5728   -2.2007    8.3798 C   0  0  0  0  0  0  0  0  0  0  0  0
    4.7176   -2.5075    9.2811 C   0  0  0  0  0  0  0  0  0  0  0  0
    6.0101   -1.8600    8.7811 C   0  0  0  0  0  0  0  0  0  0  0  0
    3.4871   -2.8150    6.7649 S   0  0  0  0  0  0  0  0  0  0  0  0
    0.6466   -0.8868    4.9085 N   0  0  0  0  0  0  0  0  0  0  0  0
    0.1804   -0.7046    3.6755 C   0  0  0  0  0  0  0  0  0  0  0  0
   -0.6199    0.4158    3.3423 C   0  0  0  0  0  0  0  0  0  0  0  0
   -1.2167    1.3700    4.1782 C   0  0  0  0  0  0  0  0  0  0  0  0
   -1.2943    1.7641    5.8560 S   0  0  0  0  0  0  0  0  0  0  0  0
   -2.4170    3.0538    5.4848 C   0  0  0  0  0  0  0  0  0  0  0  0
   -3.0505    4.0250    6.2774 C   0  0  0  0  0  0  0  0  0  0  0  0
   -3.0031    4.0481    7.7708 C   0  0  0  0  0  0  0  0  0  0  0  0
   -3.2798    2.6746    8.3815 C   0  0  0  0  0  0  0  0  0  0  0  0
   -3.8206    4.8693    5.4890 C   0  0  0  0  0  0  0  0  0  0  0  0
   -3.8146    4.4191    3.7836 S   0  0  0  0  0  0  0  0  0  0  0  0
   -2.7029    3.1459    4.1140 C   0  0  0  0  0  0  0  0  0  0  0  0
   -2.0087    2.1898    3.3679 C   0  0  0  0  0  0  0  0  0  0  0  0
   -1.9011    1.7947    2.0600 N   0  0  0  0  0  0  0  0  0  0  0  0
   -2.8396    2.2854    1.0766 C   0  0  0  0  0  0  0  0  0  0  0  0
   -2.4507    3.6635    0.5439 C   0  0  0  0  0  0  0  0  0  0  0  0
   -1.0323    0.7221    2.0135 C   0  0  0  0  0  0  0  0  0  0  0  0
   -0.4967   -0.0582    0.9604 C   0  0  0  0  0  0  0  0  0  0  0  0
   -0.5133    0.0572   -0.4202 N   0  0  0  0  0  0  0  0  0  0  0  0
    0.1393   -1.0351   -0.9308 C   0  0  0  0  0  0  0  0  0  0  0  0
    0.5203   -1.5207   -2.1842 C   0  0  0  0  0  0  0  0  0  0  0  0
    0.4098   -1.0022   -3.8225 S   0  0  0  0  0  0  0  0  0  0  0  0
   -0.6300    1.2381   -1.2471 C   0  0  0  0  0  0  0  0  0  0  0  0
    0.6035    2.1272   -1.1025 C   0  0  0  0  0  0  0  0  0  0  0  0
   -4.6030    6.0106    5.8466 C   0  0  0  0  0  0  0  0  0  0  0  0
   -4.2805    6.9421    6.8085 C   0  0  0  0  0  0  0  0  0  0  0  0
   -5.1706    7.9841    7.1447 C   0  0  0  0  0  0  0  0  0  0  0  0
   -5.8879    8.8269    7.4439 N   0  0  0  0  0  0  0  0  0  0  0  0
   -3.0215    6.9939    7.4359 C   0  0  0  0  0  0  0  0  0  0  0  0
   -1.9784    7.0816    7.9058 N   0  0  0  0  0  0  0  0  0  0  0  0
   -5.7868    6.2179    5.0932 C   0  0  0  0  0  0  0  0  0  0  0  0
   -6.7403    6.3587    4.4742 N   0  0  0  0  0  0  0  0  0  0  0  0
    2.4679   -3.3097   -5.8794 H   0  0  0  0  0  0  0  0  0  0  0  0
    3.3050   -0.5107  -10.2550 H   0  0  0  0  0  0  0  0  0  0  0  0
   -0.8944    1.4580   -8.2110 H   0  0  0  0  0  0  0  0  0  0  0  0
    0.6533    3.7515  -10.2443 H   0  0  0  0  0  0  0  0  0  0  0  0
   -1.4654    2.7748  -11.5302 H   0  0  0  0  0  0  0  0  0  0  0  0
   -0.3645    4.6318  -13.0292 H   0  0  0  0  0  0  0  0  0  0  0  0
    1.8300    3.6145  -14.1275 H   0  0  0  0  0  0  0  0  0  0  0  0
    2.0803    1.1316  -13.3064 H   0  0  0  0  0  0  0  0  0  0  0  0
   -0.1098    0.4837  -11.8896 H   0  0  0  0  0  0  0  0  0  0  0  0
   -0.5614    1.1977  -13.4543 H   0  0  0  0  0  0  0  0  0  0  0  0
    2.8044    2.7557  -11.3225 H   0  0  0  0  0  0  0  0  0  0  0  0
    2.0201   -5.2362   -2.6431 H   0  0  0  0  0  0  0  0  0  0  0  0
    2.1924   -5.0199   -4.3909 H   0  0  0  0  0  0  0  0  0  0  0  0
    4.0556   -3.8687   -2.2492 H   0  0  0  0  0  0  0  0  0  0  0  0
    4.2473   -3.6254   -3.9883 H   0  0  0  0  0  0  0  0  0  0  0  0
    4.4152   -5.2422   -3.2988 H   0  0  0  0  0  0  0  0  0  0  0  0
    4.3532   -7.7346    3.1718 H   0  0  0  0  0  0  0  0  0  0  0  0
    3.4345   -8.6432    4.3838 H   0  0  0  0  0  0  0  0  0  0  0  0
    2.3954   -7.7993    1.6297 H   0  0  0  0  0  0  0  0  0  0  0  0
    2.9206   -9.4290    2.0719 H   0  0  0  0  0  0  0  0  0  0  0  0
    1.4833   -8.7296    2.8221 H   0  0  0  0  0  0  0  0  0  0  0  0
    1.3870   -4.8001    6.5094 H   0  0  0  0  0  0  0  0  0  0  0  0
    0.6863   -0.6901    7.5895 H   0  0  0  0  0  0  0  0  0  0  0  0
    4.8569   -3.5900    9.3394 H   0  0  0  0  0  0  0  0  0  0  0  0
    4.4780   -2.1354   10.2794 H   0  0  0  0  0  0  0  0  0  0  0  0
    5.8986   -0.7794    8.7321 H   0  0  0  0  0  0  0  0  0  0  0  0
    6.8301   -2.0944    9.4546 H   0  0  0  0  0  0  0  0  0  0  0  0
    6.2566   -2.2293    7.7881 H   0  0  0  0  0  0  0  0  0  0  0  0
   -2.0188    4.3998    8.0934 H   0  0  0  0  0  0  0  0  0  0  0  0
   -3.7443    4.7531    8.1515 H   0  0  0  0  0  0  0  0  0  0  0  0
   -3.3320    2.7659    9.4631 H   0  0  0  0  0  0  0  0  0  0  0  0
   -4.2281    2.2807    8.0216 H   0  0  0  0  0  0  0  0  0  0  0  0
   -2.4929    1.9677    8.1364 H   0  0  0  0  0  0  0  0  0  0  0  0
   -2.9334    1.5455    0.2806 H   0  0  0  0  0  0  0  0  0  0  0  0
   -3.8179    2.3632    1.5644 H   0  0  0  0  0  0  0  0  0  0  0  0
   -2.5232    4.4035    1.3365 H   0  0  0  0  0  0  0  0  0  0  0  0
   -3.1276    3.9534   -0.2549 H   0  0  0  0  0  0  0  0  0  0  0  0
   -1.4322    3.6722    0.1662 H   0  0  0  0  0  0  0  0  0  0  0  0
   -0.7165    0.8922   -2.2804 H   0  0  0  0  0  0  0  0  0  0  0  0
   -1.5290    1.7975   -1.0083 H   0  0  0  0  0  0  0  0  0  0  0  0
    0.5038    3.0063   -1.7331 H   0  0  0  0  0  0  0  0  0  0  0  0
    0.7278    2.4437   -0.0686 H   0  0  0  0  0  0  0  0  0  0  0  0
    1.4966    1.5846   -1.4036 H   0  0  0  0  0  0  0  0  0  0  0  0
  1  2  2  0  0  0  0
  2  3  1  0  0  0  0
  3  4  2  0  0  0  0
  3  5  1  0  0  0  0
  5  6  2  0  0  0  0
  6  7  1  0  0  0  0
  7  8  2  0  0  0  0
  8  9  1  0  0  0  0
  9 10  2  0  0  0  0
 10 11  1  0  0  0  0
 11 12  2  0  0  0  0
 12 13  1  0  0  0  0
 13 14  3  0  0  0  0
 12 15  1  0  0  0  0
 15 16  3  0  0  0  0
  8 17  1  0  0  0  0
 17 18  1  0  0  0  0
 18 19  1  0  0  0  0
 19 20  2  0  0  0  0
 20 21  1  0  0  0  0
 21 22  1  0  0  0  0
 21 23  1  0  0  0  0
  1 24  1  0  0  0  0
 24 25  2  0  0  0  0
 25 26  1  0  0  0  0
 26 27  1  0  0  0  0
 25 28  1  0  0  0  0
 28 29  1  0  0  0  0
 29 30  1  0  0  0  0
 30 31  1  0  0  0  0
 31 32  2  0  0  0  0
 32 33  1  0  0  0  0
 33 34  2  0  0  0  0
 34 35  1  0  0  0  0
 35 36  1  0  0  0  0
 36 37  1  0  0  0  0
 37 38  1  0  0  0  0
 38 39  1  0  0  0  0
 37 40  2  0  0  0  0
 40 41  1  0  0  0  0
 40 42  1  0  0  0  0
 34 43  1  0  0  0  0
 43 44  1  0  0  0  0
 44 45  2  0  0  0  0
 45 46  1  0  0  0  0
 46 47  1  0  0  0  0
 46 48  2  0  0  0  0
 48 49  1  0  0  0  0
 49 50  1  0  0  0  0
 48 51  1  0  0  0  0
 43 52  2  0  0  0  0
 52 53  1  0  0  0  0
 53 54  2  0  0  0  0
 54 55  1  0  0  0  0
 55 56  1  0  0  0  0
 56 57  1  0  0  0  0
 57 58  1  0  0  0  0
 58 59  1  0  0  0  0
 59 60  1  0  0  0  0
 58 61  2  0  0  0  0
 61 62  1  0  0  0  0
 62 63  1  0  0  0  0
 63 64  1  0  0  0  0
 64 65  1  0  0  0  0
 65 66  1  0  0  0  0
 66 67  1  0  0  0  0
 65 68  1  0  0  0  0
 68 69  2  0  0  0  0
 69 70  1  0  0  0  0
 70 71  1  0  0  0  0
 71 72  1  0  0  0  0
 72 73  1  0  0  0  0
 70 74  1  0  0  0  0
 74 75  1  0  0  0  0
 61 76  1  0  0  0  0
 76 77  2  0  0  0  0
 77 78  1  0  0  0  0
 78 79  3  0  0  0  0
 77 80  1  0  0  0  0
 80 81  3  0  0  0  0
 76 82  1  0  0  0  0
 82 83  3  0  0  0  0
 11  2  1  0  0  0  0
 23 17  1  0  0  0  0
 73 24  1  0  0  0  0
 10  5  1  0  0  0  0
 22 18  1  0  0  0  0
 72 28  2  0  0  0  0
 23  7  1  0  0  0  0
 71 30  2  0  0  0  0
 69 31  1  0  0  0  0
 53 32  1  0  0  0  0
 68 54  1  0  0  0  0
 41 35  2  0  0  0  0
 51 44  1  0  0  0  0
 64 55  2  0  0  0  0
 63 57  2  0  0  0  0
  1 84  1  0  0  0  0
  6 85  1  0  0  0  0
  9 86  1  0  0  0  0
 17 87  1  0  0  0  0
 18 88  1  0  0  0  0
 19 89  1  0  0  0  0
 20 90  1  0  0  0  0
 21 91  1  0  0  0  0
 22 92  1  0  0  0  0
 22 93  1  0  0  0  0
 23 94  1  0  0  0  0
 26 95  1  0  0  0  0
 26 96  1  0  0  0  0
 27 97  1  0  0  0  0
 27 98  1  0  0  0  0
 27 99  1  0  0  0  0
 38100  1  0  0  0  0
 38101  1  0  0  0  0
 39102  1  0  0  0  0
 39103  1  0  0  0  0
 39104  1  0  0  0  0
 41105  1  0  0  0  0
 45106  1  0  0  0  0
 49107  1  0  0  0  0
 49108  1  0  0  0  0
 50109  1  0  0  0  0
 50110  1  0  0  0  0
 50111  1  0  0  0  0
 59112  1  0  0  0  0
 59113  1  0  0  0  0
 60114  1  0  0  0  0
 60115  1  0  0  0  0
 60116  1  0  0  0  0
 66117  1  0  0  0  0
 66118  1  0  0  0  0
 67119  1  0  0  0  0
 67120  1  0  0  0  0
 67121  1  0  0  0  0
 74122  1  0  0  0  0
 74123  1  0  0  0  0
 75124  1  0  0  0  0
 75125  1  0  0  0  0
 75126  1  0  0  0  0
M  END
