104

C          2.79600        3.42120        3.95160
C          1.77810        3.32090        4.86460
C          0.72790        2.29820        4.88580
O          0.53750        1.41370        4.06720
C         -0.06450        2.54150        6.10140
C         -1.14730        1.79530        6.55980
C         -1.68670        2.25750        7.73610
C         -1.18410        3.37960        8.40830
C         -0.11440        4.12260        7.96780
C          0.44840        3.67140        6.77080
C          1.58290        4.19080        6.00860
C          2.30190        5.31540        6.32580
C          3.38610        5.83690        5.58970
N          4.27330        6.32990        5.04980
C          2.04930        6.13760        7.44410
N          1.90760        6.85550        8.32900
C         -2.20500        3.27430        9.51300
C         -3.40360        4.25470        9.48470
C         -3.61330        4.63570        8.04020
C         -4.08910        3.57260        7.40590
C         -4.20920        2.45290        8.41000
C         -4.55820        3.25740        9.67230
C         -2.76420        2.02310        8.76500
C          3.09120        2.65490        2.81660
C          4.22480        2.88440        2.01910
C          5.28770        3.90100        2.28110
C          6.29970        3.38050        3.30560
C          4.28070        1.99380        0.95430
C          3.20310        1.09450        0.90390
S          2.10330        1.32530        2.21020
C          3.31040        0.24050       -0.19690
C          4.46320        0.48540       -0.95820
S          5.43650        1.77790       -0.34720
C          4.47230       -0.44570       -2.00880
C          5.43360       -0.79180       -2.98750
N          6.61590       -0.24110       -3.20940
S          7.36950       -1.08040       -4.36890
N          6.21420       -2.18080       -4.64050
C          5.19510       -1.93120       -3.83480
C          3.93880       -2.57980       -3.78010
C          3.34660       -3.58980       -4.55430
S          3.78060       -4.69360       -5.81170
C          2.14100       -5.29900       -5.81460
C          1.48610       -6.27100       -6.55710
C          0.15650       -6.42070       -6.19070
S         -0.29310       -5.27970       -4.92440
C          1.31160       -4.65570       -4.87700
C          2.00340       -3.68640       -4.15330
N          1.75050       -2.79410       -3.14040
C          0.41360       -2.27740       -2.92460
C         -0.14360       -1.63730       -4.19580
C          2.93600       -2.13590       -2.87710
C          3.26990       -1.19350       -1.88200
N          2.58920       -0.78660       -0.75210
C          1.71600       -1.59920        0.07280
C          2.48120       -2.21880        1.24140
C         -0.76560       -7.28080       -6.81690
C         -2.03510       -7.62470       -6.45230
C         -2.98290       -8.11710       -7.48530
O         -2.71350       -8.49290       -8.60300
C         -4.32200       -7.98190       -6.87060
C         -5.56630       -8.18420       -7.43690
C         -6.69210       -7.95760       -6.66070
C         -6.54770       -7.53400       -5.34630
Br        -8.10840       -7.20410       -4.31340
C         -5.30490       -7.33650       -4.75600
C         -4.18430       -7.56890       -5.53260
C         -2.75860       -7.50180       -5.20920
C         -2.22900       -7.61020       -3.94980
C         -2.99210       -7.55040       -2.76750
N         -3.56800       -7.47640       -1.77740
C         -0.86810       -7.89780       -3.71320
N          0.21830       -8.19180       -3.48840
H          3.51080        4.21370        4.12540
H         -1.49930        0.93520        6.01190
H          0.26220        4.97870        8.50200
H         -1.80810        3.13400       10.51650
H         -3.33090        5.07640       10.19200
H         -3.34890        5.59240        7.62920
H         -4.30170        3.46310        6.35850
H         -4.87030        1.63380        8.13960
H         -4.48530        2.67690       10.59100
H         -5.53730        3.73040        9.61280
H         -2.73070        1.06480        9.27980
H          4.85640        4.83650        2.64060
H          5.80510        4.10260        1.34100
H          7.06980        4.12770        3.47450
H          5.81270        3.16630        4.25420
H          6.77000        2.46920        2.94350
H          1.94850       -6.87100       -7.31920
H         -0.23430       -3.10020       -2.60600
H          0.44800       -1.51730       -2.14660
H         -0.25420       -2.37020       -4.98990
H         -1.11910       -1.20770       -3.98610
H          0.51980       -0.84640       -4.53950
H          0.90860       -0.96700        0.45460
H          1.30100       -2.40460       -0.52990
H          2.85870       -1.45170        1.91110
H          3.31780       -2.80950        0.87340
H          1.81560       -2.86740        1.80350
H         -0.45430       -7.65540       -7.78770
H         -5.65100       -8.51220       -8.46120
H         -7.67940       -8.10520       -7.07010
H         -5.23390       -7.00470       -3.73240
