
  xtb     02022212443D
 energy: -186.989771401451 gnorm: 0.000312955792 xtb: 6.4.1 (unknown)
105118  0     0  0            999 V2000
   -1.8410    5.2173    0.1466 C   0  0  0  0  0  0  0  0  0  0  0  0
   -3.0408    5.0412   -0.4842 C   0  0  0  0  0  0  0  0  0  0  0  0
   -3.5225    3.7354   -0.9981 C   0  0  0  0  0  0  0  0  0  0  0  0
   -2.8814    2.7223   -1.1862 O   0  0  0  0  0  0  0  0  0  0  0  0
   -4.9848    3.8830   -1.1298 C   0  0  0  0  0  0  0  0  0  0  0  0
   -5.8907    2.8839   -1.4790 C   0  0  0  0  0  0  0  0  0  0  0  0
   -7.2017    3.2954   -1.4840 C   0  0  0  0  0  0  0  0  0  0  0  0
   -7.5871    4.6041   -1.1637 C   0  0  0  0  0  0  0  0  0  0  0  0
   -6.7042    5.5989   -0.8152 C   0  0  0  0  0  0  0  0  0  0  0  0
   -5.3640    5.2004   -0.8035 C   0  0  0  0  0  0  0  0  0  0  0  0
   -4.1627    5.9544   -0.4597 C   0  0  0  0  0  0  0  0  0  0  0  0
   -4.0839    7.3045   -0.2333 C   0  0  0  0  0  0  0  0  0  0  0  0
   -2.8710    7.9893   -0.0122 C   0  0  0  0  0  0  0  0  0  0  0  0
   -1.9129    8.6030    0.1449 N   0  0  0  0  0  0  0  0  0  0  0  0
   -5.1876    8.1800   -0.2411 C   0  0  0  0  0  0  0  0  0  0  0  0
   -6.0492    8.9392   -0.2303 N   0  0  0  0  0  0  0  0  0  0  0  0
   -9.0528    4.3052   -1.3613 C   0  0  0  0  0  0  0  0  0  0  0  0
   -9.6908    4.8033   -2.6752 C   0  0  0  0  0  0  0  0  0  0  0  0
  -10.9472    3.9722   -2.8036 C   0  0  0  0  0  0  0  0  0  0  0  0
  -10.5823    2.7329   -3.1061 C   0  0  0  0  0  0  0  0  0  0  0  0
   -9.0730    2.7052   -3.1870 C   0  0  0  0  0  0  0  0  0  0  0  0
   -8.8114    4.1166   -3.7282 C   0  0  0  0  0  0  0  0  0  0  0  0
   -8.6223    2.8461   -1.7179 C   0  0  0  0  0  0  0  0  0  0  0  0
   -0.7346    4.3320    0.0981 C   0  0  0  0  0  0  0  0  0  0  0  0
    0.0036    3.9259    1.2259 C   0  0  0  0  0  0  0  0  0  0  0  0
    0.8424    2.9160    0.7805 C   0  0  0  0  0  0  0  0  0  0  0  0
    0.6606    2.7903   -0.6143 C   0  0  0  0  0  0  0  0  0  0  0  0
   -0.3070    3.6391   -1.0160 N   0  0  0  0  0  0  0  0  0  0  0  0
   -0.5675    3.9705   -2.3943 C   0  0  0  0  0  0  0  0  0  0  0  0
    0.5482    4.8493   -2.9549 C   0  0  0  0  0  0  0  0  0  0  0  0
    1.5328    1.7795   -1.0630 C   0  0  0  0  0  0  0  0  0  0  0  0
    1.8825    1.2902   -2.3419 C   0  0  0  0  0  0  0  0  0  0  0  0
    2.8435    0.2239   -2.4488 C   0  0  0  0  0  0  0  0  0  0  0  0
    3.1144   -0.0905   -3.7044 N   0  0  0  0  0  0  0  0  0  0  0  0
    2.2393    0.8619   -4.6770 S   0  0  0  0  0  0  0  0  0  0  0  0
    1.4754    1.7147   -3.5288 N   0  0  0  0  0  0  0  0  0  0  0  0
    3.2911   -0.4144   -1.2697 C   0  0  0  0  0  0  0  0  0  0  0  0
    3.9542   -1.6301   -1.0589 C   0  0  0  0  0  0  0  0  0  0  0  0
    4.6760   -2.8975   -1.9882 S   0  0  0  0  0  0  0  0  0  0  0  0
    4.8413   -3.8387   -0.5175 C   0  0  0  0  0  0  0  0  0  0  0  0
    5.2942   -5.1291   -0.2834 C   0  0  0  0  0  0  0  0  0  0  0  0
    5.7846   -6.0245   -1.3738 C   0  0  0  0  0  0  0  0  0  0  0  0
    4.6452   -6.8893   -1.9203 C   0  0  0  0  0  0  0  0  0  0  0  0
    5.1484   -5.4849    1.0692 C   0  0  0  0  0  0  0  0  0  0  0  0
    4.4809   -4.1671    2.0343 S   0  0  0  0  0  0  0  0  0  0  0  0
    4.3774   -3.1725    0.6313 C   0  0  0  0  0  0  0  0  0  0  0  0
    3.8926   -1.9012    0.3168 C   0  0  0  0  0  0  0  0  0  0  0  0
    3.2658   -0.8691    0.9647 N   0  0  0  0  0  0  0  0  0  0  0  0
    2.8923    0.0569    0.0143 C   0  0  0  0  0  0  0  0  0  0  0  0
    2.1489    1.2553    0.1084 C   0  0  0  0  0  0  0  0  0  0  0  0
    1.7581    1.9871    1.2210 N   0  0  0  0  0  0  0  0  0  0  0  0
    2.5626    2.2382    2.3972 C   0  0  0  0  0  0  0  0  0  0  0  0
    3.2485    3.6025    2.3249 C   0  0  0  0  0  0  0  0  0  0  0  0
    2.7962   -1.0265    2.3241 C   0  0  0  0  0  0  0  0  0  0  0  0
    3.9297   -0.9425    3.3445 C   0  0  0  0  0  0  0  0  0  0  0  0
    5.4550   -6.7560    1.5628 C   0  0  0  0  0  0  0  0  0  0  0  0
    5.2952   -7.3012    2.8127 C   0  0  0  0  0  0  0  0  0  0  0  0
    4.7674   -6.6300    4.0117 C   0  0  0  0  0  0  0  0  0  0  0  0
    4.4232   -5.4678    4.1251 O   0  0  0  0  0  0  0  0  0  0  0  0
    4.7507   -7.6612    5.0633 C   0  0  0  0  0  0  0  0  0  0  0  0
    4.3785   -7.7630    6.4117 C   0  0  0  0  0  0  0  0  0  0  0  0
    4.6008   -9.0305    6.8772 C   0  0  0  0  0  0  0  0  0  0  0  0
    4.2898   -9.5968    8.4535 Cl  0  0  0  0  0  0  0  0  0  0  0  0
    5.2680  -10.1157    5.6820 S   0  0  0  0  0  0  0  0  0  0  0  0
    5.2456   -8.8413    4.5333 C   0  0  0  0  0  0  0  0  0  0  0  0
    5.6050   -8.6809    3.1494 C   0  0  0  0  0  0  0  0  0  0  0  0
    6.1236   -9.6805    2.3619 C   0  0  0  0  0  0  0  0  0  0  0  0
    6.4847   -9.5648    1.0077 C   0  0  0  0  0  0  0  0  0  0  0  0
    6.7956   -9.5351   -0.0985 N   0  0  0  0  0  0  0  0  0  0  0  0
    6.3403  -10.9687    2.8930 C   0  0  0  0  0  0  0  0  0  0  0  0
    6.5171  -12.0205    3.3167 N   0  0  0  0  0  0  0  0  0  0  0  0
   -1.7431    6.0386    0.8470 H   0  0  0  0  0  0  0  0  0  0  0  0
   -5.5520    1.8863   -1.7109 H   0  0  0  0  0  0  0  0  0  0  0  0
   -7.0135    6.5977   -0.5547 H   0  0  0  0  0  0  0  0  0  0  0  0
   -9.6894    4.4629   -0.4927 H   0  0  0  0  0  0  0  0  0  0  0  0
   -9.8073    5.8813   -2.7446 H   0  0  0  0  0  0  0  0  0  0  0  0
  -11.9359    4.3459   -2.6121 H   0  0  0  0  0  0  0  0  0  0  0  0
  -11.2050    1.8646   -3.2176 H   0  0  0  0  0  0  0  0  0  0  0  0
   -8.6268    1.8716   -3.7227 H   0  0  0  0  0  0  0  0  0  0  0  0
   -7.7657    4.4168   -3.6970 H   0  0  0  0  0  0  0  0  0  0  0  0
   -9.1985    4.2488   -4.7372 H   0  0  0  0  0  0  0  0  0  0  0  0
   -8.9709    2.0313   -1.0857 H   0  0  0  0  0  0  0  0  0  0  0  0
   -0.1524    4.2827    2.2248 H   0  0  0  0  0  0  0  0  0  0  0  0
   -0.6245    3.0389   -2.9601 H   0  0  0  0  0  0  0  0  0  0  0  0
   -1.5203    4.4934   -2.4634 H   0  0  0  0  0  0  0  0  0  0  0  0
    1.4913    4.3103   -2.9384 H   0  0  0  0  0  0  0  0  0  0  0  0
    0.3222    5.1159   -3.9831 H   0  0  0  0  0  0  0  0  0  0  0  0
    0.6468    5.7615   -2.3695 H   0  0  0  0  0  0  0  0  0  0  0  0
    6.5915   -6.6678   -1.0204 H   0  0  0  0  0  0  0  0  0  0  0  0
    6.1730   -5.3986   -2.1797 H   0  0  0  0  0  0  0  0  0  0  0  0
    4.2343   -7.5237   -1.1384 H   0  0  0  0  0  0  0  0  0  0  0  0
    5.0162   -7.5246   -2.7193 H   0  0  0  0  0  0  0  0  0  0  0  0
    3.8493   -6.2609   -2.3131 H   0  0  0  0  0  0  0  0  0  0  0  0
    3.3292    1.4714    2.4656 H   0  0  0  0  0  0  0  0  0  0  0  0
    1.9214    2.1923    3.2840 H   0  0  0  0  0  0  0  0  0  0  0  0
    3.8699    3.7455    3.2049 H   0  0  0  0  0  0  0  0  0  0  0  0
    3.8780    3.6598    1.4395 H   0  0  0  0  0  0  0  0  0  0  0  0
    2.5166    4.4039    2.2804 H   0  0  0  0  0  0  0  0  0  0  0  0
    2.3349   -2.0173    2.4046 H   0  0  0  0  0  0  0  0  0  0  0  0
    2.0249   -0.2808    2.5165 H   0  0  0  0  0  0  0  0  0  0  0  0
    4.5993   -1.7905    3.2332 H   0  0  0  0  0  0  0  0  0  0  0  0
    4.5125   -0.0316    3.2276 H   0  0  0  0  0  0  0  0  0  0  0  0
    3.5159   -0.9663    4.3483 H   0  0  0  0  0  0  0  0  0  0  0  0
    5.8618   -7.4212    0.8126 H   0  0  0  0  0  0  0  0  0  0  0  0
    3.9732   -6.9640    7.0033 H   0  0  0  0  0  0  0  0  0  0  0  0
  1  2  2  0  0  0  0
  2  3  1  0  0  0  0
  3  4  2  0  0  0  0
  3  5  1  0  0  0  0
  5  6  2  0  0  0  0
  6  7  1  0  0  0  0
  7  8  2  0  0  0  0
  8  9  1  0  0  0  0
  9 10  2  0  0  0  0
 10 11  1  0  0  0  0
 11 12  2  0  0  0  0
 12 13  1  0  0  0  0
 13 14  3  0  0  0  0
 12 15  1  0  0  0  0
 15 16  3  0  0  0  0
  8 17  1  0  0  0  0
 17 18  1  0  0  0  0
 18 19  1  0  0  0  0
 19 20  2  0  0  0  0
 20 21  1  0  0  0  0
 21 22  1  0  0  0  0
 21 23  1  0  0  0  0
  1 24  1  0  0  0  0
 24 25  2  0  0  0  0
 25 26  1  0  0  0  0
 26 27  2  0  0  0  0
 27 28  1  0  0  0  0
 28 29  1  0  0  0  0
 29 30  1  0  0  0  0
 27 31  1  0  0  0  0
 31 32  1  0  0  0  0
 32 33  1  0  0  0  0
 33 34  2  0  0  0  0
 34 35  1  0  0  0  0
 35 36  1  0  0  0  0
 33 37  1  0  0  0  0
 37 38  1  0  0  0  0
 38 39  1  0  0  0  0
 39 40  1  0  0  0  0
 40 41  1  0  0  0  0
 41 42  1  0  0  0  0
 42 43  1  0  0  0  0
 41 44  2  0  0  0  0
 44 45  1  0  0  0  0
 45 46  1  0  0  0  0
 46 47  1  0  0  0  0
 47 48  1  0  0  0  0
 48 49  1  0  0  0  0
 49 50  1  0  0  0  0
 50 51  1  0  0  0  0
 51 52  1  0  0  0  0
 52 53  1  0  0  0  0
 48 54  1  0  0  0  0
 54 55  1  0  0  0  0
 44 56  1  0  0  0  0
 56 57  2  0  0  0  0
 57 58  1  0  0  0  0
 58 59  2  0  0  0  0
 58 60  1  0  0  0  0
 60 61  1  0  0  0  0
 61 62  2  0  0  0  0
 62 63  1  0  0  0  0
 62 64  1  0  0  0  0
 64 65  1  0  0  0  0
 65 66  1  0  0  0  0
 66 67  2  0  0  0  0
 67 68  1  0  0  0  0
 68 69  3  0  0  0  0
 67 70  1  0  0  0  0
 70 71  3  0  0  0  0
 11  2  1  0  0  0  0
 23 17  1  0  0  0  0
 28 24  1  0  0  0  0
 50 31  2  0  0  0  0
 66 57  1  0  0  0  0
 10  5  1  0  0  0  0
 22 18  1  0  0  0  0
 51 26  1  0  0  0  0
 65 60  2  0  0  0  0
 23  7  1  0  0  0  0
 36 32  2  0  0  0  0
 49 37  2  0  0  0  0
 47 38  2  0  0  0  0
 46 40  2  0  0  0  0
  1 72  1  0  0  0  0
  6 73  1  0  0  0  0
  9 74  1  0  0  0  0
 17 75  1  0  0  0  0
 18 76  1  0  0  0  0
 19 77  1  0  0  0  0
 20 78  1  0  0  0  0
 21 79  1  0  0  0  0
 22 80  1  0  0  0  0
 22 81  1  0  0  0  0
 23 82  1  0  0  0  0
 25 83  1  0  0  0  0
 29 84  1  0  0  0  0
 29 85  1  0  0  0  0
 30 86  1  0  0  0  0
 30 87  1  0  0  0  0
 30 88  1  0  0  0  0
 42 89  1  0  0  0  0
 42 90  1  0  0  0  0
 43 91  1  0  0  0  0
 43 92  1  0  0  0  0
 43 93  1  0  0  0  0
 52 94  1  0  0  0  0
 52 95  1  0  0  0  0
 53 96  1  0  0  0  0
 53 97  1  0  0  0  0
 53 98  1  0  0  0  0
 54 99  1  0  0  0  0
 54100  1  0  0  0  0
 55101  1  0  0  0  0
 55102  1  0  0  0  0
 55103  1  0  0  0  0
 56104  1  0  0  0  0
 61105  1  0  0  0  0
M  END
