136

C         -5.82870        3.59650        0.70780
C         -6.48300        2.69930        1.51140
C         -6.00350        1.36620        1.88350
O         -4.94000        0.84840        1.58110
C         -7.06960        0.75370        2.69220
C         -7.06170       -0.51420        3.26800
C         -8.20210       -0.81490        3.97310
C         -9.27280        0.08030        4.09550
C         -9.29110        1.33610        3.53570
C         -8.13990        1.66360        2.81450
C         -7.78770        2.89590        2.10950
C         -8.54480        4.03930        2.07710
C         -8.17040        5.26350        1.48310
N         -7.94530        6.30450        1.05130
C         -9.81800        4.16850        2.67040
N        -10.85990        4.34710        3.11890
C        -10.08440       -0.88000        4.92810
C        -11.24350       -1.63700        4.23400
C        -10.88230       -1.72750        2.77220
C         -9.86830       -2.57480        2.65740
C         -9.52540       -3.07230        4.03980
C        -10.92180       -3.07170        4.68220
C         -8.89050       -1.87710        4.79290
C         -4.55190        3.54070        0.13600
C         -4.03800        4.61120       -0.61430
C         -4.83900        5.79300       -0.96960
C         -5.84230        5.64740       -1.92340
C         -6.62640        6.72440       -2.28720
C         -6.41670        7.95540       -1.69080
C         -5.42550        8.09980       -0.73850
C         -4.62220        7.03140       -0.36420
C         -3.61340        7.19930        0.73590
C         -4.21760        6.78020        2.07840
C         -2.72130        4.38480       -0.99640
S         -1.56900        5.33030       -1.92090
C         -0.41680        4.05340       -1.72330
C          0.89050        3.73180       -2.11430
C          1.79680        4.40360       -2.96500
C          3.03820        3.76760       -3.29830
N          3.75990        4.48060       -4.14810
S          2.94990        5.83920       -4.49490
N          1.64630        5.56840       -3.57510
C          3.36910        2.54620       -2.66990
C          4.54730        1.78940       -2.68890
S          6.10180        1.80620       -3.45000
C          6.54460        0.40540       -2.49240
C          7.69940       -0.35940       -2.42810
C          8.92240       -0.08080       -3.19570
C          9.34320       -0.90780       -4.23990
C          8.50870       -2.06570       -4.71070
C          7.43310       -1.57580       -5.68290
C         10.51940       -0.58780       -4.90360
C         11.26680        0.51920       -4.54790
C         10.83420        1.34430       -3.52460
C          9.66370        1.04610       -2.85470
C          7.57550       -1.41270       -1.50150
S          5.98930       -1.43850       -0.73530
C          5.52070       -0.04490       -1.63660
C          4.38150        0.75240       -1.76030
N          3.14220        0.83710       -1.18400
C          2.48660        1.91530       -1.74190
C          1.18640        2.45250       -1.55830
N          0.06760        1.99930       -0.87730
C         -0.89810        2.96660       -0.98420
C         -2.21930        3.14470       -0.56430
S         -3.38290        2.24080        0.33400
C         -0.36490        0.64180       -0.61650
C         -0.69370       -0.08220       -1.92030
C          2.86670        0.09490        0.02580
C          2.48290       -1.35640       -0.25830
C          8.63000       -2.29100       -1.24350
C          8.69600       -3.39170       -0.42120
C          7.61100       -3.90180        0.41730
O          6.48510       -3.44890        0.54070
C          8.14890       -5.09290        1.10360
C          7.51590       -5.93000        1.99660
C          8.24390       -7.00070        2.51660
C          7.64400       -7.96070        3.47930
O          8.23350       -8.89750        3.95820
O          6.36630       -7.67320        3.75920
C          5.72090       -8.55090        4.66950
C          9.57080       -7.19800        2.13550
C         10.20320       -6.35410        1.23540
C          9.48530       -5.29020        0.70980
C          9.85090       -4.24730       -0.25140
C         11.06860       -4.14280       -0.87440
C         12.14950       -5.02230       -0.65240
N         13.07050       -5.69600       -0.52630
C         11.43480       -3.16960       -1.82800
N         11.82120       -2.42770       -2.61580
H         -6.35110        4.51620        0.47210
H         -6.21400       -1.17100        3.15030
H        -10.12260        2.01230        3.64240
H        -10.35190       -0.53670        5.92550
H        -12.23370       -1.25110        4.46070
H        -11.34900       -1.14080        2.00280
H         -9.31830       -2.83730        1.77260
H         -8.95170       -3.99400        4.09000
H        -10.90170       -3.19400        5.76420
H        -11.58880       -3.81050        4.24060
H         -8.37820       -2.18460        5.70260
H         -5.99770        4.67960       -2.37990
H         -7.40190        6.60020       -3.02790
H         -7.03170        8.80010       -1.96160
H         -5.27280        9.05900       -0.26560
H         -3.31170        8.24660        0.79130
H         -2.72290        6.60110        0.53640
H         -3.52390        6.99050        2.88920
H         -4.44150        5.71540        2.08360
H         -5.14350        7.32140        2.25890
H          9.14940       -2.79120       -5.21490
H          8.02800       -2.56810       -3.86950
H          6.83370       -2.41070       -6.03860
H          7.89230       -1.08690       -6.53890
H          6.77600       -0.85960       -5.19440
H         10.85530       -1.22490       -5.70830
H         12.18520        0.73920       -5.07040
H         11.40720        2.21530       -3.24460
H          9.31970        1.67780       -2.04830
H          0.38160        0.08770       -0.05760
H         -1.26360        0.71260        0.00100
H          0.18440       -0.13780       -2.56120
H         -1.47740        0.44680       -2.45750
H         -1.04070       -1.08920       -1.70640
H          3.78260        0.09730        0.62700
H          2.10190        0.62510        0.59490
H          3.34230       -1.89810       -0.64360
H          2.16510       -1.83860        0.66190
H          1.68190       -1.42270       -0.98940
H          9.52550       -2.04570       -1.80280
H          6.48950       -5.76020        2.28020
H          5.71220       -9.56840        4.27310
H          6.24310       -8.55400        5.62850
H          4.70720       -8.17660        4.78610
H         10.10170       -8.03580        2.56200
H         11.22940       -6.53570        0.96170
