94

C         -3.11980        4.90690       -0.06330
C         -4.34410        4.28250       -0.03610
C         -4.55510        2.84500        0.06510
O         -3.69520        1.97770        0.18810
C         -6.00370        2.61870       -0.01120
C         -6.66970        1.39590        0.02200
C         -8.03600        1.50170       -0.08120
C         -8.69130        2.73400       -0.20130
C         -8.04540        3.94820       -0.23010
C         -6.65450        3.86430       -0.13380
C         -5.64180        4.92150       -0.13710
C         -5.90210        6.26560       -0.20900
C         -4.93730        7.29480       -0.18890
N         -4.22260        8.19420       -0.17480
C         -7.19300        6.82650       -0.30610
N         -8.20760        7.35790       -0.38870
C        -10.05450        2.09310       -0.26970
C        -10.73340        1.99020       -1.65780
C         -9.62220        1.96180       -2.67780
C         -9.00090        0.79530       -2.56710
C         -9.68090        0.01360       -1.47020
C        -11.12700        0.50440       -1.64470
C         -9.32410        0.71940       -0.13820
C         -1.82540        4.37790        0.01570
C         -0.70440        5.20910       -0.06370
C          0.51360        4.56450        0.03030
S          2.14890        5.20120       -0.01510
C          2.74810        3.59390        0.19780
C          3.96710        2.92740        0.37300
C          5.28220        3.42580        0.50550
C          6.33690        2.51310        0.83580
N          7.50240        3.12110        0.99010
S          7.29160        4.70590        0.73540
N          5.70380        4.67740        0.42060
C          6.04870        1.13180        0.90210
C          6.89250        0.02830        1.08640
C          6.10610       -1.11670        0.92780
N          4.80250       -0.76430        0.68890
C          3.94950       -1.76210        0.08350
C          4.21520       -1.87100       -1.41650
C          4.73640        0.61930        0.67300
C          3.66560        1.53960        0.52480
N          2.29300        1.39280        0.48880
C          1.73800        2.62810        0.28310
C          0.45150        3.16440        0.19660
Se        -1.31540        2.56210        0.23310
C          1.43860        0.30270        0.89600
C          0.75480       -0.36810       -0.29520
C          6.83380       -2.30630        1.02970
C          8.19070       -2.03000        1.29250
S          8.55780       -0.31670        1.39710
C          9.01140       -3.13730        1.41360
C          8.37330       -4.36610        1.25100
Se         6.51880       -4.14180        0.90160
C          9.06350       -5.58310        1.34840
C          8.60760       -6.86670        1.21920
C          7.25950       -7.31740        0.93510
O          6.26680       -6.62130        0.75220
C          7.30840       -8.79600        0.90330
C          6.29630       -9.70830        0.67390
C          6.61700      -11.06040        0.69780
C          7.91490      -11.48310        0.94470
C          8.93480      -10.56680        1.17630
C          8.62030       -9.22270        1.15330
C          9.49400       -8.03810        1.36230
O         10.68190       -8.03300        1.59940
H         -3.12860        5.98550       -0.17290
H         -6.12450        0.47010        0.11940
H         -8.56780        4.88540       -0.32260
H        -10.75380        2.37600        0.51440
H        -11.52320        2.71670       -1.82870
H         -9.37410        2.78960       -3.31590
H         -8.12940        0.45370       -3.09430
H         -9.51310       -1.06030       -1.47110
H        -11.77950        0.23570       -0.81510
H        -11.57200        0.17840       -2.58350
H         -9.54840        0.10360        0.73050
H         -0.79910        6.27480       -0.18810
H          4.18620       -2.71890        0.56690
H          2.90330       -1.54520        0.25870
H          4.03880       -0.91450       -1.90540
H          5.24620       -2.16780       -1.59750
H          3.55990       -2.61900       -1.85370
H          2.01650       -0.39920        1.49940
H          0.65830        0.72490        1.54420
H          1.46950       -0.64190       -1.06710
H          0.22610       -1.25810        0.03470
H          0.02780        0.31490       -0.73470
H         10.06690       -3.06890        1.61590
H         10.12650       -5.49440        1.56140
H          5.28890       -9.37170        0.48250
H          5.84410      -11.79390        0.52120
H          8.13600      -12.54010        0.95710
H          9.94710      -10.88740        1.36930
