
  xtb     02012218263D
 energy: -229.529408789515 gnorm: 0.000302354043 xtb: 6.4.1 (unknown)
133149  0     0  0            999 V2000
    3.3688    2.9972   -5.7223 C   0  0  0  0  0  0  0  0  0  0  0  0
    4.5419    3.3551   -5.1096 C   0  0  0  0  0  0  0  0  0  0  0  0
    5.0902    2.7659   -3.8861 C   0  0  0  0  0  0  0  0  0  0  0  0
    4.5657    1.9358   -3.1605 O   0  0  0  0  0  0  0  0  0  0  0  0
    6.4227    3.3636   -3.7010 C   0  0  0  0  0  0  0  0  0  0  0  0
    7.3364    3.0789   -2.6886 C   0  0  0  0  0  0  0  0  0  0  0  0
    8.5054    3.7960   -2.7735 C   0  0  0  0  0  0  0  0  0  0  0  0
    8.7495    4.7261   -3.7925 C   0  0  0  0  0  0  0  0  0  0  0  0
    7.8583    5.0131   -4.7995 C   0  0  0  0  0  0  0  0  0  0  0  0
    6.6594    4.2974   -4.7306 C   0  0  0  0  0  0  0  0  0  0  0  0
    5.4838    4.3400   -5.5997 C   0  0  0  0  0  0  0  0  0  0  0  0
    5.2922    5.2114   -6.6417 C   0  0  0  0  0  0  0  0  0  0  0  0
    6.2406    6.1655   -7.0651 C   0  0  0  0  0  0  0  0  0  0  0  0
    6.9654    6.9612   -7.4656 N   0  0  0  0  0  0  0  0  0  0  0  0
    4.1174    5.3232   -7.4155 C   0  0  0  0  0  0  0  0  0  0  0  0
    3.1956    5.5035   -8.0776 N   0  0  0  0  0  0  0  0  0  0  0  0
   10.1141    5.0778   -3.2541 C   0  0  0  0  0  0  0  0  0  0  0  0
   10.2275    6.4080   -2.4795 C   0  0  0  0  0  0  0  0  0  0  0  0
   11.5041    6.2549   -1.6844 C   0  0  0  0  0  0  0  0  0  0  0  0
   11.2757    5.3721   -0.7205 C   0  0  0  0  0  0  0  0  0  0  0  0
    9.8406    4.9140   -0.8476 C   0  0  0  0  0  0  0  0  0  0  0  0
    9.1955    6.2073   -1.3621 C   0  0  0  0  0  0  0  0  0  0  0  0
    9.8427    4.0390   -2.1189 C   0  0  0  0  0  0  0  0  0  0  0  0
    2.3526    2.1336   -5.2972 C   0  0  0  0  0  0  0  0  0  0  0  0
    1.1841    1.9401   -6.0535 C   0  0  0  0  0  0  0  0  0  0  0  0
    1.0159    2.4931   -7.4055 C   0  0  0  0  0  0  0  0  0  0  0  0
    1.7899    1.9637   -8.4346 C   0  0  0  0  0  0  0  0  0  0  0  0
    1.6794    2.4534   -9.7211 C   0  0  0  0  0  0  0  0  0  0  0  0
    0.7975    3.4867   -9.9854 C   0  0  0  0  0  0  0  0  0  0  0  0
    0.0352    4.0200   -8.9633 C   0  0  0  0  0  0  0  0  0  0  0  0
    0.1262    3.5377   -7.6648 C   0  0  0  0  0  0  0  0  0  0  0  0
   -0.6489    4.2030   -6.5636 C   0  0  0  0  0  0  0  0  0  0  0  0
    0.2332    5.2124   -5.8248 C   0  0  0  0  0  0  0  0  0  0  0  0
    0.2545    1.1635   -5.3716 C   0  0  0  0  0  0  0  0  0  0  0  0
   -1.3693    0.6252   -5.7632 S   0  0  0  0  0  0  0  0  0  0  0  0
   -1.4617   -0.1207   -4.2029 C   0  0  0  0  0  0  0  0  0  0  0  0
   -2.3988   -0.7753   -3.3928 C   0  0  0  0  0  0  0  0  0  0  0  0
   -3.7746   -1.0288   -3.5913 C   0  0  0  0  0  0  0  0  0  0  0  0
   -4.5549   -1.5110   -2.4895 C   0  0  0  0  0  0  0  0  0  0  0  0
   -5.8377   -1.6318   -2.7923 N   0  0  0  0  0  0  0  0  0  0  0  0
   -6.0446   -1.1855   -4.3347 S   0  0  0  0  0  0  0  0  0  0  0  0
   -4.5059   -0.8143   -4.6733 N   0  0  0  0  0  0  0  0  0  0  0  0
   -3.9040   -1.8206   -1.2747 C   0  0  0  0  0  0  0  0  0  0  0  0
   -4.4034   -2.3130   -0.0601 C   0  0  0  0  0  0  0  0  0  0  0  0
   -5.9232   -2.6677    0.6868 S   0  0  0  0  0  0  0  0  0  0  0  0
   -5.0734   -3.0659    2.1627 C   0  0  0  0  0  0  0  0  0  0  0  0
   -5.5194   -3.4305    3.4403 C   0  0  0  0  0  0  0  0  0  0  0  0
   -6.9347   -3.6260    3.7685 C   0  0  0  0  0  0  0  0  0  0  0  0
   -7.4302   -4.8087    4.3293 C   0  0  0  0  0  0  0  0  0  0  0  0
   -6.5878   -6.0454    4.4852 C   0  0  0  0  0  0  0  0  0  0  0  0
   -6.2830   -6.6650    3.1204 C   0  0  0  0  0  0  0  0  0  0  0  0
   -8.7801   -4.8660    4.6504 C   0  0  0  0  0  0  0  0  0  0  0  0
   -9.6281   -3.7965    4.4227 C   0  0  0  0  0  0  0  0  0  0  0  0
   -9.1391   -2.6485    3.8261 C   0  0  0  0  0  0  0  0  0  0  0  0
   -7.8005   -2.5686    3.4958 C   0  0  0  0  0  0  0  0  0  0  0  0
   -4.4497   -3.5936    4.3168 C   0  0  0  0  0  0  0  0  0  0  0  0
   -2.8909   -3.3933    3.5161 S   0  0  0  0  0  0  0  0  0  0  0  0
   -3.6793   -2.9717    2.0430 C   0  0  0  0  0  0  0  0  0  0  0  0
   -3.3005   -2.5239    0.7753 C   0  0  0  0  0  0  0  0  0  0  0  0
   -2.1448   -2.1671    0.1333 N   0  0  0  0  0  0  0  0  0  0  0  0
   -2.4926   -1.6947   -1.1228 C   0  0  0  0  0  0  0  0  0  0  0  0
   -1.7507   -1.0613   -2.1541 C   0  0  0  0  0  0  0  0  0  0  0  0
   -0.4580   -0.5759   -2.2205 N   0  0  0  0  0  0  0  0  0  0  0  0
   -0.2918    0.0103   -3.4451 C   0  0  0  0  0  0  0  0  0  0  0  0
    0.6953    0.7506   -4.1023 C   0  0  0  0  0  0  0  0  0  0  0  0
    2.2893    1.3064   -3.7460 S   0  0  0  0  0  0  0  0  0  0  0  0
    0.5055   -0.3222   -1.1736 C   0  0  0  0  0  0  0  0  0  0  0  0
   -0.0364    0.6618   -0.1399 C   0  0  0  0  0  0  0  0  0  0  0  0
   -0.8789   -2.6769    0.6165 C   0  0  0  0  0  0  0  0  0  0  0  0
   -0.2870   -3.7056   -0.3430 C   0  0  0  0  0  0  0  0  0  0  0  0
   -4.4441   -3.9082    5.6913 C   0  0  0  0  0  0  0  0  0  0  0  0
   -5.3781   -3.5003    6.6071 C   0  0  0  0  0  0  0  0  0  0  0  0
   -6.2307   -2.3019    6.4482 C   0  0  0  0  0  0  0  0  0  0  0  0
   -6.3156   -1.5714    5.4841 O   0  0  0  0  0  0  0  0  0  0  0  0
   -6.8446   -2.0821    7.7732 C   0  0  0  0  0  0  0  0  0  0  0  0
   -7.6975   -1.0689    8.1626 C   0  0  0  0  0  0  0  0  0  0  0  0
   -8.1435   -1.0194    9.4788 C   0  0  0  0  0  0  0  0  0  0  0  0
   -9.0657    0.0478    9.9706 C   0  0  0  0  0  0  0  0  0  0  0  0
   -7.6924   -2.0124   10.3506 C   0  0  0  0  0  0  0  0  0  0  0  0
   -8.1121   -1.9662   11.6294 F   0  0  0  0  0  0  0  0  0  0  0  0
   -6.8357   -3.0386    9.9861 C   0  0  0  0  0  0  0  0  0  0  0  0
   -6.4049   -3.0700    8.6696 C   0  0  0  0  0  0  0  0  0  0  0  0
   -5.5175   -3.9859    7.9604 C   0  0  0  0  0  0  0  0  0  0  0  0
   -4.9977   -5.1541    8.4558 C   0  0  0  0  0  0  0  0  0  0  0  0
   -5.1824   -5.6008    9.7798 C   0  0  0  0  0  0  0  0  0  0  0  0
   -5.2922   -6.0068   10.8479 N   0  0  0  0  0  0  0  0  0  0  0  0
   -4.2484   -6.0716    7.6912 C   0  0  0  0  0  0  0  0  0  0  0  0
   -3.6586   -6.8687    7.1114 N   0  0  0  0  0  0  0  0  0  0  0  0
    3.1583    3.4518   -6.6833 H   0  0  0  0  0  0  0  0  0  0  0  0
    7.1086    2.3518   -1.9248 H   0  0  0  0  0  0  0  0  0  0  0  0
    8.0660    5.7248   -5.5808 H   0  0  0  0  0  0  0  0  0  0  0  0
   10.9501    4.9062   -3.9293 H   0  0  0  0  0  0  0  0  0  0  0  0
   10.1358    7.3005   -3.0923 H   0  0  0  0  0  0  0  0  0  0  0  0
   12.4269    6.7462   -1.9309 H   0  0  0  0  0  0  0  0  0  0  0  0
   11.9697    4.9784   -0.0011 H   0  0  0  0  0  0  0  0  0  0  0  0
    9.3973    4.4459    0.0273 H   0  0  0  0  0  0  0  0  0  0  0  0
    9.2290    7.0061   -0.6230 H   0  0  0  0  0  0  0  0  0  0  0  0
    8.1744    6.0832   -1.7178 H   0  0  0  0  0  0  0  0  0  0  0  0
   10.4967    3.1726   -2.0388 H   0  0  0  0  0  0  0  0  0  0  0  0
    2.4763    1.1578   -8.2146 H   0  0  0  0  0  0  0  0  0  0  0  0
    2.2843    2.0344  -10.5110 H   0  0  0  0  0  0  0  0  0  0  0  0
    0.7109    3.8825  -10.9859 H   0  0  0  0  0  0  0  0  0  0  0  0
   -0.6412    4.8363   -9.1708 H   0  0  0  0  0  0  0  0  0  0  0  0
   -1.5053    4.7251   -6.9934 H   0  0  0  0  0  0  0  0  0  0  0  0
   -1.0262    3.4640   -5.8554 H   0  0  0  0  0  0  0  0  0  0  0  0
    1.0402    4.7065   -5.2991 H   0  0  0  0  0  0  0  0  0  0  0  0
    0.6757    5.9118   -6.5304 H   0  0  0  0  0  0  0  0  0  0  0  0
   -0.3549    5.7694   -5.0990 H   0  0  0  0  0  0  0  0  0  0  0  0
   -5.6484   -5.8291    4.9955 H   0  0  0  0  0  0  0  0  0  0  0  0
   -7.1297   -6.7723    5.0933 H   0  0  0  0  0  0  0  0  0  0  0  0
   -5.7141   -5.9732    2.5031 H   0  0  0  0  0  0  0  0  0  0  0  0
   -5.7025   -7.5758    3.2447 H   0  0  0  0  0  0  0  0  0  0  0  0
   -7.2066   -6.9068    2.5990 H   0  0  0  0  0  0  0  0  0  0  0  0
   -9.1750   -5.7738    5.0846 H   0  0  0  0  0  0  0  0  0  0  0  0
  -10.6704   -3.8684    4.6964 H   0  0  0  0  0  0  0  0  0  0  0  0
   -9.7952   -1.8168    3.6191 H   0  0  0  0  0  0  0  0  0  0  0  0
   -7.4058   -1.6692    3.0505 H   0  0  0  0  0  0  0  0  0  0  0  0
    1.3831    0.1133   -1.6570 H   0  0  0  0  0  0  0  0  0  0  0  0
    0.8241   -1.2576   -0.7140 H   0  0  0  0  0  0  0  0  0  0  0  0
   -0.2496    1.6161   -0.6155 H   0  0  0  0  0  0  0  0  0  0  0  0
    0.7030    0.8233    0.6396 H   0  0  0  0  0  0  0  0  0  0  0  0
   -0.9546    0.2959    0.3137 H   0  0  0  0  0  0  0  0  0  0  0  0
   -1.0861   -3.1578    1.5757 H   0  0  0  0  0  0  0  0  0  0  0  0
   -0.1809   -1.8625    0.8134 H   0  0  0  0  0  0  0  0  0  0  0  0
   -0.9648   -4.5498   -0.4479 H   0  0  0  0  0  0  0  0  0  0  0  0
    0.6607   -4.0694    0.0445 H   0  0  0  0  0  0  0  0  0  0  0  0
   -0.1232   -3.2788   -1.3296 H   0  0  0  0  0  0  0  0  0  0  0  0
   -3.5853   -4.4712    6.0411 H   0  0  0  0  0  0  0  0  0  0  0  0
   -8.0107   -0.3266    7.4444 H   0  0  0  0  0  0  0  0  0  0  0  0
   -9.9868   -0.3950   10.3478 H   0  0  0  0  0  0  0  0  0  0  0  0
   -8.6057    0.5899   10.7962 H   0  0  0  0  0  0  0  0  0  0  0  0
   -9.3060    0.7469    9.1750 H   0  0  0  0  0  0  0  0  0  0  0  0
   -6.5285   -3.7608   10.7247 H   0  0  0  0  0  0  0  0  0  0  0  0
  1  2  2  0  0  0  0
  2  3  1  0  0  0  0
  3  4  2  0  0  0  0
  3  5  1  0  0  0  0
  5  6  2  0  0  0  0
  6  7  1  0  0  0  0
  7  8  2  0  0  0  0
  8  9  1  0  0  0  0
  9 10  2  0  0  0  0
 10 11  1  0  0  0  0
 11 12  2  0  0  0  0
 12 13  1  0  0  0  0
 13 14  3  0  0  0  0
 12 15  1  0  0  0  0
 15 16  3  0  0  0  0
  8 17  1  0  0  0  0
 17 18  1  0  0  0  0
 18 19  1  0  0  0  0
 19 20  2  0  0  0  0
 20 21  1  0  0  0  0
 21 22  1  0  0  0  0
 21 23  1  0  0  0  0
  1 24  1  0  0  0  0
 24 25  2  0  0  0  0
 25 26  1  0  0  0  0
 26 27  2  0  0  0  0
 27 28  1  0  0  0  0
 28 29  2  0  0  0  0
 29 30  1  0  0  0  0
 30 31  2  0  0  0  0
 31 32  1  0  0  0  0
 32 33  1  0  0  0  0
 25 34  1  0  0  0  0
 34 35  1  0  0  0  0
 35 36  1  0  0  0  0
 36 37  1  0  0  0  0
 37 38  1  0  0  0  0
 38 39  1  0  0  0  0
 39 40  2  0  0  0  0
 40 41  1  0  0  0  0
 41 42  1  0  0  0  0
 39 43  1  0  0  0  0
 43 44  1  0  0  0  0
 44 45  1  0  0  0  0
 45 46  1  0  0  0  0
 46 47  1  0  0  0  0
 47 48  1  0  0  0  0
 48 49  2  0  0  0  0
 49 50  1  0  0  0  0
 50 51  1  0  0  0  0
 49 52  1  0  0  0  0
 52 53  2  0  0  0  0
 53 54  1  0  0  0  0
 54 55  2  0  0  0  0
 47 56  2  0  0  0  0
 56 57  1  0  0  0  0
 57 58  1  0  0  0  0
 58 59  1  0  0  0  0
 59 60  1  0  0  0  0
 60 61  1  0  0  0  0
 61 62  1  0  0  0  0
 62 63  1  0  0  0  0
 63 64  1  0  0  0  0
 64 65  1  0  0  0  0
 65 66  1  0  0  0  0
 63 67  1  0  0  0  0
 67 68  1  0  0  0  0
 60 69  1  0  0  0  0
 69 70  1  0  0  0  0
 56 71  1  0  0  0  0
 71 72  2  0  0  0  0
 72 73  1  0  0  0  0
 73 74  2  0  0  0  0
 73 75  1  0  0  0  0
 75 76  2  0  0  0  0
 76 77  1  0  0  0  0
 77 78  1  0  0  0  0
 77 79  2  0  0  0  0
 79 80  1  0  0  0  0
 79 81  1  0  0  0  0
 81 82  2  0  0  0  0
 82 83  1  0  0  0  0
 83 84  2  0  0  0  0
 84 85  1  0  0  0  0
 85 86  3  0  0  0  0
 84 87  1  0  0  0  0
 87 88  3  0  0  0  0
 11  2  1  0  0  0  0
 23 17  1  0  0  0  0
 66 24  1  0  0  0  0
 83 72  1  0  0  0  0
 10  5  1  0  0  0  0
 22 18  1  0  0  0  0
 31 26  1  0  0  0  0
 65 34  2  0  0  0  0
 82 75  1  0  0  0  0
 23  7  1  0  0  0  0
 64 36  2  0  0  0  0
 62 37  2  0  0  0  0
 42 38  2  0  0  0  0
 61 43  2  0  0  0  0
 59 44  2  0  0  0  0
 58 46  2  0  0  0  0
 55 48  1  0  0  0  0
  1 89  1  0  0  0  0
  6 90  1  0  0  0  0
  9 91  1  0  0  0  0
 17 92  1  0  0  0  0
 18 93  1  0  0  0  0
 19 94  1  0  0  0  0
 20 95  1  0  0  0  0
 21 96  1  0  0  0  0
 22 97  1  0  0  0  0
 22 98  1  0  0  0  0
 23 99  1  0  0  0  0
 27100  1  0  0  0  0
 28101  1  0  0  0  0
 29102  1  0  0  0  0
 30103  1  0  0  0  0
 32104  1  0  0  0  0
 32105  1  0  0  0  0
 33106  1  0  0  0  0
 33107  1  0  0  0  0
 33108  1  0  0  0  0
 50109  1  0  0  0  0
 50110  1  0  0  0  0
 51111  1  0  0  0  0
 51112  1  0  0  0  0
 51113  1  0  0  0  0
 52114  1  0  0  0  0
 53115  1  0  0  0  0
 54116  1  0  0  0  0
 55117  1  0  0  0  0
 67118  1  0  0  0  0
 67119  1  0  0  0  0
 68120  1  0  0  0  0
 68121  1  0  0  0  0
 68122  1  0  0  0  0
 69123  1  0  0  0  0
 69124  1  0  0  0  0
 70125  1  0  0  0  0
 70126  1  0  0  0  0
 70127  1  0  0  0  0
 71128  1  0  0  0  0
 76129  1  0  0  0  0
 78130  1  0  0  0  0
 78131  1  0  0  0  0
 78132  1  0  0  0  0
 81133  1  0  0  0  0
M  END
