110

C          4.69530       -0.84860        2.43090
C          5.89930       -1.41070        2.75420
C          6.78810       -2.17570        1.85950
O          6.56240       -2.52500        0.71590
C          7.96270       -2.54590        2.66840
C          9.10720       -3.20640        2.22710
C         10.05240       -3.40120        3.20530
C          9.86870       -2.97810        4.52860
C          8.74090       -2.33530        4.97910
C          7.76670       -2.12250        3.99780
C          6.47030       -1.45510        4.09020
C          5.93170       -0.93030        5.23660
C          4.71110       -0.22960        5.33700
N          3.74450        0.36610        5.51370
C          6.52700       -1.01970        6.51310
N          6.93850       -1.06200        7.58420
C         11.21780       -3.49240        4.96530
C         11.23140       -4.81880        5.75360
C         12.65740       -5.30260        5.62050
C         12.83240       -5.70290        4.36760
C         11.52750       -5.49670        3.63260
C         10.53690       -5.77110        4.77140
C         11.42300       -3.96350        3.48960
C          4.12310       -0.53530        1.17940
C          4.62050       -0.19180       -0.07520
C          6.04100       -0.02020       -0.49060
C          6.81480        0.95440        0.39340
C          3.58220        0.11760       -0.96570
Se         3.60810        0.65710       -2.78210
C          1.76060        0.73190       -2.60490
C          0.64940        1.09970       -3.36920
C          0.60150        1.62150       -4.67850
C         -0.65870        2.04430       -5.19820
N         -0.56490        2.55890       -6.41420
S          0.99250        2.51030       -6.86480
N          1.59890        1.83220       -5.52300
C         -1.81250        1.84630       -4.41200
C         -3.14860        2.11460       -4.71970
Se        -4.13100        2.87830       -6.09620
C         -5.62660        2.48910       -5.00410
C         -6.99310        2.71300       -5.16950
C         -7.56250        3.44180       -6.33810
C         -7.73070        4.92520       -6.00090
C         -7.72610        2.29020       -4.06300
S         -6.68880        1.55270       -2.84030
C         -5.28490        1.86220       -3.79490
C         -3.91140        1.65740       -3.63600
N         -3.08480        1.13890       -2.67320
C         -1.77750        1.25110       -3.11770
C         -0.50740        0.94550       -2.55180
N         -0.08450        0.50270       -1.30860
C          1.27990        0.38550       -1.33710
C          2.29160        0.04550       -0.42740
S          2.35690       -0.40280        1.23370
C         -0.77400        0.48550       -0.03800
C         -1.16370        1.89440        0.40360
C         -3.64230        0.33240       -1.61120
C         -3.37410       -1.15300       -1.84290
C         -9.12210        2.33660       -3.91700
C         -9.87040        2.21160       -2.77820
C        -11.28230        1.77680       -2.86090
O        -11.97340        1.70220       -3.85110
C        -11.64440        1.39630       -1.47320
C        -12.80800        0.82240       -1.00720
C        -12.89860        0.52560        0.34750
Br       -14.48110       -0.26660        1.01460
C        -11.83470        0.80600        1.20590
Br       -11.95910        0.37830        3.04420
C        -10.66700        1.39840        0.73750
C        -10.57360        1.69460       -0.61040
C         -9.51710        2.34180       -1.38580
C         -8.54620        3.16380       -0.87120
C         -8.26980        3.29110        0.50300
N         -7.98630        3.39810        1.61050
C         -7.78590        4.03650       -1.67710
N         -7.20290        4.79890       -2.30710
H          4.04290       -0.60310        3.26170
H          9.20940       -3.51000        1.19690
H          8.61870       -2.01490        6.00000
H         11.89820       -2.74750        5.37370
H         10.82770       -4.75410        6.76020
H         13.38370       -5.25290        6.41030
H         13.73440       -6.05420        3.90170
H         11.39420       -6.05090        2.70740
H         10.57230       -6.80600        5.10730
H          9.50880       -5.49820        4.54060
H         12.24070       -3.53300        2.91440
H          6.04200        0.34650       -1.52360
H          6.53350       -0.99730       -0.48050
H          6.89180        0.58530        1.41290
H          7.81980        1.08790        0.00150
H          6.31940        1.92290        0.41480
H         -6.87090        3.33660       -7.17990
H         -8.52710        3.01730       -6.62240
H         -6.76910        5.36060       -5.73980
H         -8.40170        5.04970       -5.15450
H         -8.13720        5.45920       -6.85560
H         -1.63500       -0.18050       -0.07960
H         -0.07870        0.06270        0.69080
H         -0.27030        2.49750        0.54660
H         -1.78730        2.38490       -0.34070
H         -1.70430        1.85220        1.34510
H         -4.72060        0.50730       -1.61660
H         -3.27220        0.66520       -0.64220
H         -3.85450       -1.47810       -2.76300
H         -3.77600       -1.73620       -1.01890
H         -2.30820       -1.35190       -1.93020
H         -9.69440        2.39280       -4.83810
H        -13.62600        0.60920       -1.67770
H         -9.86180        1.60250        1.42510
