
  xtb     02012221473D
 energy: -202.831108591844 gnorm: 0.000306662634 xtb: 6.4.1 (unknown)
120136  0     0  0            999 V2000
   -0.1441    3.7798    6.9061 C   0  0  0  0  0  0  0  0  0  0  0  0
    0.0790    4.8978    6.1537 C   0  0  0  0  0  0  0  0  0  0  0  0
    0.4401    4.8719    4.7142 C   0  0  0  0  0  0  0  0  0  0  0  0
    0.3013    3.9656    3.9183 O   0  0  0  0  0  0  0  0  0  0  0  0
    1.0911    6.1695    4.4538 C   0  0  0  0  0  0  0  0  0  0  0  0
    1.6918    6.5716    3.2634 C   0  0  0  0  0  0  0  0  0  0  0  0
    2.2252    7.8369    3.3059 C   0  0  0  0  0  0  0  0  0  0  0  0
    2.1735    8.6437    4.4506 C   0  0  0  0  0  0  0  0  0  0  0  0
    1.5880    8.2578    5.6334 C   0  0  0  0  0  0  0  0  0  0  0  0
    1.0337    6.9751    5.6091 C   0  0  0  0  0  0  0  0  0  0  0  0
    0.3452    6.2290    6.6568 C   0  0  0  0  0  0  0  0  0  0  0  0
   -0.0675    6.7138    7.8699 C   0  0  0  0  0  0  0  0  0  0  0  0
   -0.8430    5.9670    8.7820 C   0  0  0  0  0  0  0  0  0  0  0  0
   -1.5040    5.4192    9.5444 N   0  0  0  0  0  0  0  0  0  0  0  0
    0.1746    8.0241    8.3281 C   0  0  0  0  0  0  0  0  0  0  0  0
    0.3462    9.0771    8.7525 N   0  0  0  0  0  0  0  0  0  0  0  0
    2.9016    9.7806    3.7779 C   0  0  0  0  0  0  0  0  0  0  0  0
    2.0641   10.9948    3.3062 C   0  0  0  0  0  0  0  0  0  0  0  0
    0.6702   10.4792    3.0471 C   0  0  0  0  0  0  0  0  0  0  0  0
    0.7159    9.7157    1.9636 C   0  0  0  0  0  0  0  0  0  0  0  0
    2.1417    9.7009    1.4705 C   0  0  0  0  0  0  0  0  0  0  0  0
    2.5787   11.1211    1.8632 C   0  0  0  0  0  0  0  0  0  0  0  0
    2.9565    8.8821    2.5022 C   0  0  0  0  0  0  0  0  0  0  0  0
   -0.3917    2.4914    6.3702 C   0  0  0  0  0  0  0  0  0  0  0  0
    0.5271    1.1504    7.0646 S   0  0  0  0  0  0  0  0  0  0  0  0
   -0.0050    0.1510    5.7832 C   0  0  0  0  0  0  0  0  0  0  0  0
    0.2536   -1.1248    5.2670 C   0  0  0  0  0  0  0  0  0  0  0  0
    1.0160   -2.2023    5.7696 C   0  0  0  0  0  0  0  0  0  0  0  0
    1.0775   -3.4185    5.0117 C   0  0  0  0  0  0  0  0  0  0  0  0
    1.7830   -4.3586    5.6193 N   0  0  0  0  0  0  0  0  0  0  0  0
    2.3267   -3.7642    7.0243 S   0  0  0  0  0  0  0  0  0  0  0  0
    1.6839   -2.2825    6.9091 N   0  0  0  0  0  0  0  0  0  0  0  0
    0.4853   -3.4511    3.7288 C   0  0  0  0  0  0  0  0  0  0  0  0
    0.5841   -4.3934    2.6971 C   0  0  0  0  0  0  0  0  0  0  0  0
    1.2988   -5.9409    2.3993 S   0  0  0  0  0  0  0  0  0  0  0  0
    0.7928   -5.8164    0.7232 C   0  0  0  0  0  0  0  0  0  0  0  0
    0.9830   -6.6440   -0.3755 C   0  0  0  0  0  0  0  0  0  0  0  0
    1.7544   -7.9209   -0.2991 C   0  0  0  0  0  0  0  0  0  0  0  0
    3.2269   -7.6859   -0.6477 C   0  0  0  0  0  0  0  0  0  0  0  0
    0.4327   -6.0837   -1.5416 C   0  0  0  0  0  0  0  0  0  0  0  0
   -0.3496   -4.5330   -1.2280 S   0  0  0  0  0  0  0  0  0  0  0  0
    0.0904   -4.6343    0.4350 C   0  0  0  0  0  0  0  0  0  0  0  0
   -0.0317   -3.8311    1.5721 C   0  0  0  0  0  0  0  0  0  0  0  0
   -0.5444   -2.6011    1.8832 N   0  0  0  0  0  0  0  0  0  0  0  0
   -0.2421   -2.3398    3.2075 C   0  0  0  0  0  0  0  0  0  0  0  0
   -0.4726   -1.2191    4.0486 C   0  0  0  0  0  0  0  0  0  0  0  0
   -1.2301   -0.0695    3.8964 N   0  0  0  0  0  0  0  0  0  0  0  0
   -0.9243    0.7850    4.9335 C   0  0  0  0  0  0  0  0  0  0  0  0
   -1.1706    2.1285    5.2788 C   0  0  0  0  0  0  0  0  0  0  0  0
   -2.2502    3.0216    4.7501 C   0  0  0  0  0  0  0  0  0  0  0  0
   -3.5938    2.6673    5.3982 C   0  0  0  0  0  0  0  0  0  0  0  0
   -2.4269    0.0778    3.0973 C   0  0  0  0  0  0  0  0  0  0  0  0
   -3.3854   -1.0944    3.2970 C   0  0  0  0  0  0  0  0  0  0  0  0
   -0.9343   -1.7043    0.8171 C   0  0  0  0  0  0  0  0  0  0  0  0
    0.0454   -0.5436    0.6677 C   0  0  0  0  0  0  0  0  0  0  0  0
    0.5425   -6.6823   -2.8009 C   0  0  0  0  0  0  0  0  0  0  0  0
    0.1282   -6.2554   -4.0388 C   0  0  0  0  0  0  0  0  0  0  0  0
   -0.6064   -5.0228   -4.3301 C   0  0  0  0  0  0  0  0  0  0  0  0
   -0.9957   -4.1810   -3.5361 O   0  0  0  0  0  0  0  0  0  0  0  0
   -0.7979   -4.9860   -5.7888 C   0  0  0  0  0  0  0  0  0  0  0  0
   -1.4401   -3.9923   -6.5242 C   0  0  0  0  0  0  0  0  0  0  0  0
   -1.4509   -4.2200   -7.8792 C   0  0  0  0  0  0  0  0  0  0  0  0
   -0.8662   -5.3531   -8.4594 C   0  0  0  0  0  0  0  0  0  0  0  0
   -0.2380   -6.3450   -7.7436 C   0  0  0  0  0  0  0  0  0  0  0  0
   -0.2150   -6.1338   -6.3616 C   0  0  0  0  0  0  0  0  0  0  0  0
    0.3577   -6.9495   -5.2902 C   0  0  0  0  0  0  0  0  0  0  0  0
    0.9957   -8.1515   -5.4690 C   0  0  0  0  0  0  0  0  0  0  0  0
    1.5558   -8.9504   -4.4510 C   0  0  0  0  0  0  0  0  0  0  0  0
    2.0394   -9.6613   -3.6879 N   0  0  0  0  0  0  0  0  0  0  0  0
    1.1880   -8.7768   -6.7185 C   0  0  0  0  0  0  0  0  0  0  0  0
    1.3834   -9.3485   -7.6953 N   0  0  0  0  0  0  0  0  0  0  0  0
   -1.2317   -4.9237   -9.8586 C   0  0  0  0  0  0  0  0  0  0  0  0
   -0.0969   -4.3177  -10.7117 C   0  0  0  0  0  0  0  0  0  0  0  0
   -0.8266   -3.5699  -11.8043 C   0  0  0  0  0  0  0  0  0  0  0  0
   -1.3860   -2.4988  -11.2561 C   0  0  0  0  0  0  0  0  0  0  0  0
   -1.0432   -2.5044   -9.7837 C   0  0  0  0  0  0  0  0  0  0  0  0
    0.3529   -3.1378   -9.8403 C   0  0  0  0  0  0  0  0  0  0  0  0
   -1.8878   -3.6622   -9.2110 C   0  0  0  0  0  0  0  0  0  0  0  0
    0.0129    3.8311    7.9774 H   0  0  0  0  0  0  0  0  0  0  0  0
    1.7150    5.9172    2.4060 H   0  0  0  0  0  0  0  0  0  0  0  0
    1.5642    8.8820    6.5114 H   0  0  0  0  0  0  0  0  0  0  0  0
    3.8443   10.0781    4.2326 H   0  0  0  0  0  0  0  0  0  0  0  0
    2.1407   11.8710    3.9442 H   0  0  0  0  0  0  0  0  0  0  0  0
   -0.1677   10.6701    3.6917 H   0  0  0  0  0  0  0  0  0  0  0  0
   -0.0767    9.1406    1.5216 H   0  0  0  0  0  0  0  0  0  0  0  0
    2.2894    9.3993    0.4367 H   0  0  0  0  0  0  0  0  0  0  0  0
    3.6547   11.2773    1.7982 H   0  0  0  0  0  0  0  0  0  0  0  0
    2.0600   11.8932    1.2970 H   0  0  0  0  0  0  0  0  0  0  0  0
    3.9352    8.5939    2.1231 H   0  0  0  0  0  0  0  0  0  0  0  0
    1.6874   -8.2985    0.7232 H   0  0  0  0  0  0  0  0  0  0  0  0
    1.3386   -8.6735   -0.9703 H   0  0  0  0  0  0  0  0  0  0  0  0
    3.3266   -7.3082   -1.6627 H   0  0  0  0  0  0  0  0  0  0  0  0
    3.7762   -8.6199   -0.5733 H   0  0  0  0  0  0  0  0  0  0  0  0
    3.6670   -6.9647    0.0372 H   0  0  0  0  0  0  0  0  0  0  0  0
   -2.0227    4.0557    4.9999 H   0  0  0  0  0  0  0  0  0  0  0  0
   -2.3020    2.9530    3.6629 H   0  0  0  0  0  0  0  0  0  0  0  0
   -3.8485    1.6181    5.2650 H   0  0  0  0  0  0  0  0  0  0  0  0
   -4.3867    3.2741    4.9675 H   0  0  0  0  0  0  0  0  0  0  0  0
   -3.5490    2.8675    6.4663 H   0  0  0  0  0  0  0  0  0  0  0  0
   -2.1748    0.2121    2.0442 H   0  0  0  0  0  0  0  0  0  0  0  0
   -2.9190    0.9897    3.4253 H   0  0  0  0  0  0  0  0  0  0  0  0
   -4.2862   -0.9369    2.7091 H   0  0  0  0  0  0  0  0  0  0  0  0
   -3.6658   -1.1714    4.3455 H   0  0  0  0  0  0  0  0  0  0  0  0
   -2.9358   -2.0379    2.9994 H   0  0  0  0  0  0  0  0  0  0  0  0
   -1.9566   -1.3541    0.9651 H   0  0  0  0  0  0  0  0  0  0  0  0
   -0.9302   -2.2960   -0.1014 H   0  0  0  0  0  0  0  0  0  0  0  0
    1.0360   -0.9248    0.4311 H   0  0  0  0  0  0  0  0  0  0  0  0
    0.1170    0.0426    1.5806 H   0  0  0  0  0  0  0  0  0  0  0  0
   -0.2760    0.1055   -0.1422 H   0  0  0  0  0  0  0  0  0  0  0  0
    1.0637   -7.6294   -2.7777 H   0  0  0  0  0  0  0  0  0  0  0  0
   -1.8769   -3.1359   -6.0347 H   0  0  0  0  0  0  0  0  0  0  0  0
    0.2001   -7.2124   -8.2077 H   0  0  0  0  0  0  0  0  0  0  0  0
   -1.8629   -5.6116  -10.4177 H   0  0  0  0  0  0  0  0  0  0  0  0
    0.6636   -5.0267  -11.0272 H   0  0  0  0  0  0  0  0  0  0  0  0
   -0.9049   -3.9153  -12.8184 H   0  0  0  0  0  0  0  0  0  0  0  0
   -2.0250   -1.7709  -11.7206 H   0  0  0  0  0  0  0  0  0  0  0  0
   -1.1448   -1.5608   -9.2542 H   0  0  0  0  0  0  0  0  0  0  0  0
    0.7481   -3.4285   -8.8687 H   0  0  0  0  0  0  0  0  0  0  0  0
    1.0734   -2.5008  -10.3506 H   0  0  0  0  0  0  0  0  0  0  0  0
   -2.9586   -3.5111   -9.3351 H   0  0  0  0  0  0  0  0  0  0  0  0
  1  2  2  0  0  0  0
  2  3  1  0  0  0  0
  3  4  2  0  0  0  0
  3  5  1  0  0  0  0
  5  6  2  0  0  0  0
  6  7  1  0  0  0  0
  7  8  2  0  0  0  0
  8  9  1  0  0  0  0
  9 10  2  0  0  0  0
 10 11  1  0  0  0  0
 11 12  2  0  0  0  0
 12 13  1  0  0  0  0
 13 14  3  0  0  0  0
 12 15  1  0  0  0  0
 15 16  3  0  0  0  0
  8 17  1  0  0  0  0
 17 18  1  0  0  0  0
 18 19  1  0  0  0  0
 19 20  2  0  0  0  0
 20 21  1  0  0  0  0
 21 22  1  0  0  0  0
 21 23  1  0  0  0  0
  1 24  1  0  0  0  0
 24 25  1  0  0  0  0
 25 26  1  0  0  0  0
 26 27  1  0  0  0  0
 27 28  1  0  0  0  0
 28 29  1  0  0  0  0
 29 30  2  0  0  0  0
 30 31  1  0  0  0  0
 31 32  1  0  0  0  0
 29 33  1  0  0  0  0
 33 34  1  0  0  0  0
 34 35  1  0  0  0  0
 35 36  1  0  0  0  0
 36 37  1  0  0  0  0
 37 38  1  0  0  0  0
 38 39  1  0  0  0  0
 37 40  2  0  0  0  0
 40 41  1  0  0  0  0
 41 42  1  0  0  0  0
 42 43  1  0  0  0  0
 43 44  1  0  0  0  0
 44 45  1  0  0  0  0
 45 46  1  0  0  0  0
 46 47  1  0  0  0  0
 47 48  1  0  0  0  0
 48 49  1  0  0  0  0
 49 50  1  0  0  0  0
 50 51  1  0  0  0  0
 47 52  1  0  0  0  0
 52 53  1  0  0  0  0
 44 54  1  0  0  0  0
 54 55  1  0  0  0  0
 40 56  1  0  0  0  0
 56 57  2  0  0  0  0
 57 58  1  0  0  0  0
 58 59  2  0  0  0  0
 58 60  1  0  0  0  0
 60 61  2  0  0  0  0
 61 62  1  0  0  0  0
 62 63  2  0  0  0  0
 63 64  1  0  0  0  0
 64 65  2  0  0  0  0
 65 66  1  0  0  0  0
 66 67  2  0  0  0  0
 67 68  1  0  0  0  0
 68 69  3  0  0  0  0
 67 70  1  0  0  0  0
 70 71  3  0  0  0  0
 63 72  1  0  0  0  0
 72 73  1  0  0  0  0
 73 74  1  0  0  0  0
 74 75  2  0  0  0  0
 75 76  1  0  0  0  0
 76 77  1  0  0  0  0
 76 78  1  0  0  0  0
 11  2  1  0  0  0  0
 23 17  1  0  0  0  0
 49 24  2  0  0  0  0
 66 57  1  0  0  0  0
 78 72  1  0  0  0  0
 10  5  1  0  0  0  0
 22 18  1  0  0  0  0
 48 26  2  0  0  0  0
 65 60  1  0  0  0  0
 77 73  1  0  0  0  0
 23  7  1  0  0  0  0
 46 27  2  0  0  0  0
 78 62  1  0  0  0  0
 32 28  2  0  0  0  0
 45 33  2  0  0  0  0
 43 34  2  0  0  0  0
 42 36  2  0  0  0  0
  1 79  1  0  0  0  0
  6 80  1  0  0  0  0
  9 81  1  0  0  0  0
 17 82  1  0  0  0  0
 18 83  1  0  0  0  0
 19 84  1  0  0  0  0
 20 85  1  0  0  0  0
 21 86  1  0  0  0  0
 22 87  1  0  0  0  0
 22 88  1  0  0  0  0
 23 89  1  0  0  0  0
 38 90  1  0  0  0  0
 38 91  1  0  0  0  0
 39 92  1  0  0  0  0
 39 93  1  0  0  0  0
 39 94  1  0  0  0  0
 50 95  1  0  0  0  0
 50 96  1  0  0  0  0
 51 97  1  0  0  0  0
 51 98  1  0  0  0  0
 51 99  1  0  0  0  0
 52100  1  0  0  0  0
 52101  1  0  0  0  0
 53102  1  0  0  0  0
 53103  1  0  0  0  0
 53104  1  0  0  0  0
 54105  1  0  0  0  0
 54106  1  0  0  0  0
 55107  1  0  0  0  0
 55108  1  0  0  0  0
 55109  1  0  0  0  0
 56110  1  0  0  0  0
 61111  1  0  0  0  0
 64112  1  0  0  0  0
 72113  1  0  0  0  0
 73114  1  0  0  0  0
 74115  1  0  0  0  0
 75116  1  0  0  0  0
 76117  1  0  0  0  0
 77118  1  0  0  0  0
 77119  1  0  0  0  0
 78120  1  0  0  0  0
M  END
