79

C         -2.09790        0.06440        1.12770
C         -2.68500       -1.07420        1.60430
C         -2.09690       -2.42290        1.58910
O         -1.02370       -2.75430        1.12070
C         -3.06590       -3.30230        2.26330
C         -2.92970       -4.66700        2.50670
C         -3.99250       -5.22430        3.17620
C         -5.10670       -4.47660        3.58140
C         -5.25370       -3.13040        3.34650
C         -4.18750       -2.54410        2.65810
C         -3.98890       -1.15880        2.23770
C         -4.89380       -0.14240        2.40650
C         -6.15920       -0.28900        3.01400
N         -7.20350       -0.32530        3.48980
C         -4.72040        1.19650        1.99830
N         -4.66500        2.30530        1.70090
C         -5.78270       -5.67190        4.20410
C         -6.94770       -6.32970        3.42420
C         -6.70780       -6.03200        1.96480
C         -5.65570       -6.73940        1.57510
C         -5.16520       -7.52860        2.76370
C         -6.49900       -7.79880        3.47840
C         -4.54420       -6.50600        3.74770
C         -0.84830        0.26920        0.51360
S          0.35770       -0.96250        0.14350
C          1.37500        0.24930       -0.51860
C          2.60830        0.38160       -1.17560
C          3.51850       -0.58710       -1.65350
C          4.63570       -0.15920       -2.44540
N          5.36310       -1.17380       -2.88600
S          4.70330       -2.54880       -2.34560
N          3.46530       -1.90430       -1.53170
C          4.86780        1.22480       -2.60570
C          5.93150        1.92340       -3.19120
C          5.73160        3.28900       -2.92160
N          4.56060        3.45990       -2.22320
C          4.40510        4.63560       -1.39010
C          4.82560        4.34670        0.04910
C          4.00380        2.20220       -2.03190
C          2.79550        1.77170       -1.43330
N          1.67560        2.45570       -0.99600
C          0.81690        1.53830       -0.44160
C         -0.44560        1.55010        0.12740
C          1.18040        3.75640       -1.38790
C          1.07530        4.71730       -0.20470
C          6.73900        4.11020       -3.41350
C          7.71040        3.36910       -4.07280
S          7.36640        1.63240       -4.07430
C          8.89000        3.82930       -4.71620
C          9.34690        5.13100       -4.78510
C         10.54160        5.43760       -5.47110
N         11.50890        5.71280       -6.02170
C          8.71350        6.24270       -4.20530
N          8.22280        7.17140       -3.74020
C          9.69180        2.84810       -5.35880
N         10.33650        2.05750       -5.87860
H         -2.66370        0.98200        1.23540
H         -2.04990       -5.20140        2.18410
H         -6.11610       -2.57170        3.66930
H         -5.98480       -5.60140        5.27090
H         -7.93690       -6.09290        3.80630
H         -7.27550       -5.31690        1.39880
H         -5.16800       -6.73330        0.61790
H         -4.53260       -8.38450        2.54380
H         -6.37920       -8.17890        4.49200
H         -7.15350       -8.46000        2.91260
H         -3.94000       -6.98470        4.51590
H          3.38400        5.00670       -1.41940
H          5.04890        5.40860       -1.81330
H          4.20410        3.56570        0.48240
H          4.73240        5.24690        0.65050
H          5.86150        4.01640        0.08030
H         -1.07090        2.41240        0.27290
H          1.81500        4.15200       -2.18170
H          0.18020        3.61430       -1.81410
H          0.74800        5.69350       -0.55230
H          2.02650        4.82640        0.30820
H          0.34970        4.34790        0.51420
H          6.77810        5.17900       -3.31930
