
  xtb     02102223373D
 energy: -185.553017493095 gnorm: 0.000438049523 xtb: 6.4.1 (unknown)
101114  0     0  0            999 V2000
    3.2381   -4.0819   -3.9742 C   0  0  0  0  0  0  0  0  0  0  0  0
    3.5187   -3.1483   -4.9355 C   0  0  0  0  0  0  0  0  0  0  0  0
    3.4258   -1.6749   -4.8078 C   0  0  0  0  0  0  0  0  0  0  0  0
    2.8495   -1.0135   -3.9652 O   0  0  0  0  0  0  0  0  0  0  0  0
    4.2378   -1.1276   -5.9086 C   0  0  0  0  0  0  0  0  0  0  0  0
    4.5178    0.2172   -6.1403 C   0  0  0  0  0  0  0  0  0  0  0  0
    5.3039    0.4418   -7.2440 C   0  0  0  0  0  0  0  0  0  0  0  0
    5.7839   -0.5955   -8.0554 C   0  0  0  0  0  0  0  0  0  0  0  0
    5.5180   -1.9263   -7.8355 C   0  0  0  0  0  0  0  0  0  0  0  0
    4.7130   -2.1760   -6.7203 C   0  0  0  0  0  0  0  0  0  0  0  0
    4.2201   -3.4364   -6.1746 C   0  0  0  0  0  0  0  0  0  0  0  0
    4.3208   -4.6637   -6.7752 C   0  0  0  0  0  0  0  0  0  0  0  0
    3.7306   -5.8497   -6.2878 C   0  0  0  0  0  0  0  0  0  0  0  0
    3.2577   -6.8474   -5.9724 N   0  0  0  0  0  0  0  0  0  0  0  0
    4.9825   -4.8984   -7.9983 C   0  0  0  0  0  0  0  0  0  0  0  0
    5.5075   -5.1553   -8.9864 N   0  0  0  0  0  0  0  0  0  0  0  0
    6.5016    0.3551   -8.9806 C   0  0  0  0  0  0  0  0  0  0  0  0
    5.8467    0.6588  -10.3508 C   0  0  0  0  0  0  0  0  0  0  0  0
    4.3632    0.4511  -10.1724 C   0  0  0  0  0  0  0  0  0  0  0  0
    3.9065    1.4319   -9.4053 C   0  0  0  0  0  0  0  0  0  0  0  0
    5.0732    2.3205   -9.0506 C   0  0  0  0  0  0  0  0  0  0  0  0
    5.9092    2.1946  -10.3341 C   0  0  0  0  0  0  0  0  0  0  0  0
    5.9649    1.5100   -8.0774 C   0  0  0  0  0  0  0  0  0  0  0  0
    2.5444   -3.9041   -2.7598 C   0  0  0  0  0  0  0  0  0  0  0  0
    2.8874   -5.1223   -1.3118 Se  0  0  0  0  0  2  0  0  0  0  0  0
    1.7696   -4.0353   -0.3257 C   0  0  0  0  0  0  0  0  0  0  0  0
    1.2608   -3.8913    0.9694 C   0  0  0  0  0  0  0  0  0  0  0  0
    1.4234   -4.7235    2.0960 C   0  0  0  0  0  0  0  0  0  0  0  0
    0.7461   -4.3886    3.3096 C   0  0  0  0  0  0  0  0  0  0  0  0
    0.9615   -5.2748    4.2693 N   0  0  0  0  0  0  0  0  0  0  0  0
    1.9364   -6.4306    3.6902 S   0  0  0  0  0  0  0  0  0  0  0  0
    2.1221   -5.8433    2.1911 N   0  0  0  0  0  0  0  0  0  0  0  0
    0.0044   -3.1864    3.3580 C   0  0  0  0  0  0  0  0  0  0  0  0
   -0.6357   -2.5637    4.4341 C   0  0  0  0  0  0  0  0  0  0  0  0
   -0.9396   -2.8327    6.1159 S   0  0  0  0  0  0  0  0  0  0  0  0
   -1.7022   -1.2532    6.1981 C   0  0  0  0  0  0  0  0  0  0  0  0
   -2.2675   -0.5407    7.2432 C   0  0  0  0  0  0  0  0  0  0  0  0
   -2.3868   -1.0859    8.6281 C   0  0  0  0  0  0  0  0  0  0  0  0
   -3.7709   -1.7011    8.8539 C   0  0  0  0  0  0  0  0  0  0  0  0
   -2.7432    0.7154    6.8116 C   0  0  0  0  0  0  0  0  0  0  0  0
   -2.4670    0.9720    5.0859 S   0  0  0  0  0  0  0  0  0  0  0  0
   -1.7198   -0.5734    4.9646 C   0  0  0  0  0  0  0  0  0  0  0  0
   -1.1143   -1.3340    3.9642 C   0  0  0  0  0  0  0  0  0  0  0  0
   -0.7999   -1.1853    2.6422 N   0  0  0  0  0  0  0  0  0  0  0  0
   -0.1251   -2.3163    2.2275 C   0  0  0  0  0  0  0  0  0  0  0  0
    0.4453   -2.7200    0.9872 C   0  0  0  0  0  0  0  0  0  0  0  0
    0.4218   -2.2118   -0.2967 N   0  0  0  0  0  0  0  0  0  0  0  0
    1.2328   -2.9835   -1.0855 C   0  0  0  0  0  0  0  0  0  0  0  0
    1.6302   -2.9238   -2.4194 C   0  0  0  0  0  0  0  0  0  0  0  0
   -0.3254   -1.1440   -0.9204 C   0  0  0  0  0  0  0  0  0  0  0  0
    0.5533    0.0767   -1.1982 C   0  0  0  0  0  0  0  0  0  0  0  0
   -1.0941    0.0777    2.0053 C   0  0  0  0  0  0  0  0  0  0  0  0
   -2.5580    0.1676    1.5750 C   0  0  0  0  0  0  0  0  0  0  0  0
   -3.3354    1.6394    7.6698 C   0  0  0  0  0  0  0  0  0  0  0  0
   -3.8532    2.8951    7.4306 C   0  0  0  0  0  0  0  0  0  0  0  0
   -3.9321    3.5623    6.1341 C   0  0  0  0  0  0  0  0  0  0  0  0
   -3.5498    3.1557    5.0501 O   0  0  0  0  0  0  0  0  0  0  0  0
   -4.5830    4.8647    6.3856 C   0  0  0  0  0  0  0  0  0  0  0  0
   -4.8907    5.8607    5.4841 C   0  0  0  0  0  0  0  0  0  0  0  0
   -5.5069    7.0100    5.9624 C   0  0  0  0  0  0  0  0  0  0  0  0
   -5.9432    8.3962    4.7524 Br  0  0  0  0  0  0  0  0  0  0  0  0
   -5.8000    7.1382    7.3202 C   0  0  0  0  0  0  0  0  0  0  0  0
   -6.6392    8.7064    7.9645 Br  0  0  0  0  0  0  0  0  0  0  0  0
   -5.4871    6.1299    8.2265 C   0  0  0  0  0  0  0  0  0  0  0  0
   -4.8728    4.9821    7.7557 C   0  0  0  0  0  0  0  0  0  0  0  0
   -4.4216    3.7666    8.4364 C   0  0  0  0  0  0  0  0  0  0  0  0
   -4.5236    3.5410    9.7864 C   0  0  0  0  0  0  0  0  0  0  0  0
   -4.0824    2.3869   10.4658 C   0  0  0  0  0  0  0  0  0  0  0  0
   -3.7465    1.4842   11.0927 N   0  0  0  0  0  0  0  0  0  0  0  0
   -5.0916    4.4564   10.6973 C   0  0  0  0  0  0  0  0  0  0  0  0
   -5.5413    5.1583   11.4864 N   0  0  0  0  0  0  0  0  0  0  0  0
    3.6579   -5.0734   -4.1126 H   0  0  0  0  0  0  0  0  0  0  0  0
    4.1318    0.9842   -5.4871 H   0  0  0  0  0  0  0  0  0  0  0  0
    5.9025   -2.7138   -8.4620 H   0  0  0  0  0  0  0  0  0  0  0  0
    7.5793    0.2249   -9.0554 H   0  0  0  0  0  0  0  0  0  0  0  0
    6.3049    0.1475  -11.1929 H   0  0  0  0  0  0  0  0  0  0  0  0
    3.8260   -0.3931  -10.5631 H   0  0  0  0  0  0  0  0  0  0  0  0
    2.9107    1.5711   -9.0266 H   0  0  0  0  0  0  0  0  0  0  0  0
    4.8273    3.3226   -8.7091 H   0  0  0  0  0  0  0  0  0  0  0  0
    6.9202    2.5869  -10.2333 H   0  0  0  0  0  0  0  0  0  0  0  0
    5.4241    2.6453  -11.1984 H   0  0  0  0  0  0  0  0  0  0  0  0
    6.6920    2.1353   -7.5627 H   0  0  0  0  0  0  0  0  0  0  0  0
   -2.2105   -0.3084    9.3730 H   0  0  0  0  0  0  0  0  0  0  0  0
   -1.6281   -1.8604    8.7558 H   0  0  0  0  0  0  0  0  0  0  0  0
   -3.9448   -2.5102    8.1485 H   0  0  0  0  0  0  0  0  0  0  0  0
   -3.8360   -2.0969    9.8631 H   0  0  0  0  0  0  0  0  0  0  0  0
   -4.5510   -0.9543    8.7257 H   0  0  0  0  0  0  0  0  0  0  0  0
    1.2739   -2.2059   -3.1327 H   0  0  0  0  0  0  0  0  0  0  0  0
   -0.7030   -1.5304   -1.8731 H   0  0  0  0  0  0  0  0  0  0  0  0
   -1.1882   -0.8945   -0.3097 H   0  0  0  0  0  0  0  0  0  0  0  0
    1.3155   -0.1633   -1.9350 H   0  0  0  0  0  0  0  0  0  0  0  0
    1.0602    0.4150   -0.2965 H   0  0  0  0  0  0  0  0  0  0  0  0
   -0.0572    0.8892   -1.5832 H   0  0  0  0  0  0  0  0  0  0  0  0
   -0.9041    0.8631    2.7442 H   0  0  0  0  0  0  0  0  0  0  0  0
   -0.4129    0.2366    1.1748 H   0  0  0  0  0  0  0  0  0  0  0  0
   -3.2020    0.1887    2.4500 H   0  0  0  0  0  0  0  0  0  0  0  0
   -2.8489   -0.6835    0.9621 H   0  0  0  0  0  0  0  0  0  0  0  0
   -2.7199    1.0821    1.0119 H   0  0  0  0  0  0  0  0  0  0  0  0
   -3.3887    1.2990    8.6947 H   0  0  0  0  0  0  0  0  0  0  0  0
   -4.6583    5.7486    4.4365 H   0  0  0  0  0  0  0  0  0  0  0  0
   -5.7300    6.2678    9.2674 H   0  0  0  0  0  0  0  0  0  0  0  0
  1  2  2  0  0  0  0
  2  3  1  0  0  0  0
  3  4  2  0  0  0  0
  3  5  1  0  0  0  0
  5  6  2  0  0  0  0
  6  7  1  0  0  0  0
  7  8  2  0  0  0  0
  8  9  1  0  0  0  0
  9 10  2  0  0  0  0
 10 11  1  0  0  0  0
 11 12  2  0  0  0  0
 12 13  1  0  0  0  0
 13 14  3  0  0  0  0
 12 15  1  0  0  0  0
 15 16  3  0  0  0  0
  8 17  1  0  0  0  0
 17 18  1  0  0  0  0
 18 19  1  0  0  0  0
 19 20  2  0  0  0  0
 20 21  1  0  0  0  0
 21 22  1  0  0  0  0
 21 23  1  0  0  0  0
  1 24  1  0  0  0  0
 24 25  1  0  0  0  0
 25 26  1  0  0  0  0
 26 27  1  0  0  0  0
 27 28  1  0  0  0  0
 28 29  1  0  0  0  0
 29 30  2  0  0  0  0
 30 31  1  0  0  0  0
 31 32  1  0  0  0  0
 29 33  1  0  0  0  0
 33 34  1  0  0  0  0
 34 35  1  0  0  0  0
 35 36  1  0  0  0  0
 36 37  1  0  0  0  0
 37 38  1  0  0  0  0
 38 39  1  0  0  0  0
 37 40  2  0  0  0  0
 40 41  1  0  0  0  0
 41 42  1  0  0  0  0
 42 43  1  0  0  0  0
 43 44  1  0  0  0  0
 44 45  1  0  0  0  0
 45 46  1  0  0  0  0
 46 47  1  0  0  0  0
 47 48  1  0  0  0  0
 48 49  1  0  0  0  0
 47 50  1  0  0  0  0
 50 51  1  0  0  0  0
 44 52  1  0  0  0  0
 52 53  1  0  0  0  0
 40 54  1  0  0  0  0
 54 55  2  0  0  0  0
 55 56  1  0  0  0  0
 56 57  2  0  0  0  0
 56 58  1  0  0  0  0
 58 59  2  0  0  0  0
 59 60  1  0  0  0  0
 60 61  1  0  0  0  0
 60 62  2  0  0  0  0
 62 63  1  0  0  0  0
 62 64  1  0  0  0  0
 64 65  2  0  0  0  0
 65 66  1  0  0  0  0
 66 67  2  0  0  0  0
 67 68  1  0  0  0  0
 68 69  3  0  0  0  0
 67 70  1  0  0  0  0
 70 71  3  0  0  0  0
 11  2  1  0  0  0  0
 23 17  1  0  0  0  0
 49 24  2  0  0  0  0
 66 55  1  0  0  0  0
 10  5  1  0  0  0  0
 22 18  1  0  0  0  0
 48 26  2  0  0  0  0
 65 58  1  0  0  0  0
 23  7  1  0  0  0  0
 46 27  2  0  0  0  0
 32 28  2  0  0  0  0
 45 33  2  0  0  0  0
 43 34  2  0  0  0  0
 42 36  2  0  0  0  0
  1 72  1  0  0  0  0
  6 73  1  0  0  0  0
  9 74  1  0  0  0  0
 17 75  1  0  0  0  0
 18 76  1  0  0  0  0
 19 77  1  0  0  0  0
 20 78  1  0  0  0  0
 21 79  1  0  0  0  0
 22 80  1  0  0  0  0
 22 81  1  0  0  0  0
 23 82  1  0  0  0  0
 38 83  1  0  0  0  0
 38 84  1  0  0  0  0
 39 85  1  0  0  0  0
 39 86  1  0  0  0  0
 39 87  1  0  0  0  0
 49 88  1  0  0  0  0
 50 89  1  0  0  0  0
 50 90  1  0  0  0  0
 51 91  1  0  0  0  0
 51 92  1  0  0  0  0
 51 93  1  0  0  0  0
 52 94  1  0  0  0  0
 52 95  1  0  0  0  0
 53 96  1  0  0  0  0
 53 97  1  0  0  0  0
 53 98  1  0  0  0  0
 54 99  1  0  0  0  0
 59100  1  0  0  0  0
 64101  1  0  0  0  0
M  END
