
  xtb     02022201343D
 energy: -227.914324123783 gnorm: 0.000496594378 xtb: 6.4.1 (unknown)
133147  0     0  0            999 V2000
    2.6622   -6.1828   -1.8537 C   0  0  0  0  0  0  0  0  0  0  0  0
    3.0578   -6.2170   -3.1569 C   0  0  0  0  0  0  0  0  0  0  0  0
    3.0120   -7.4991   -3.9062 C   0  0  0  0  0  0  0  0  0  0  0  0
    2.9052   -8.6107   -3.4373 O   0  0  0  0  0  0  0  0  0  0  0  0
    3.0547   -7.1161   -5.3320 C   0  0  0  0  0  0  0  0  0  0  0  0
    2.9071   -7.9534   -6.4361 C   0  0  0  0  0  0  0  0  0  0  0  0
    2.9646   -7.3019   -7.6448 C   0  0  0  0  0  0  0  0  0  0  0  0
    3.1560   -5.9177   -7.7545 C   0  0  0  0  0  0  0  0  0  0  0  0
    3.3136   -5.0800   -6.6762 C   0  0  0  0  0  0  0  0  0  0  0  0
    3.2566   -5.7236   -5.4374 C   0  0  0  0  0  0  0  0  0  0  0  0
    3.4204   -5.1777   -4.0929 C   0  0  0  0  0  0  0  0  0  0  0  0
    4.0632   -4.0068   -3.7806 C   0  0  0  0  0  0  0  0  0  0  0  0
    4.4417   -3.0302   -4.7203 C   0  0  0  0  0  0  0  0  0  0  0  0
    4.7400   -2.1812   -5.4340 N   0  0  0  0  0  0  0  0  0  0  0  0
    4.4866   -3.6934   -2.4722 C   0  0  0  0  0  0  0  0  0  0  0  0
    4.8914   -3.4311   -1.4302 N   0  0  0  0  0  0  0  0  0  0  0  0
    3.0928   -5.9470   -9.2613 C   0  0  0  0  0  0  0  0  0  0  0  0
    1.7739   -5.4709   -9.9062 C   0  0  0  0  0  0  0  0  0  0  0  0
    1.8221   -6.0525  -11.3007 C   0  0  0  0  0  0  0  0  0  0  0  0
    1.6426   -7.3631  -11.1975 C   0  0  0  0  0  0  0  0  0  0  0  0
    1.4696   -7.6893   -9.7315 C   0  0  0  0  0  0  0  0  0  0  0  0
    0.7527   -6.4170   -9.2613 C   0  0  0  0  0  0  0  0  0  0  0  0
    2.8813   -7.4902   -9.1396 C   0  0  0  0  0  0  0  0  0  0  0  0
    2.1946   -5.0912   -1.0919 C   0  0  0  0  0  0  0  0  0  0  0  0
    2.0048   -5.0617    0.2850 C   0  0  0  0  0  0  0  0  0  0  0  0
    2.3500   -6.1652    1.2297 C   0  0  0  0  0  0  0  0  0  0  0  0
    1.1274   -7.0489    1.4914 C   0  0  0  0  0  0  0  0  0  0  0  0
    1.4318   -3.8554    0.6985 C   0  0  0  0  0  0  0  0  0  0  0  0
    0.9725   -3.2419    2.2722 S   0  0  0  0  0  0  0  0  0  0  0  0
    0.4508   -1.7788    1.5181 C   0  0  0  0  0  0  0  0  0  0  0  0
   -0.1303   -0.5525    1.8682 C   0  0  0  0  0  0  0  0  0  0  0  0
   -0.5749   -0.1188    3.1400 C   0  0  0  0  0  0  0  0  0  0  0  0
   -0.3535   -0.8352    4.2385 N   0  0  0  0  0  0  0  0  0  0  0  0
   -0.8480   -0.4033    5.3878 C   0  0  0  0  0  0  0  0  0  0  0  0
   -0.4056   -1.1298    6.5522 C   0  0  0  0  0  0  0  0  0  0  0  0
    0.0955   -2.7782    6.3332 S   0  0  0  0  0  0  0  0  0  0  0  0
    0.5584   -2.9198    7.9920 C   0  0  0  0  0  0  0  0  0  0  0  0
    1.1317   -4.1747    8.5538 C   0  0  0  0  0  0  0  0  0  0  0  0
    2.4880   -4.4974    7.9252 C   0  0  0  0  0  0  0  0  0  0  0  0
    0.3486   -1.7307    8.6314 C   0  0  0  0  0  0  0  0  0  0  0  0
   -0.1934   -0.7069    7.8364 C   0  0  0  0  0  0  0  0  0  0  0  0
    0.6322   -1.5499    9.9354 F   0  0  0  0  0  0  0  0  0  0  0  0
   -1.7203    0.7260    5.4175 C   0  0  0  0  0  0  0  0  0  0  0  0
   -2.5656    1.0928    6.5317 C   0  0  0  0  0  0  0  0  0  0  0  0
   -3.0790    2.3405    6.7613 C   0  0  0  0  0  0  0  0  0  0  0  0
   -3.9559    2.3504    7.8597 C   0  0  0  0  0  0  0  0  0  0  0  0
   -4.5622    3.4730    8.2876 F   0  0  0  0  0  0  0  0  0  0  0  0
   -4.1468    1.1418    8.4658 C   0  0  0  0  0  0  0  0  0  0  0  0
   -5.0266    0.8138    9.6217 C   0  0  0  0  0  0  0  0  0  0  0  0
   -6.2051   -0.0634    9.1961 C   0  0  0  0  0  0  0  0  0  0  0  0
   -3.2054   -0.0658    7.6601 S   0  0  0  0  0  0  0  0  0  0  0  0
   -1.8480    1.4952    4.3474 N   0  0  0  0  0  0  0  0  0  0  0  0
   -1.2453    1.1249    3.2202 C   0  0  0  0  0  0  0  0  0  0  0  0
   -1.2957    1.9258    2.0534 C   0  0  0  0  0  0  0  0  0  0  0  0
   -1.7952    3.2258    1.9049 C   0  0  0  0  0  0  0  0  0  0  0  0
   -2.5502    4.4521    2.8604 S   0  0  0  0  0  0  0  0  0  0  0  0
   -2.5439    5.5026    1.4560 C   0  0  0  0  0  0  0  0  0  0  0  0
   -2.9930    6.8041    1.2582 C   0  0  0  0  0  0  0  0  0  0  0  0
   -3.5852    7.6234    2.3589 C   0  0  0  0  0  0  0  0  0  0  0  0
   -2.5174    8.4998    3.0190 C   0  0  0  0  0  0  0  0  0  0  0  0
   -2.7581    7.2332   -0.0555 C   0  0  0  0  0  0  0  0  0  0  0  0
   -1.9885    5.9861   -1.0339 S   0  0  0  0  0  0  0  0  0  0  0  0
   -1.9798    4.9129    0.3143 C   0  0  0  0  0  0  0  0  0  0  0  0
   -1.5589    3.6051    0.5815 C   0  0  0  0  0  0  0  0  0  0  0  0
   -0.9416    2.5859   -0.0909 N   0  0  0  0  0  0  0  0  0  0  0  0
   -0.5310    2.8083   -1.4571 C   0  0  0  0  0  0  0  0  0  0  0  0
   -1.6878    2.6021   -2.4349 C   0  0  0  0  0  0  0  0  0  0  0  0
   -0.7840    1.5263    0.7809 C   0  0  0  0  0  0  0  0  0  0  0  0
   -0.2538    0.2132    0.6695 C   0  0  0  0  0  0  0  0  0  0  0  0
    0.1975   -0.5659   -0.3792 N   0  0  0  0  0  0  0  0  0  0  0  0
    0.6283   -1.7595    0.1318 C   0  0  0  0  0  0  0  0  0  0  0  0
    1.1726   -2.9541   -0.3431 C   0  0  0  0  0  0  0  0  0  0  0  0
    1.6219   -3.6136   -1.8686 S   0  0  0  0  0  0  0  0  0  0  0  0
    0.2796   -0.3603   -1.8058 C   0  0  0  0  0  0  0  0  0  0  0  0
    1.6914    0.0398   -2.2354 C   0  0  0  0  0  0  0  0  0  0  0  0
   -3.0988    8.5146   -0.5189 C   0  0  0  0  0  0  0  0  0  0  0  0
   -2.9174    9.1311   -1.7295 C   0  0  0  0  0  0  0  0  0  0  0  0
   -3.3790   10.4588   -1.8549 C   0  0  0  0  0  0  0  0  0  0  0  0
   -3.7677   11.5361   -1.9252 N   0  0  0  0  0  0  0  0  0  0  0  0
   -2.2901    8.5546   -2.9187 C   0  0  0  0  0  0  0  0  0  0  0  0
   -1.8868    7.4121   -3.0186 O   0  0  0  0  0  0  0  0  0  0  0  0
   -2.2036    9.4514   -3.9049 O   0  0  0  0  0  0  0  0  0  0  0  0
   -1.6340    9.0155   -5.1371 C   0  0  0  0  0  0  0  0  0  0  0  0
   -2.6579    8.2866   -5.9957 C   0  0  0  0  0  0  0  0  0  0  0  0
    2.6035   -7.1533   -1.3711 H   0  0  0  0  0  0  0  0  0  0  0  0
    2.7664   -9.0156   -6.3118 H   0  0  0  0  0  0  0  0  0  0  0  0
    3.4592   -4.0159   -6.7674 H   0  0  0  0  0  0  0  0  0  0  0  0
    3.9768   -5.5812   -9.7799 H   0  0  0  0  0  0  0  0  0  0  0  0
    1.5883   -4.4032   -9.8275 H   0  0  0  0  0  0  0  0  0  0  0  0
    2.0314   -5.4775  -12.1835 H   0  0  0  0  0  0  0  0  0  0  0  0
    1.6716   -8.1016  -11.9770 H   0  0  0  0  0  0  0  0  0  0  0  0
    1.0058   -8.6428   -9.4939 H   0  0  0  0  0  0  0  0  0  0  0  0
    0.6812   -6.3222   -8.1793 H   0  0  0  0  0  0  0  0  0  0  0  0
   -0.2378   -6.3161   -9.7021 H   0  0  0  0  0  0  0  0  0  0  0  0
    3.6244   -8.1536   -9.5780 H   0  0  0  0  0  0  0  0  0  0  0  0
    2.6778   -5.7212    2.1717 H   0  0  0  0  0  0  0  0  0  0  0  0
    3.1665   -6.7660    0.8294 H   0  0  0  0  0  0  0  0  0  0  0  0
    0.3193   -6.4581    1.9161 H   0  0  0  0  0  0  0  0  0  0  0  0
    1.3839   -7.8398    2.1910 H   0  0  0  0  0  0  0  0  0  0  0  0
    0.7770   -7.5031    0.5673 H   0  0  0  0  0  0  0  0  0  0  0  0
    0.4440   -5.0039    8.3694 H   0  0  0  0  0  0  0  0  0  0  0  0
    1.2414   -4.0515    9.6332 H   0  0  0  0  0  0  0  0  0  0  0  0
    2.3828   -4.6219    6.8500 H   0  0  0  0  0  0  0  0  0  0  0  0
    2.8879   -5.4154    8.3477 H   0  0  0  0  0  0  0  0  0  0  0  0
    3.1940   -3.6921    8.1135 H   0  0  0  0  0  0  0  0  0  0  0  0
   -0.3826    0.2861    8.1992 H   0  0  0  0  0  0  0  0  0  0  0  0
   -2.8315    3.2018    6.1704 H   0  0  0  0  0  0  0  0  0  0  0  0
   -5.3947    1.7486   10.0497 H   0  0  0  0  0  0  0  0  0  0  0  0
   -4.4456    0.2893   10.3846 H   0  0  0  0  0  0  0  0  0  0  0  0
   -5.8444   -0.9944    8.7645 H   0  0  0  0  0  0  0  0  0  0  0  0
   -6.8123    0.4508    8.4547 H   0  0  0  0  0  0  0  0  0  0  0  0
   -6.8283   -0.2951   10.0558 H   0  0  0  0  0  0  0  0  0  0  0  0
   -4.3976    8.2485    1.9846 H   0  0  0  0  0  0  0  0  0  0  0  0
   -3.9974    6.9417    3.1056 H   0  0  0  0  0  0  0  0  0  0  0  0
   -1.7197    7.8794    3.4205 H   0  0  0  0  0  0  0  0  0  0  0  0
   -2.0867    9.1927    2.2996 H   0  0  0  0  0  0  0  0  0  0  0  0
   -2.9552    9.0709    3.8333 H   0  0  0  0  0  0  0  0  0  0  0  0
   -0.2014    3.8499   -1.5282 H   0  0  0  0  0  0  0  0  0  0  0  0
    0.3210    2.1766   -1.6930 H   0  0  0  0  0  0  0  0  0  0  0  0
   -1.3248    2.6729   -3.4563 H   0  0  0  0  0  0  0  0  0  0  0  0
   -2.1630    1.6331   -2.2922 H   0  0  0  0  0  0  0  0  0  0  0  0
   -2.4397    3.3722   -2.2852 H   0  0  0  0  0  0  0  0  0  0  0  0
   -0.4628    0.3681   -2.1192 H   0  0  0  0  0  0  0  0  0  0  0  0
    0.0273   -1.3144   -2.2811 H   0  0  0  0  0  0  0  0  0  0  0  0
    2.0327    0.9262   -1.7045 H   0  0  0  0  0  0  0  0  0  0  0  0
    1.7131    0.2372   -3.3034 H   0  0  0  0  0  0  0  0  0  0  0  0
    2.3904   -0.7650   -2.0217 H   0  0  0  0  0  0  0  0  0  0  0  0
   -3.5881    9.1316    0.2277 H   0  0  0  0  0  0  0  0  0  0  0  0
   -1.2912    9.9303   -5.6240 H   0  0  0  0  0  0  0  0  0  0  0  0
   -0.7813    8.3616   -4.9243 H   0  0  0  0  0  0  0  0  0  0  0  0
   -2.2148    8.0343   -6.9548 H   0  0  0  0  0  0  0  0  0  0  0  0
   -3.5263    8.9201   -6.1595 H   0  0  0  0  0  0  0  0  0  0  0  0
   -2.9749    7.3710   -5.5019 H   0  0  0  0  0  0  0  0  0  0  0  0
  1  2  2  0  0  0  0
  2  3  1  0  0  0  0
  3  4  2  0  0  0  0
  3  5  1  0  0  0  0
  5  6  2  0  0  0  0
  6  7  1  0  0  0  0
  7  8  2  0  0  0  0
  8  9  1  0  0  0  0
  9 10  2  0  0  0  0
 10 11  1  0  0  0  0
 11 12  2  0  0  0  0
 12 13  1  0  0  0  0
 13 14  3  0  0  0  0
 12 15  1  0  0  0  0
 15 16  3  0  0  0  0
  8 17  1  0  0  0  0
 17 18  1  0  0  0  0
 18 19  1  0  0  0  0
 19 20  2  0  0  0  0
 20 21  1  0  0  0  0
 21 22  1  0  0  0  0
 21 23  1  0  0  0  0
  1 24  1  0  0  0  0
 24 25  2  0  0  0  0
 25 26  1  0  0  0  0
 26 27  1  0  0  0  0
 25 28  1  0  0  0  0
 28 29  1  0  0  0  0
 29 30  1  0  0  0  0
 30 31  1  0  0  0  0
 31 32  2  0  0  0  0
 32 33  1  0  0  0  0
 33 34  2  0  0  0  0
 34 35  1  0  0  0  0
 35 36  1  0  0  0  0
 36 37  1  0  0  0  0
 37 38  1  0  0  0  0
 38 39  1  0  0  0  0
 37 40  2  0  0  0  0
 40 41  1  0  0  0  0
 40 42  1  0  0  0  0
 34 43  1  0  0  0  0
 43 44  1  0  0  0  0
 44 45  2  0  0  0  0
 45 46  1  0  0  0  0
 46 47  1  0  0  0  0
 46 48  2  0  0  0  0
 48 49  1  0  0  0  0
 49 50  1  0  0  0  0
 48 51  1  0  0  0  0
 43 52  2  0  0  0  0
 52 53  1  0  0  0  0
 53 54  2  0  0  0  0
 54 55  1  0  0  0  0
 55 56  1  0  0  0  0
 56 57  1  0  0  0  0
 57 58  1  0  0  0  0
 58 59  1  0  0  0  0
 59 60  1  0  0  0  0
 58 61  2  0  0  0  0
 61 62  1  0  0  0  0
 62 63  1  0  0  0  0
 63 64  1  0  0  0  0
 64 65  1  0  0  0  0
 65 66  1  0  0  0  0
 66 67  1  0  0  0  0
 65 68  1  0  0  0  0
 68 69  2  0  0  0  0
 69 70  1  0  0  0  0
 70 71  1  0  0  0  0
 71 72  1  0  0  0  0
 72 73  1  0  0  0  0
 70 74  1  0  0  0  0
 74 75  1  0  0  0  0
 61 76  1  0  0  0  0
 76 77  2  0  0  0  0
 77 78  1  0  0  0  0
 78 79  3  0  0  0  0
 77 80  1  0  0  0  0
 80 81  2  0  0  0  0
 80 82  1  0  0  0  0
 82 83  1  0  0  0  0
 83 84  1  0  0  0  0
 11  2  1  0  0  0  0
 23 17  1  0  0  0  0
 73 24  1  0  0  0  0
 10  5  1  0  0  0  0
 22 18  1  0  0  0  0
 72 28  2  0  0  0  0
 23  7  1  0  0  0  0
 71 30  2  0  0  0  0
 69 31  1  0  0  0  0
 53 32  1  0  0  0  0
 68 54  1  0  0  0  0
 41 35  2  0  0  0  0
 51 44  1  0  0  0  0
 64 55  2  0  0  0  0
 63 57  2  0  0  0  0
  1 85  1  0  0  0  0
  6 86  1  0  0  0  0
  9 87  1  0  0  0  0
 17 88  1  0  0  0  0
 18 89  1  0  0  0  0
 19 90  1  0  0  0  0
 20 91  1  0  0  0  0
 21 92  1  0  0  0  0
 22 93  1  0  0  0  0
 22 94  1  0  0  0  0
 23 95  1  0  0  0  0
 26 96  1  0  0  0  0
 26 97  1  0  0  0  0
 27 98  1  0  0  0  0
 27 99  1  0  0  0  0
 27100  1  0  0  0  0
 38101  1  0  0  0  0
 38102  1  0  0  0  0
 39103  1  0  0  0  0
 39104  1  0  0  0  0
 39105  1  0  0  0  0
 41106  1  0  0  0  0
 45107  1  0  0  0  0
 49108  1  0  0  0  0
 49109  1  0  0  0  0
 50110  1  0  0  0  0
 50111  1  0  0  0  0
 50112  1  0  0  0  0
 59113  1  0  0  0  0
 59114  1  0  0  0  0
 60115  1  0  0  0  0
 60116  1  0  0  0  0
 60117  1  0  0  0  0
 66118  1  0  0  0  0
 66119  1  0  0  0  0
 67120  1  0  0  0  0
 67121  1  0  0  0  0
 67122  1  0  0  0  0
 74123  1  0  0  0  0
 74124  1  0  0  0  0
 75125  1  0  0  0  0
 75126  1  0  0  0  0
 75127  1  0  0  0  0
 76128  1  0  0  0  0
 83129  1  0  0  0  0
 83130  1  0  0  0  0
 84131  1  0  0  0  0
 84132  1  0  0  0  0
 84133  1  0  0  0  0
M  END
