104

C          6.37050        0.13850        1.54820
C          6.77880       -0.03990        0.25120
C          5.91040       -0.18300       -0.92030
O          4.69260       -0.10830       -0.95580
C          6.79730       -0.43710       -2.06670
C          6.41660       -0.67070       -3.38650
C          7.47020       -0.88510       -4.24210
C          8.80490       -0.86980       -3.81600
C          9.19370       -0.64290       -2.51700
C          8.13710       -0.42000       -1.62880
C          8.15520       -0.15430       -0.19090
C          9.28580       -0.02110        0.57480
C          9.31870        0.24840        1.95880
N          9.43680        0.46710        3.08100
C         10.60340       -0.12060        0.08050
N         11.70320       -0.19010       -0.24210
C          9.33400       -1.15380       -5.19960
C          9.92460        0.04520       -5.97130
C          9.90940       -0.41040       -7.41260
C          8.64580       -0.42710       -7.81720
C          7.78560        0.01760       -6.65620
C          8.73860        1.01830       -5.99000
C          7.84560       -1.17210       -5.67470
C          5.08910        0.25890        2.09940
C          4.86300        0.39410        3.47900
C          5.91070        0.37210        4.54350
C          6.28120       -1.06800        4.90960
C          3.50640        0.49020        3.76240
C          2.67890        0.44740        2.62820
S          3.58720        0.26530        1.17400
C          1.33010        0.53980        2.98800
C          1.15150        0.65600        4.37120
S          2.62740        0.65190        5.27170
C         -0.22630        0.75740        4.59690
C         -0.94680        0.98090        5.79090
N         -0.48290        1.12080        7.02280
S         -1.73100        1.41870        8.00930
N         -2.91160        1.37720        6.90280
C         -2.36900        1.12810        5.72140
C         -3.01070        0.94980        4.47580
C         -4.37250        0.91550        4.15380
S         -5.90300        1.11280        4.93320
C         -6.69070        0.73760        3.41680
C         -8.02410        0.64040        3.05060
C         -8.18420        0.31010        1.71290
S         -6.61830        0.12570        0.90460
C         -5.78480        0.48190        2.36610
C         -4.46060        0.58630        2.79450
N         -3.20540        0.44510        2.26490
C         -3.04750       -0.19640        0.97870
C         -2.52430       -1.62300        1.12650
C         -2.28770        0.66590        3.27840
C         -0.86730        0.66370        3.32440
N          0.11600        0.54450        2.35610
C          0.06760        0.78630        0.93050
C         -0.43830        2.19320        0.62130
C         -9.31140        0.13380        0.89440
C        -10.65270        0.11730        1.18160
C        -11.31110        0.13080        2.50670
O        -10.81780        0.29280        3.60400
C        -12.74260       -0.11990        2.24260
C        -13.77010       -0.25110        3.15780
C        -15.04900       -0.49580        2.68410
C        -15.25160       -0.60080        1.31580
F        -16.49560       -0.84390        0.87280
C        -14.23570       -0.46990        0.37860
C        -12.96000       -0.22380        0.85920
C        -11.68420       -0.03070        0.16980
C        -11.53750        0.05830       -1.19020
C        -10.33920        0.33100       -1.88450
N         -9.42090        0.56320       -2.53470
C        -12.59910       -0.07770       -2.11080
N        -13.40850       -0.18190       -2.91790
H          7.15650        0.18500        2.28930
H          5.37560       -0.67840       -3.66970
H         10.22500       -0.64240       -2.20680
H          9.92630       -2.06080       -5.30440
H         10.87020        0.41430       -5.58400
H         10.78500       -0.71680       -7.95410
H          8.25490       -0.75050       -8.76410
H          6.78270        0.36200       -6.89420
H          8.41830        1.34700       -5.00290
H          8.92880        1.88650       -6.61870
H          7.44460       -2.09230       -6.09560
H          5.50900        0.87160        5.42740
H          6.80670        0.90760        4.22610
H          5.40510       -1.60470        5.26620
H          6.68290       -1.59380        4.04640
H          7.03340       -1.06680        5.69310
H         -8.85540        0.79240        3.71360
H         -2.41130        0.40200        0.32750
H         -4.03940       -0.22270        0.52090
H         -2.39810       -2.07470        0.14640
H         -1.57080       -1.64170        1.64920
H         -3.23320       -2.22150        1.69410
H          1.09210        0.68490        0.56470
H         -0.52650        0.02310        0.42860
H         -1.42870        2.36010        1.03910
H          0.23700        2.93150        1.04750
H         -0.47870        2.34350       -0.45400
H         -9.05180       -0.03020       -0.14530
H        -13.56820       -0.16370        4.21390
H        -15.88760       -0.60740        3.35290
H        -14.46590       -0.56640       -0.66930
