101

C         -1.61010        5.73030        2.10420
C         -1.87480        6.38820        0.93140
C         -1.39950        6.02660       -0.42300
O         -0.86500        4.99900       -0.79550
C         -1.64290        7.21230       -1.26370
C         -1.30730        7.35740       -2.60790
C         -1.66520        8.56970       -3.14540
C         -2.30130        9.57010       -2.39800
C         -2.63030        9.44260       -1.06930
C         -2.28340        8.21160       -0.50560
C         -2.48260        7.70350        0.84840
C         -3.20400        8.32420        1.83520
C         -3.49660        7.76770        3.09870
N         -3.80280        7.37730        4.13460
C         -3.80210        9.59470        1.70560
N         -4.31240       10.62260        1.66930
C         -2.37670       10.51100       -3.57410
C         -3.74250       10.65720       -4.28990
C         -4.48810        9.36570       -4.06110
C         -3.88610        8.41970       -4.76970
C         -2.72180        9.05440       -5.48940
C         -3.29500       10.45710       -5.74670
C         -1.66820        9.39630       -4.40670
C         -1.11020        4.42690        2.28800
Se        -0.28730        3.98620        3.96840
C          0.02860        2.33060        3.22130
C          0.65400        1.10920        3.51200
C          1.43030        0.69370        4.61500
C          2.04300       -0.60410        4.58970
N          2.78730       -0.82910        5.66090
S          2.71990        0.47390        6.61880
N          1.73690        1.37990        5.70390
C          1.73900       -1.48050        3.52190
C          2.02420       -2.83790        3.31850
S          2.92180       -4.10620        4.07190
C          2.32710       -5.21950        2.86160
C          2.54630       -6.58780        2.65160
C          3.31230       -7.43910        3.61220
C          4.76930       -6.99810        3.75210
C          1.82360       -7.04380        1.55590
S          0.83700       -5.77460        0.82930
C          1.45970       -4.61460        1.93950
C          1.30660       -3.24700        2.18580
N          0.61800       -2.18360        1.66280
C          0.88560       -1.08190        2.45400
C          0.46010        0.26690        2.38370
N         -0.21130        0.97740        1.40780
C         -0.48870        2.22390        1.91660
C         -1.12240        3.35480        1.41180
C         -0.11520        0.78750       -0.02540
C          0.83290        1.79910       -0.67030
C         -0.46660       -2.39340        0.72680
C          0.02810       -2.71810       -0.68220
C          1.67180       -8.34060        1.01250
C          2.66050       -9.27120        0.85480
C          4.10100       -8.92790        0.77080
O          4.60060       -7.83220        0.89590
C          4.77230      -10.17130        0.33940
C          6.11570      -10.41120        0.10070
Cl         7.28960       -9.18180        0.33910
C          6.50540      -11.67780       -0.32960
C          5.55880      -12.66840       -0.52250
C          4.20750      -12.44120       -0.28830
C          3.81610      -11.18720        0.14790
C          2.49500      -10.65570        0.47980
C          1.32470      -11.36920        0.51220
C          0.08420      -10.84390        0.93140
N         -0.95080      -10.48730        1.27830
C          1.21030      -12.72850        0.15580
N          1.04980      -13.82950       -0.12730
H         -1.75160        6.28960        3.02360
H         -0.81440        6.56180       -3.14480
H         -3.11060       10.22510       -0.50610
H         -1.86530       11.46440       -3.45780
H         -4.28110       11.57030       -4.05150
H         -5.31570        9.26440       -3.38380
H         -4.11050        7.36950       -4.80270
H         -2.33030        8.50890       -6.34420
H         -4.12940       10.44900       -6.44630
H         -2.54710       11.17810       -6.07410
H         -0.69230        9.62080       -4.83310
H          2.82330       -7.35620        4.58850
H          3.26750       -8.48250        3.29810
H          5.26250       -7.02740        2.78490
H          5.29000       -7.66580        4.43380
H          4.82810       -5.98610        4.14360
H         -1.60320        3.40130        0.45330
H          0.27390       -0.20780       -0.21210
H         -1.11330        0.87770       -0.46560
H          0.44820        2.81230       -0.60260
H          0.95840        1.55000       -1.72080
H          1.80640        1.76120       -0.18550
H         -1.05930       -3.24170        1.08840
H         -1.11000       -1.51320        0.73330
H          0.73060       -1.97330       -1.04840
H         -0.81840       -2.76300       -1.36140
H          0.52820       -3.68200       -0.69420
H          0.68000       -8.57200        0.64040
H          7.54960      -11.87550       -0.51210
H          5.87700      -13.64170       -0.86350
H          3.49220      -13.23000       -0.45190
