111

C          5.34540       -4.26940       -0.27820
C          6.23760       -4.04990       -1.28830
C          7.24160       -5.11500       -1.56460
O          7.44710       -6.10060       -0.89180
C          7.88960       -4.73640       -2.83260
C          8.84400       -5.46420       -3.54000
C          9.25710       -4.86180       -4.70390
C          8.75250       -3.62910       -5.13900
C          7.81770       -2.89650       -4.44630
C          7.39120       -3.48640       -3.25270
C          6.46160       -2.98580       -2.23700
C          6.07400       -1.67290       -2.12110
C          6.35860       -0.66920       -3.06900
N          6.51570        0.19620       -3.80790
C          5.39330       -1.11730       -1.02250
N          4.85280       -0.57140       -0.16810
C          9.60090       -3.63160       -6.38660
C          8.89400       -4.00450       -7.70680
C         10.02910       -4.38770       -8.62900
C         10.51000       -5.55280       -8.21460
C          9.70830       -5.97680       -7.00520
C          8.33840       -5.39680       -7.38020
C         10.16710       -5.00370       -5.89860
C          4.14840       -3.62490        0.09430
S          3.72490       -3.75480        1.80580
C          2.38110       -2.73890        1.54040
C          1.36290       -2.11900        2.27640
C          1.10180       -2.10490        3.66350
C          0.03730       -1.28160        4.15580
N         -0.06770       -1.32410        5.47500
S          1.07450       -2.31820        6.04680
N          1.74490       -2.73440        4.63440
C         -0.77530       -0.59490        3.22770
C         -1.93090        0.17470        3.41530
S         -2.90850        0.77440        4.70600
C         -3.98530        1.50440        3.53330
C         -5.12820        2.30890        3.65630
C         -5.81690        2.61920        4.94090
C         -5.86900        1.44010        5.90810
C         -5.59970        2.70170        2.40730
S         -4.66720        1.99100        1.08620
C         -3.58530        1.26390        2.21020
C         -2.40880        0.51100        2.14450
N         -1.57910        0.00140        1.18290
C         -0.55250       -0.67410        1.82140
C          0.59440       -1.36490        1.35010
N          1.15560       -1.50500        0.08520
C          2.23640       -2.35740        0.20020
C          3.21620       -2.90140       -0.64990
C          3.17290       -2.94610       -2.14730
C          1.84000       -3.51510       -2.63860
C          1.15010       -0.49330       -0.95610
C          1.48450        0.88830       -0.40150
C         -2.01190       -0.04710       -0.19510
C         -2.23870       -1.48090       -0.66600
C         -6.70230        3.48480        2.01450
C         -7.27880        4.57110        2.62220
C         -8.54100        5.03230        2.03930
O         -9.05780        4.51360        1.06940
N         -9.15750        6.09420        2.68500
C        -10.45270        6.50980        2.15730
C        -11.59480        5.75680        2.82630
C         -8.65520        6.71180        3.79510
S         -9.53760        7.85410        4.59790
N         -7.39740        6.38080        4.21000
C         -6.79110        7.12170        5.31070
C         -7.14660        6.50300        6.65630
C         -6.62950        5.35780        3.65980
O         -5.47710        5.20200        4.01730
H          5.62290       -5.10600        0.35960
H          9.20670       -6.40940       -3.16810
H          7.44030       -1.94910       -4.79360
H         10.28640       -2.79300       -6.49340
H          8.19490       -3.25880       -8.07560
H         10.38990       -3.76550       -9.42680
H         11.35260       -6.09840       -8.59700
H          9.75040       -7.02820       -6.73400
H          7.61520       -5.40660       -6.56670
H          7.91030       -5.88470       -8.25440
H         11.23030       -5.07920       -5.67890
H         -5.29280        3.46020        5.40680
H         -6.83330        2.95350        4.71920
H         -6.49680        1.69590        6.75810
H         -4.88010        1.18940        6.28040
H         -6.29040        0.56370        5.42060
H          3.97500       -3.59390       -2.50370
H          3.33770       -1.95450       -2.58180
H          1.70440       -4.52360       -2.25510
H          1.83290       -3.55550       -3.72510
H          1.00080       -2.90900       -2.30960
H          1.92530       -0.76790       -1.66830
H          0.19860       -0.49370       -1.49020
H          0.75780        1.21050        0.33990
H          1.50310        1.61310       -1.21140
H          2.46750        0.86370        0.06340
H         -1.30380        0.48080       -0.83650
H         -2.95640        0.50080       -0.24310
H         -1.33300       -2.07530       -0.57540
H         -3.01380       -1.95050       -0.06490
H         -2.55890       -1.48180       -1.70450
H         -7.16520        3.20280        1.07200
H        -10.43640        6.29180        1.08790
H        -10.55660        7.58400        2.31660
H        -11.61080        5.96090        3.89420
H        -12.53940        6.07690        2.39680
H        -11.48190        4.68700        2.66720
H         -5.71170        7.08680        5.15240
H         -7.13920        8.15440        5.26200
H         -6.66030        7.06120        7.45080
H         -6.81050        5.46940        6.69780
H         -8.22160        6.53490        6.81620
