
  xtb     02022214203D
 energy: -199.825127083649 gnorm: 0.000404460597 xtb: 6.4.1 (unknown)
110125  0     0  0            999 V2000
    2.2850    5.4380   -0.8916 C   0  0  0  0  0  0  0  0  0  0  0  0
    2.9191    5.0823    0.2725 C   0  0  0  0  0  0  0  0  0  0  0  0
    2.3911    4.2006    1.3175 C   0  0  0  0  0  0  0  0  0  0  0  0
    1.2330    3.8548    1.4866 O   0  0  0  0  0  0  0  0  0  0  0  0
    3.5442    3.7912    2.1342 C   0  0  0  0  0  0  0  0  0  0  0  0
    3.5511    2.8462    3.1576 C   0  0  0  0  0  0  0  0  0  0  0  0
    4.7977    2.6016    3.6809 C   0  0  0  0  0  0  0  0  0  0  0  0
    5.9513    3.2544    3.2264 C   0  0  0  0  0  0  0  0  0  0  0  0
    5.9537    4.2064    2.2333 C   0  0  0  0  0  0  0  0  0  0  0  0
    4.6957    4.4657    1.6813 C   0  0  0  0  0  0  0  0  0  0  0  0
    4.3082    5.3570    0.5880 C   0  0  0  0  0  0  0  0  0  0  0  0
    5.1139    6.2997    0.0039 C   0  0  0  0  0  0  0  0  0  0  0  0
    4.7050    7.1961   -1.0053 C   0  0  0  0  0  0  0  0  0  0  0  0
    4.4366    7.9601   -1.8203 N   0  0  0  0  0  0  0  0  0  0  0  0
    6.4568    6.5310    0.3668 C   0  0  0  0  0  0  0  0  0  0  0  0
    7.5535    6.7673    0.6112 N   0  0  0  0  0  0  0  0  0  0  0  0
    6.8509    2.4829    4.1606 C   0  0  0  0  0  0  0  0  0  0  0  0
    7.6627    1.3289    3.5335 C   0  0  0  0  0  0  0  0  0  0  0  0
    8.0545    0.4757    4.7186 C   0  0  0  0  0  0  0  0  0  0  0  0
    6.9614   -0.1381    5.1532 C   0  0  0  0  0  0  0  0  0  0  0  0
    5.8124    0.2903    4.2694 C   0  0  0  0  0  0  0  0  0  0  0  0
    6.5531    0.4538    2.9358 C   0  0  0  0  0  0  0  0  0  0  0  0
    5.5632    1.7600    4.6708 C   0  0  0  0  0  0  0  0  0  0  0  0
    1.0398    5.0392   -1.3955 C   0  0  0  0  0  0  0  0  0  0  0  0
    0.6549    5.2160   -2.7358 C   0  0  0  0  0  0  0  0  0  0  0  0
    1.3941    6.0212   -3.7542 C   0  0  0  0  0  0  0  0  0  0  0  0
    1.1448    7.5187   -3.5568 C   0  0  0  0  0  0  0  0  0  0  0  0
   -0.5159    4.5230   -3.0219 C   0  0  0  0  0  0  0  0  0  0  0  0
   -1.0737    3.8684   -1.9124 C   0  0  0  0  0  0  0  0  0  0  0  0
   -0.1349    4.0867   -0.4875 S   0  0  0  0  0  0  0  0  0  0  0  0
   -2.1321    3.0380   -2.2903 C   0  0  0  0  0  0  0  0  0  0  0  0
   -2.3443    3.0262   -3.6743 C   0  0  0  0  0  0  0  0  0  0  0  0
   -1.3305    4.1407   -4.5329 S   0  0  0  0  0  0  0  0  0  0  0  0
   -3.2189    1.9616   -3.9383 C   0  0  0  0  0  0  0  0  0  0  0  0
   -3.5644    1.3242   -5.1532 C   0  0  0  0  0  0  0  0  0  0  0  0
   -3.3491    1.7375   -6.3908 N   0  0  0  0  0  0  0  0  0  0  0  0
   -3.7913    0.5611   -7.4117 S   0  0  0  0  0  0  0  0  0  0  0  0
   -4.2671   -0.5268   -6.3113 N   0  0  0  0  0  0  0  0  0  0  0  0
   -4.1074   -0.0053   -5.1062 C   0  0  0  0  0  0  0  0  0  0  0  0
   -4.4158   -0.5791   -3.8514 C   0  0  0  0  0  0  0  0  0  0  0  0
   -4.8545   -1.8613   -3.4818 C   0  0  0  0  0  0  0  0  0  0  0  0
   -5.0272   -3.4417   -4.1705 S   0  0  0  0  0  0  0  0  0  0  0  0
   -5.3231   -4.0844   -2.5707 C   0  0  0  0  0  0  0  0  0  0  0  0
   -5.3816   -5.3792   -2.0581 C   0  0  0  0  0  0  0  0  0  0  0  0
   -5.5240   -5.3931   -0.6855 C   0  0  0  0  0  0  0  0  0  0  0  0
   -5.6558   -3.7616   -0.0207 S   0  0  0  0  0  0  0  0  0  0  0  0
   -5.3783   -3.0888   -1.5810 C   0  0  0  0  0  0  0  0  0  0  0  0
   -5.0723   -1.8302   -2.0987 C   0  0  0  0  0  0  0  0  0  0  0  0
   -4.7676   -0.5941   -1.5952 N   0  0  0  0  0  0  0  0  0  0  0  0
   -5.3279   -0.1757   -0.3262 C   0  0  0  0  0  0  0  0  0  0  0  0
   -6.2345    1.0405   -0.4851 C   0  0  0  0  0  0  0  0  0  0  0  0
   -4.2919    0.1717   -2.6473 C   0  0  0  0  0  0  0  0  0  0  0  0
   -3.5562    1.3831   -2.6788 C   0  0  0  0  0  0  0  0  0  0  0  0
   -2.9049    2.0870   -1.6866 N   0  0  0  0  0  0  0  0  0  0  0  0
   -2.7078    1.7827   -0.2887 C   0  0  0  0  0  0  0  0  0  0  0  0
   -1.8786    0.5161   -0.0951 C   0  0  0  0  0  0  0  0  0  0  0  0
   -5.4643   -6.4523    0.2502 C   0  0  0  0  0  0  0  0  0  0  0  0
   -4.6081   -7.5133    0.1896 C   0  0  0  0  0  0  0  0  0  0  0  0
   -3.4187   -7.5726   -0.6962 C   0  0  0  0  0  0  0  0  0  0  0  0
   -3.2278   -6.9883   -1.7402 O   0  0  0  0  0  0  0  0  0  0  0  0
   -2.4604   -8.4407    0.0174 C   0  0  0  0  0  0  0  0  0  0  0  0
   -1.1472   -8.6730   -0.2723 C   0  0  0  0  0  0  0  0  0  0  0  0
   -0.3848   -9.4877    0.5948 C   0  0  0  0  0  0  0  0  0  0  0  0
    0.9845   -9.7295    0.3625 C   0  0  0  0  0  0  0  0  0  0  0  0
    1.7205  -10.4961    1.2227 C   0  0  0  0  0  0  0  0  0  0  0  0
    1.0903  -11.0500    2.3452 C   0  0  0  0  0  0  0  0  0  0  0  0
    1.8314  -11.7981    3.1826 F   0  0  0  0  0  0  0  0  0  0  0  0
   -0.2357  -10.8524    2.6140 C   0  0  0  0  0  0  0  0  0  0  0  0
   -1.0077  -10.0604    1.7421 C   0  0  0  0  0  0  0  0  0  0  0  0
   -2.3759   -9.8161    2.0073 C   0  0  0  0  0  0  0  0  0  0  0  0
   -3.0892   -9.0110    1.1605 C   0  0  0  0  0  0  0  0  0  0  0  0
   -4.4617   -8.5237    1.2189 C   0  0  0  0  0  0  0  0  0  0  0  0
   -5.4523   -8.9639    2.0546 C   0  0  0  0  0  0  0  0  0  0  0  0
   -6.7803   -8.4899    2.0012 C   0  0  0  0  0  0  0  0  0  0  0  0
   -7.8757   -8.1469    1.9866 N   0  0  0  0  0  0  0  0  0  0  0  0
   -5.2697   -9.9686    3.0261 C   0  0  0  0  0  0  0  0  0  0  0  0
   -5.1642  -10.7778    3.8334 N   0  0  0  0  0  0  0  0  0  0  0  0
    2.8641    6.0296   -1.5885 H   0  0  0  0  0  0  0  0  0  0  0  0
    2.6398    2.3620    3.4719 H   0  0  0  0  0  0  0  0  0  0  0  0
    6.8496    4.6993    1.8946 H   0  0  0  0  0  0  0  0  0  0  0  0
    7.4302    3.0768    4.8645 H   0  0  0  0  0  0  0  0  0  0  0  0
    8.4642    1.6437    2.8710 H   0  0  0  0  0  0  0  0  0  0  0  0
    9.0428    0.4496    5.1383 H   0  0  0  0  0  0  0  0  0  0  0  0
    6.8538   -0.7792    6.0084 H   0  0  0  0  0  0  0  0  0  0  0  0
    4.9274   -0.3407    4.2771 H   0  0  0  0  0  0  0  0  0  0  0  0
    5.9685    0.9449    2.1600 H   0  0  0  0  0  0  0  0  0  0  0  0
    6.9349   -0.4935    2.5586 H   0  0  0  0  0  0  0  0  0  0  0  0
    5.2806    1.8746    5.7155 H   0  0  0  0  0  0  0  0  0  0  0  0
    2.4664    5.8233   -3.7027 H   0  0  0  0  0  0  0  0  0  0  0  0
    1.0405    5.7238   -4.7435 H   0  0  0  0  0  0  0  0  0  0  0  0
    0.0800    7.7341   -3.6065 H   0  0  0  0  0  0  0  0  0  0  0  0
    1.5239    7.8509   -2.5937 H   0  0  0  0  0  0  0  0  0  0  0  0
    1.6513    8.0817   -4.3356 H   0  0  0  0  0  0  0  0  0  0  0  0
   -5.3336   -6.2704   -2.6533 H   0  0  0  0  0  0  0  0  0  0  0  0
   -5.9180   -1.0191    0.0420 H   0  0  0  0  0  0  0  0  0  0  0  0
   -4.5411    0.0050    0.4091 H   0  0  0  0  0  0  0  0  0  0  0  0
   -6.6509    1.3168    0.4798 H   0  0  0  0  0  0  0  0  0  0  0  0
   -5.6909    1.8914   -0.8886 H   0  0  0  0  0  0  0  0  0  0  0  0
   -7.0533    0.8097   -1.1627 H   0  0  0  0  0  0  0  0  0  0  0  0
   -3.6690    1.7184    0.2202 H   0  0  0  0  0  0  0  0  0  0  0  0
   -2.1678    2.6290    0.1423 H   0  0  0  0  0  0  0  0  0  0  0  0
   -0.8920    0.6532   -0.5309 H   0  0  0  0  0  0  0  0  0  0  0  0
   -2.3471   -0.3427   -0.5697 H   0  0  0  0  0  0  0  0  0  0  0  0
   -1.7593    0.3136    0.9655 H   0  0  0  0  0  0  0  0  0  0  0  0
   -6.0428   -6.3116    1.1571 H   0  0  0  0  0  0  0  0  0  0  0  0
   -0.6901   -8.2269   -1.1429 H   0  0  0  0  0  0  0  0  0  0  0  0
    1.4479   -9.2908   -0.5084 H   0  0  0  0  0  0  0  0  0  0  0  0
    2.7704  -10.6846    1.0634 H   0  0  0  0  0  0  0  0  0  0  0  0
   -0.6874  -11.2949    3.4880 H   0  0  0  0  0  0  0  0  0  0  0  0
   -2.8199  -10.2522    2.8881 H   0  0  0  0  0  0  0  0  0  0  0  0
  1  2  2  0  0  0  0
  2  3  1  0  0  0  0
  3  4  2  0  0  0  0
  3  5  1  0  0  0  0
  5  6  2  0  0  0  0
  6  7  1  0  0  0  0
  7  8  2  0  0  0  0
  8  9  1  0  0  0  0
  9 10  2  0  0  0  0
 10 11  1  0  0  0  0
 11 12  2  0  0  0  0
 12 13  1  0  0  0  0
 13 14  3  0  0  0  0
 12 15  1  0  0  0  0
 15 16  3  0  0  0  0
  8 17  1  0  0  0  0
 17 18  1  0  0  0  0
 18 19  1  0  0  0  0
 19 20  2  0  0  0  0
 20 21  1  0  0  0  0
 21 22  1  0  0  0  0
 21 23  1  0  0  0  0
  1 24  1  0  0  0  0
 24 25  2  0  0  0  0
 25 26  1  0  0  0  0
 26 27  1  0  0  0  0
 25 28  1  0  0  0  0
 28 29  2  0  0  0  0
 29 30  1  0  0  0  0
 29 31  1  0  0  0  0
 31 32  2  0  0  0  0
 32 33  1  0  0  0  0
 32 34  1  0  0  0  0
 34 35  1  0  0  0  0
 35 36  2  0  0  0  0
 36 37  1  0  0  0  0
 37 38  1  0  0  0  0
 38 39  2  0  0  0  0
 39 40  1  0  0  0  0
 40 41  1  0  0  0  0
 41 42  1  0  0  0  0
 42 43  1  0  0  0  0
 43 44  1  0  0  0  0
 44 45  2  0  0  0  0
 45 46  1  0  0  0  0
 46 47  1  0  0  0  0
 47 48  1  0  0  0  0
 48 49  1  0  0  0  0
 49 50  1  0  0  0  0
 50 51  1  0  0  0  0
 49 52  1  0  0  0  0
 52 53  1  0  0  0  0
 53 54  1  0  0  0  0
 54 55  1  0  0  0  0
 55 56  1  0  0  0  0
 45 57  1  0  0  0  0
 57 58  2  0  0  0  0
 58 59  1  0  0  0  0
 59 60  2  0  0  0  0
 59 61  1  0  0  0  0
 61 62  2  0  0  0  0
 62 63  1  0  0  0  0
 63 64  2  0  0  0  0
 64 65  1  0  0  0  0
 65 66  2  0  0  0  0
 66 67  1  0  0  0  0
 66 68  1  0  0  0  0
 68 69  2  0  0  0  0
 69 70  1  0  0  0  0
 70 71  2  0  0  0  0
 71 72  1  0  0  0  0
 72 73  2  0  0  0  0
 73 74  1  0  0  0  0
 74 75  3  0  0  0  0
 73 76  1  0  0  0  0
 76 77  3  0  0  0  0
 11  2  1  0  0  0  0
 23 17  1  0  0  0  0
 30 24  1  0  0  0  0
 54 31  1  0  0  0  0
 72 58  1  0  0  0  0
 10  5  1  0  0  0  0
 22 18  1  0  0  0  0
 33 28  1  0  0  0  0
 53 34  2  0  0  0  0
 71 61  1  0  0  0  0
 23  7  1  0  0  0  0
 39 35  1  0  0  0  0
 52 40  2  0  0  0  0
 69 63  1  0  0  0  0
 48 41  2  0  0  0  0
 47 43  2  0  0  0  0
  1 78  1  0  0  0  0
  6 79  1  0  0  0  0
  9 80  1  0  0  0  0
 17 81  1  0  0  0  0
 18 82  1  0  0  0  0
 19 83  1  0  0  0  0
 20 84  1  0  0  0  0
 21 85  1  0  0  0  0
 22 86  1  0  0  0  0
 22 87  1  0  0  0  0
 23 88  1  0  0  0  0
 26 89  1  0  0  0  0
 26 90  1  0  0  0  0
 27 91  1  0  0  0  0
 27 92  1  0  0  0  0
 27 93  1  0  0  0  0
 44 94  1  0  0  0  0
 50 95  1  0  0  0  0
 50 96  1  0  0  0  0
 51 97  1  0  0  0  0
 51 98  1  0  0  0  0
 51 99  1  0  0  0  0
 55100  1  0  0  0  0
 55101  1  0  0  0  0
 56102  1  0  0  0  0
 56103  1  0  0  0  0
 56104  1  0  0  0  0
 57105  1  0  0  0  0
 62106  1  0  0  0  0
 64107  1  0  0  0  0
 65108  1  0  0  0  0
 68109  1  0  0  0  0
 70110  1  0  0  0  0
M  END
