
  xtb     02102219313D
 energy: -283.069562517381 gnorm: 0.000228097447 xtb: 6.4.1 (unknown)
174193  0     0  0            999 V2000
    6.6192   -2.7764   -0.3881 C   0  0  0  0  0  0  0  0  0  0  0  0
    7.5642   -1.8132   -0.1571 C   0  0  0  0  0  0  0  0  0  0  0  0
    7.3606   -0.3604   -0.2577 C   0  0  0  0  0  0  0  0  0  0  0  0
    6.4577    0.2274   -0.8257 O   0  0  0  0  0  0  0  0  0  0  0  0
    8.4757    0.2596    0.4772 C   0  0  0  0  0  0  0  0  0  0  0  0
    8.6316    1.6110    0.7791 C   0  0  0  0  0  0  0  0  0  0  0  0
    9.7487    1.8888    1.5295 C   0  0  0  0  0  0  0  0  0  0  0  0
   10.6474    0.8972    1.9459 C   0  0  0  0  0  0  0  0  0  0  0  0
   10.5086   -0.4381    1.6491 C   0  0  0  0  0  0  0  0  0  0  0  0
    9.3760   -0.7440    0.8885 C   0  0  0  0  0  0  0  0  0  0  0  0
    8.8744   -2.0365    0.4257 C   0  0  0  0  0  0  0  0  0  0  0  0
    9.5478   -3.2274    0.4989 C   0  0  0  0  0  0  0  0  0  0  0  0
   10.8372   -3.3794    1.0498 C   0  0  0  0  0  0  0  0  0  0  0  0
   11.8834   -3.5728    1.4815 N   0  0  0  0  0  0  0  0  0  0  0  0
    9.0715   -4.4589    0.0018 C   0  0  0  0  0  0  0  0  0  0  0  0
    8.7573   -5.4940   -0.3844 N   0  0  0  0  0  0  0  0  0  0  0  0
   11.5221    1.8845    2.6778 C   0  0  0  0  0  0  0  0  0  0  0  0
   12.8355    2.2972    1.9809 C   0  0  0  0  0  0  0  0  0  0  0  0
   13.2207    3.5855    2.6717 C   0  0  0  0  0  0  0  0  0  0  0  0
   12.3706    4.5248    2.2772 C   0  0  0  0  0  0  0  0  0  0  0  0
   11.3963    3.8873    1.3129 C   0  0  0  0  0  0  0  0  0  0  0  0
   12.3179    2.8560    0.6492 C   0  0  0  0  0  0  0  0  0  0  0  0
   10.5206    2.9901    2.2128 C   0  0  0  0  0  0  0  0  0  0  0  0
    5.2786   -2.6402   -0.7882 C   0  0  0  0  0  0  0  0  0  0  0  0
    4.3579   -3.6818   -0.6559 C   0  0  0  0  0  0  0  0  0  0  0  0
    3.0690   -3.2848   -0.9590 C   0  0  0  0  0  0  0  0  0  0  0  0
    1.4937   -4.0188   -0.7744 S   0  0  0  0  0  0  0  0  0  0  0  0
    0.7659   -2.5094   -1.2194 C   0  0  0  0  0  0  0  0  0  0  0  0
   -0.5429   -1.9421   -1.1113 C   0  0  0  0  0  0  0  0  0  0  0  0
   -1.7129   -2.5002   -0.5766 C   0  0  0  0  0  0  0  0  0  0  0  0
   -1.7527   -3.9381   -0.3235 C   0  0  0  0  0  0  0  0  0  0  0  0
   -1.7486   -4.9192   -1.2679 C   0  0  0  0  0  0  0  0  0  0  0  0
   -1.7400   -6.2179   -0.7172 C   0  0  0  0  0  0  0  0  0  0  0  0
   -1.7150   -6.2259    0.6415 C   0  0  0  0  0  0  0  0  0  0  0  0
   -1.6326   -7.3928    1.5640 C   0  0  0  0  0  0  0  0  0  0  0  0
   -0.2067   -7.5736    2.0892 C   0  0  0  0  0  0  0  0  0  0  0  0
   -1.7131   -4.6119    1.2760 S   0  0  0  0  0  0  0  0  0  0  0  0
   -2.7512   -1.6198   -0.3280 C   0  0  0  0  0  0  0  0  0  0  0  0
   -4.1081   -1.9162    0.2912 C   0  0  0  0  0  0  0  0  0  0  0  0
   -4.0386   -2.2535    1.7697 C   0  0  0  0  0  0  0  0  0  0  0  0
   -2.9008   -1.9887    2.5189 C   0  0  0  0  0  0  0  0  0  0  0  0
   -2.8768   -2.2611    3.8742 C   0  0  0  0  0  0  0  0  0  0  0  0
   -3.9886   -2.7863    4.5176 C   0  0  0  0  0  0  0  0  0  0  0  0
   -3.9316   -3.1472    5.9734 C   0  0  0  0  0  0  0  0  0  0  0  0
   -3.4155   -4.5782    6.1401 C   0  0  0  0  0  0  0  0  0  0  0  0
   -5.1365   -3.0155    3.7699 C   0  0  0  0  0  0  0  0  0  0  0  0
   -5.1662   -2.7459    2.4153 C   0  0  0  0  0  0  0  0  0  0  0  0
   -4.8009   -2.9657   -0.5578 C   0  0  0  0  0  0  0  0  0  0  0  0
   -5.3166   -2.6023   -1.7953 C   0  0  0  0  0  0  0  0  0  0  0  0
   -5.8848   -3.5487   -2.6265 C   0  0  0  0  0  0  0  0  0  0  0  0
   -5.9476   -4.8829   -2.2479 C   0  0  0  0  0  0  0  0  0  0  0  0
   -6.5073   -5.9247   -3.1724 C   0  0  0  0  0  0  0  0  0  0  0  0
   -5.3847   -6.5569   -3.9978 C   0  0  0  0  0  0  0  0  0  0  0  0
   -5.4274   -5.2413   -1.0119 C   0  0  0  0  0  0  0  0  0  0  0  0
   -4.8604   -4.2984   -0.1761 C   0  0  0  0  0  0  0  0  0  0  0  0
   -4.7551   -0.5577    0.2140 C   0  0  0  0  0  0  0  0  0  0  0  0
   -3.8724    0.3751   -0.3085 C   0  0  0  0  0  0  0  0  0  0  0  0
   -2.6387   -0.2515   -0.6623 C   0  0  0  0  0  0  0  0  0  0  0  0
   -1.4830    0.2983   -1.2359 C   0  0  0  0  0  0  0  0  0  0  0  0
   -0.4352   -0.5756   -1.4548 C   0  0  0  0  0  0  0  0  0  0  0  0
    0.9683   -0.2496   -1.9323 C   0  0  0  0  0  0  0  0  0  0  0  0
    1.0691   -0.1470   -3.4466 C   0  0  0  0  0  0  0  0  0  0  0  0
   -0.0277   -0.3323   -4.2745 C   0  0  0  0  0  0  0  0  0  0  0  0
    0.1154   -0.2693   -5.6493 C   0  0  0  0  0  0  0  0  0  0  0  0
    1.3523   -0.0311   -6.2305 C   0  0  0  0  0  0  0  0  0  0  0  0
    1.5096   -0.0084   -7.7236 C   0  0  0  0  0  0  0  0  0  0  0  0
    1.8002   -1.4148   -8.2516 C   0  0  0  0  0  0  0  0  0  0  0  0
    2.4514    0.1335   -5.3962 C   0  0  0  0  0  0  0  0  0  0  0  0
    2.3153    0.0732   -4.0234 C   0  0  0  0  0  0  0  0  0  0  0  0
    1.5451    0.9451   -1.2013 C   0  0  0  0  0  0  0  0  0  0  0  0
    1.8305    2.1469   -1.8310 C   0  0  0  0  0  0  0  0  0  0  0  0
    2.3885    3.1927   -1.1201 C   0  0  0  0  0  0  0  0  0  0  0  0
    2.6769    3.0665    0.2310 C   0  0  0  0  0  0  0  0  0  0  0  0
    3.3811    4.1640    0.9743 C   0  0  0  0  0  0  0  0  0  0  0  0
    4.8941    3.9408    0.9140 C   0  0  0  0  0  0  0  0  0  0  0  0
    2.3612    1.8717    0.8643 C   0  0  0  0  0  0  0  0  0  0  0  0
    1.7983    0.8265    0.1599 C   0  0  0  0  0  0  0  0  0  0  0  0
    1.6773   -1.5273   -1.5651 C   0  0  0  0  0  0  0  0  0  0  0  0
    2.9931   -1.9474   -1.4022 C   0  0  0  0  0  0  0  0  0  0  0  0
    4.5235   -1.1653   -1.3794 S   0  0  0  0  0  0  0  0  0  0  0  0
   -1.3946    1.7332   -1.4879 C   0  0  0  0  0  0  0  0  0  0  0  0
   -1.3833    2.7264   -0.5560 C   0  0  0  0  0  0  0  0  0  0  0  0
   -1.2774    4.0138   -1.1224 C   0  0  0  0  0  0  0  0  0  0  0  0
   -1.2236    4.0024   -2.4802 C   0  0  0  0  0  0  0  0  0  0  0  0
   -1.1673    5.1576   -3.4190 C   0  0  0  0  0  0  0  0  0  0  0  0
   -2.5241    5.3921   -4.0865 C   0  0  0  0  0  0  0  0  0  0  0  0
   -1.2961    2.3826   -3.0935 S   0  0  0  0  0  0  0  0  0  0  0  0
   -4.4914    1.9878   -0.3712 S   0  0  0  0  0  0  0  0  0  0  0  0
   -5.9741    1.4214    0.3501 C   0  0  0  0  0  0  0  0  0  0  0  0
   -7.1352    2.0582    0.7535 C   0  0  0  0  0  0  0  0  0  0  0  0
   -8.0389    1.1766    1.3318 C   0  0  0  0  0  0  0  0  0  0  0  0
   -7.4132   -0.4829    1.3416 S   0  0  0  0  0  0  0  0  0  0  0  0
   -5.9528    0.0312    0.6037 C   0  0  0  0  0  0  0  0  0  0  0  0
   -9.2967    1.3521    1.9300 C   0  0  0  0  0  0  0  0  0  0  0  0
  -10.0651    2.4661    2.1513 C   0  0  0  0  0  0  0  0  0  0  0  0
   -9.7947    3.8734    1.7592 C   0  0  0  0  0  0  0  0  0  0  0  0
   -8.8526    4.3352    1.1492 O   0  0  0  0  0  0  0  0  0  0  0  0
  -10.9455    4.6151    2.2723 C   0  0  0  0  0  0  0  0  0  0  0  0
  -11.4375    6.2523    2.2748 S   0  0  0  0  0  0  0  0  0  0  0  0
  -12.8715    5.7966    3.1486 C   0  0  0  0  0  0  0  0  0  0  0  0
  -14.1208    7.1059    3.6306 Br  0  0  0  0  0  0  0  0  0  0  0  0
  -12.9662    4.4598    3.4217 C   0  0  0  0  0  0  0  0  0  0  0  0
  -11.8467    3.7783    2.9111 C   0  0  0  0  0  0  0  0  0  0  0  0
  -11.3367    2.4194    2.8584 C   0  0  0  0  0  0  0  0  0  0  0  0
  -11.9843    1.3446    3.4101 C   0  0  0  0  0  0  0  0  0  0  0  0
  -11.5531    0.0028    3.4166 C   0  0  0  0  0  0  0  0  0  0  0  0
  -11.2830   -1.1122    3.4756 N   0  0  0  0  0  0  0  0  0  0  0  0
  -13.2223    1.4919    4.0722 C   0  0  0  0  0  0  0  0  0  0  0  0
  -14.2282    1.5849    4.6163 N   0  0  0  0  0  0  0  0  0  0  0  0
    6.8891   -3.7971   -0.1422 H   0  0  0  0  0  0  0  0  0  0  0  0
    7.9088    2.3404    0.4480 H   0  0  0  0  0  0  0  0  0  0  0  0
   11.2010   -1.1903    1.9886 H   0  0  0  0  0  0  0  0  0  0  0  0
   11.6441    1.7075    3.7448 H   0  0  0  0  0  0  0  0  0  0  0  0
   13.5921    1.5187    1.9384 H   0  0  0  0  0  0  0  0  0  0  0  0
   14.0108    3.6654    3.3950 H   0  0  0  0  0  0  0  0  0  0  0  0
   12.3087    5.5459    2.6052 H   0  0  0  0  0  0  0  0  0  0  0  0
   10.8425    4.5581    0.6615 H   0  0  0  0  0  0  0  0  0  0  0  0
   11.7958    2.1251    0.0345 H   0  0  0  0  0  0  0  0  0  0  0  0
   13.1078    3.3255    0.0654 H   0  0  0  0  0  0  0  0  0  0  0  0
    9.9750    3.5503    2.9701 H   0  0  0  0  0  0  0  0  0  0  0  0
    4.6354   -4.6598   -0.3061 H   0  0  0  0  0  0  0  0  0  0  0  0
   -1.7738   -4.7141   -2.3236 H   0  0  0  0  0  0  0  0  0  0  0  0
   -1.7495   -7.1134   -1.3129 H   0  0  0  0  0  0  0  0  0  0  0  0
   -2.3105   -7.2459    2.4083 H   0  0  0  0  0  0  0  0  0  0  0  0
   -1.9421   -8.2913    1.0260 H   0  0  0  0  0  0  0  0  0  0  0  0
   -0.1539   -8.4322    2.7538 H   0  0  0  0  0  0  0  0  0  0  0  0
    0.4827   -7.7280    1.2623 H   0  0  0  0  0  0  0  0  0  0  0  0
    0.1063   -6.6877    2.6371 H   0  0  0  0  0  0  0  0  0  0  0  0
   -2.0236   -1.5732    2.0447 H   0  0  0  0  0  0  0  0  0  0  0  0
   -1.9779   -2.0606    4.4392 H   0  0  0  0  0  0  0  0  0  0  0  0
   -3.2655   -2.4611    6.5005 H   0  0  0  0  0  0  0  0  0  0  0  0
   -4.9261   -3.0682    6.4165 H   0  0  0  0  0  0  0  0  0  0  0  0
   -2.4239   -4.6747    5.7034 H   0  0  0  0  0  0  0  0  0  0  0  0
   -3.3606   -4.8438    7.1932 H   0  0  0  0  0  0  0  0  0  0  0  0
   -4.0793   -5.2790    5.6388 H   0  0  0  0  0  0  0  0  0  0  0  0
   -6.0204   -3.4066    4.2525 H   0  0  0  0  0  0  0  0  0  0  0  0
   -6.0705   -2.9274    1.8527 H   0  0  0  0  0  0  0  0  0  0  0  0
   -5.2704   -1.5702   -2.1139 H   0  0  0  0  0  0  0  0  0  0  0  0
   -6.2829   -3.2457   -3.5846 H   0  0  0  0  0  0  0  0  0  0  0  0
   -7.2394   -5.4726   -3.8443 H   0  0  0  0  0  0  0  0  0  0  0  0
   -7.0089   -6.7024   -2.5930 H   0  0  0  0  0  0  0  0  0  0  0  0
   -5.7829   -7.3195   -4.6630 H   0  0  0  0  0  0  0  0  0  0  0  0
   -4.8840   -5.7994   -4.5971 H   0  0  0  0  0  0  0  0  0  0  0  0
   -4.6475   -7.0157   -3.3426 H   0  0  0  0  0  0  0  0  0  0  0  0
   -5.4627   -6.2744   -0.6967 H   0  0  0  0  0  0  0  0  0  0  0  0
   -4.4647   -4.6075    0.7789 H   0  0  0  0  0  0  0  0  0  0  0  0
   -1.0030   -0.5242   -3.8524 H   0  0  0  0  0  0  0  0  0  0  0  0
   -0.7525   -0.4065   -6.2783 H   0  0  0  0  0  0  0  0  0  0  0  0
    2.3310    0.6557   -7.9996 H   0  0  0  0  0  0  0  0  0  0  0  0
    0.5948    0.3675   -8.1864 H   0  0  0  0  0  0  0  0  0  0  0  0
    2.7161   -1.8023   -7.8111 H   0  0  0  0  0  0  0  0  0  0  0  0
    1.9137   -1.3999   -9.3331 H   0  0  0  0  0  0  0  0  0  0  0  0
    0.9864   -2.0901   -7.9966 H   0  0  0  0  0  0  0  0  0  0  0  0
    3.4266    0.3117   -5.8262 H   0  0  0  0  0  0  0  0  0  0  0  0
    3.1815    0.2055   -3.3913 H   0  0  0  0  0  0  0  0  0  0  0  0
    1.6239    2.2705   -2.8832 H   0  0  0  0  0  0  0  0  0  0  0  0
    2.6105    4.1198   -1.6292 H   0  0  0  0  0  0  0  0  0  0  0  0
    3.0589    4.1765    2.0177 H   0  0  0  0  0  0  0  0  0  0  0  0
    3.1401    5.1314    0.5291 H   0  0  0  0  0  0  0  0  0  0  0  0
    5.4192    4.7284    1.4505 H   0  0  0  0  0  0  0  0  0  0  0  0
    5.2308    3.9350   -0.1203 H   0  0  0  0  0  0  0  0  0  0  0  0
    5.1506    2.9817    1.3589 H   0  0  0  0  0  0  0  0  0  0  0  0
    2.5651    1.7563    1.9195 H   0  0  0  0  0  0  0  0  0  0  0  0
    1.5599   -0.0978    0.6686 H   0  0  0  0  0  0  0  0  0  0  0  0
   -1.4212    2.5376    0.5022 H   0  0  0  0  0  0  0  0  0  0  0  0
   -1.2408    4.9154   -0.5374 H   0  0  0  0  0  0  0  0  0  0  0  0
   -0.8728    6.0491   -2.8614 H   0  0  0  0  0  0  0  0  0  0  0  0
   -0.4158    4.9705   -4.1902 H   0  0  0  0  0  0  0  0  0  0  0  0
   -3.2857    5.5858   -3.3347 H   0  0  0  0  0  0  0  0  0  0  0  0
   -2.8181    4.5141   -4.6572 H   0  0  0  0  0  0  0  0  0  0  0  0
   -2.4727    6.2444   -4.7593 H   0  0  0  0  0  0  0  0  0  0  0  0
   -7.3301    3.1093    0.6499 H   0  0  0  0  0  0  0  0  0  0  0  0
   -9.7144    0.4220    2.2981 H   0  0  0  0  0  0  0  0  0  0  0  0
  -13.7894    4.0194    3.9528 H   0  0  0  0  0  0  0  0  0  0  0  0
  1  2  2  0  0  0  0
  2  3  1  0  0  0  0
  3  4  2  0  0  0  0
  3  5  1  0  0  0  0
  5  6  2  0  0  0  0
  6  7  1  0  0  0  0
  7  8  2  0  0  0  0
  8  9  1  0  0  0  0
  9 10  2  0  0  0  0
 10 11  1  0  0  0  0
 11 12  2  0  0  0  0
 12 13  1  0  0  0  0
 13 14  3  0  0  0  0
 12 15  1  0  0  0  0
 15 16  3  0  0  0  0
  8 17  1  0  0  0  0
 17 18  1  0  0  0  0
 18 19  1  0  0  0  0
 19 20  2  0  0  0  0
 20 21  1  0  0  0  0
 21 22  1  0  0  0  0
 21 23  1  0  0  0  0
  1 24  1  0  0  0  0
 24 25  2  0  0  0  0
 25 26  1  0  0  0  0
 26 27  1  0  0  0  0
 27 28  1  0  0  0  0
 28 29  1  0  0  0  0
 29 30  2  0  0  0  0
 30 31  1  0  0  0  0
 31 32  2  0  0  0  0
 32 33  1  0  0  0  0
 33 34  2  0  0  0  0
 34 35  1  0  0  0  0
 35 36  1  0  0  0  0
 34 37  1  0  0  0  0
 30 38  1  0  0  0  0
 38 39  1  0  0  0  0
 39 40  1  0  0  0  0
 40 41  2  0  0  0  0
 41 42  1  0  0  0  0
 42 43  2  0  0  0  0
 43 44  1  0  0  0  0
 44 45  1  0  0  0  0
 43 46  1  0  0  0  0
 46 47  2  0  0  0  0
 39 48  1  0  0  0  0
 48 49  2  0  0  0  0
 49 50  1  0  0  0  0
 50 51  2  0  0  0  0
 51 52  1  0  0  0  0
 52 53  1  0  0  0  0
 51 54  1  0  0  0  0
 54 55  2  0  0  0  0
 39 56  1  0  0  0  0
 56 57  2  0  0  0  0
 57 58  1  0  0  0  0
 58 59  1  0  0  0  0
 59 60  2  0  0  0  0
 60 61  1  0  0  0  0
 61 62  1  0  0  0  0
 62 63  2  0  0  0  0
 63 64  1  0  0  0  0
 64 65  2  0  0  0  0
 65 66  1  0  0  0  0
 66 67  1  0  0  0  0
 65 68  1  0  0  0  0
 68 69  2  0  0  0  0
 61 70  1  0  0  0  0
 70 71  2  0  0  0  0
 71 72  1  0  0  0  0
 72 73  2  0  0  0  0
 73 74  1  0  0  0  0
 74 75  1  0  0  0  0
 73 76  1  0  0  0  0
 76 77  2  0  0  0  0
 61 78  1  0  0  0  0
 78 79  1  0  0  0  0
 79 80  1  0  0  0  0
 59 81  1  0  0  0  0
 81 82  2  0  0  0  0
 82 83  1  0  0  0  0
 83 84  2  0  0  0  0
 84 85  1  0  0  0  0
 85 86  1  0  0  0  0
 84 87  1  0  0  0  0
 57 88  1  0  0  0  0
 88 89  1  0  0  0  0
 89 90  1  0  0  0  0
 90 91  2  0  0  0  0
 91 92  1  0  0  0  0
 92 93  1  0  0  0  0
 91 94  1  0  0  0  0
 94 95  2  0  0  0  0
 95 96  1  0  0  0  0
 96 97  2  0  0  0  0
 96 98  1  0  0  0  0
 98 99  1  0  0  0  0
 99100  1  0  0  0  0
100101  1  0  0  0  0
100102  2  0  0  0  0
102103  1  0  0  0  0
103104  1  0  0  0  0
104105  2  0  0  0  0
105106  1  0  0  0  0
106107  3  0  0  0  0
105108  1  0  0  0  0
108109  3  0  0  0  0
 11  2  1  0  0  0  0
 23 17  1  0  0  0  0
 80 24  1  0  0  0  0
 87 81  1  0  0  0  0
 93 89  2  0  0  0  0
104 95  1  0  0  0  0
 10  5  1  0  0  0  0
 22 18  1  0  0  0  0
 79 26  2  0  0  0  0
103 98  2  0  0  0  0
 23  7  1  0  0  0  0
 78 28  2  0  0  0  0
 60 29  1  0  0  0  0
 69 62  1  0  0  0  0
 77 70  1  0  0  0  0
 37 31  1  0  0  0  0
 58 38  2  0  0  0  0
 47 40  1  0  0  0  0
 55 48  1  0  0  0  0
 93 56  1  0  0  0  0
  1110  1  0  0  0  0
  6111  1  0  0  0  0
  9112  1  0  0  0  0
 17113  1  0  0  0  0
 18114  1  0  0  0  0
 19115  1  0  0  0  0
 20116  1  0  0  0  0
 21117  1  0  0  0  0
 22118  1  0  0  0  0
 22119  1  0  0  0  0
 23120  1  0  0  0  0
 25121  1  0  0  0  0
 32122  1  0  0  0  0
 33123  1  0  0  0  0
 35124  1  0  0  0  0
 35125  1  0  0  0  0
 36126  1  0  0  0  0
 36127  1  0  0  0  0
 36128  1  0  0  0  0
 41129  1  0  0  0  0
 42130  1  0  0  0  0
 44131  1  0  0  0  0
 44132  1  0  0  0  0
 45133  1  0  0  0  0
 45134  1  0  0  0  0
 45135  1  0  0  0  0
 46136  1  0  0  0  0
 47137  1  0  0  0  0
 49138  1  0  0  0  0
 50139  1  0  0  0  0
 52140  1  0  0  0  0
 52141  1  0  0  0  0
 53142  1  0  0  0  0
 53143  1  0  0  0  0
 53144  1  0  0  0  0
 54145  1  0  0  0  0
 55146  1  0  0  0  0
 63147  1  0  0  0  0
 64148  1  0  0  0  0
 66149  1  0  0  0  0
 66150  1  0  0  0  0
 67151  1  0  0  0  0
 67152  1  0  0  0  0
 67153  1  0  0  0  0
 68154  1  0  0  0  0
 69155  1  0  0  0  0
 71156  1  0  0  0  0
 72157  1  0  0  0  0
 74158  1  0  0  0  0
 74159  1  0  0  0  0
 75160  1  0  0  0  0
 75161  1  0  0  0  0
 75162  1  0  0  0  0
 76163  1  0  0  0  0
 77164  1  0  0  0  0
 82165  1  0  0  0  0
 83166  1  0  0  0  0
 85167  1  0  0  0  0
 85168  1  0  0  0  0
 86169  1  0  0  0  0
 86170  1  0  0  0  0
 86171  1  0  0  0  0
 90172  1  0  0  0  0
 94173  1  0  0  0  0
102174  1  0  0  0  0
M  END
