133

C          6.42100        0.02070        2.83500
C          6.79110       -1.28900        2.64390
C          5.89300       -2.44470        2.60690
O          4.70020       -2.47110        2.86740
C          6.70810       -3.59400        2.18370
C          6.26340       -4.89160        1.94090
C          7.24720       -5.74490        1.50300
C          8.57600       -5.33830        1.32570
C          9.02930       -4.06400        1.57450
C          8.04350       -3.17690        2.01690
C          8.13230       -1.75580        2.35600
C          9.29470       -1.02950        2.40930
C         10.57350       -1.55040        2.12130
N         11.64530       -1.90010        1.90220
C          9.41280        0.32370        2.78810
N          9.61740        1.41180        3.09620
C          9.01070       -6.69830        0.83800
C          9.21180       -6.85010       -0.68490
C          9.15430       -8.34370       -0.91070
C          7.89620       -8.72950       -0.74100
C          7.08210       -7.50290       -0.39750
C          7.83200       -6.44950       -1.22310
C          7.52900       -7.15180        1.03770
C          5.14980        0.58710        2.98300
C          4.93750        1.98090        3.02040
C          5.99820        2.97400        3.15200
C          6.01700        4.09430        2.32330
C          7.02540        5.02920        2.43980
C          8.03170        4.88180        3.38730
C          9.11020        5.91410        3.53100
C          8.70430        6.97160        4.56000
C          7.99120        3.78100        4.23440
C          6.99230        2.83640        4.12050
C          3.58370        2.29370        2.90940
S          2.71160        3.81160        2.78830
C          1.23550        2.92020        2.63050
C         -0.11470        3.14440        2.32200
C         -0.80580        4.29930        1.88550
C         -2.11730        4.15380        1.31180
N         -2.59460        5.29800        0.85020
S         -1.50040        6.46030        1.12060
N         -0.36890        5.54660        1.83180
C         -2.74460        2.88700        1.34080
C         -3.99580        2.42880        0.89440
S         -5.33940        2.98430       -0.04390
C         -6.06670        1.40040        0.09860
C         -7.22950        0.83460       -0.44080
C         -8.17740        1.55250       -1.28860
C         -7.70900        2.32040       -2.35300
C         -8.59760        2.90580       -3.23490
C         -9.96830        2.74600       -3.07810
C        -10.92570        3.37110       -4.04880
C        -11.24110        4.81150       -3.64030
C        -10.43150        2.02700       -1.98050
C         -9.55220        1.43720       -1.09530
C         -7.36890       -0.50060       -0.05840
S         -6.08020       -1.01620        1.02580
C         -5.31380        0.51720        0.88420
C         -4.11970        1.09820        1.31400
N         -2.98860        0.70660        1.98240
C         -2.11260        1.77580        1.96280
C         -0.74170        1.86590        2.30150
N          0.20870        0.89830        2.54310
C          1.40780        1.53220        2.72560
C          2.74920        1.16620        2.86290
S          3.63530       -0.31090        2.92250
C          0.16110       -0.52670        2.29850
C          0.34050       -1.33960        3.57990
C         -3.05450       -0.35870        2.95990
C         -4.09150       -0.05250        4.04040
C         -8.33130       -1.47230       -0.40600
C         -9.12410       -1.56760       -1.51330
C        -10.35010       -2.40560       -1.45820
O        -10.64090       -3.21600       -0.60750
C        -11.15510       -1.98540       -2.62560
C        -12.43850       -2.35780       -2.97470
C        -13.02930       -1.79980       -4.10360
C        -14.41030       -2.16180       -4.54360
C        -12.28210       -0.87360       -4.83380
F        -12.85730       -0.30800       -5.91270
C        -10.98850       -0.49390       -4.51570
C        -10.41820       -1.06650       -3.39230
C         -9.09500       -0.90700       -2.79610
C         -7.98540       -0.43840       -3.44980
C         -6.68010       -0.54720       -2.93260
N         -5.59840       -0.65480       -2.56330
C         -8.01530        0.11910       -4.74310
N         -7.98840        0.58990       -5.78970
H          7.21510        0.75710        2.80350
H          5.22910       -5.15990        2.08940
H         10.05560       -3.77030        1.43240
H          9.78910       -7.18680        1.42080
H         10.07670       -6.32740       -1.08400
H         10.01570       -8.95390       -1.10950
H          7.49640       -9.72620       -0.76970
H          6.00650       -7.57510       -0.53530
H          7.74130       -6.62490       -2.29390
H          7.54780       -5.42330       -0.99750
H          7.31840       -7.94290        1.75510
H          5.25300        4.21280        1.56950
H          7.03670        5.88370        1.77830
H         10.03600        5.43380        3.85220
H          9.29030        6.39830        2.56930
H          8.53380        6.51040        5.53010
H          9.48600        7.72040        4.66380
H          7.78640        7.46750        4.25150
H          8.75850        3.65470        4.98280
H          6.96450        1.99690        4.80030
H         -6.64560        2.42480       -2.50880
H         -8.21870        3.47570       -4.07010
H        -11.85190        2.79350       -4.07950
H        -10.48630        3.36900       -5.04820
H        -10.33040        5.40530       -3.61510
H        -11.69220        4.83470       -2.65070
H        -11.93160        5.26280       -4.34830
H        -11.49570        1.91820       -1.82580
H         -9.92780        0.87930       -0.24950
H         -0.77390       -0.76700        1.79220
H          0.98340       -0.77390        1.61800
H         -0.34370       -1.01820        4.36240
H          0.16620       -2.39110        3.37120
H          1.35480       -1.23090        3.95300
H         -2.08410       -0.46220        3.43450
H         -3.31610       -1.29010        2.44790
H         -3.85960        0.89230        4.52770
H         -5.09060        0.00860        3.61830
H         -4.08150       -0.84220        4.78650
H         -8.49490       -2.25190        0.33370
H        -12.97360       -3.07500       -2.37130
H        -14.37330       -2.67000       -5.50700
H        -14.88840       -2.81420       -3.81890
H        -15.01390       -1.26470       -4.67400
H        -10.47730        0.23080       -5.12750
