184

C         -0.12250        2.46210       -8.22510
C         -0.61150        3.72910       -8.42500
C         -1.12030        4.63040       -7.38570
O         -1.20070        4.41800       -6.18740
C         -1.52740        5.86840       -8.07310
C         -2.05580        7.01690       -7.48800
C         -2.32650        8.02550       -8.38130
C         -2.08650        7.90010       -9.75560
C         -1.56670        6.77220      -10.34530
C         -1.28580        5.73210       -9.45430
C         -0.71740        4.40650       -9.70060
C         -0.34870        3.92420      -10.93190
C         -0.49650        4.62920      -12.14410
N         -0.58630        5.13340      -13.17240
C          0.23140        2.66520      -11.18990
N          0.71500        1.66830      -11.49690
C         -2.58460        9.29260      -10.05200
C         -3.99850        9.40570      -10.65980
C         -4.39170       10.84080      -10.39370
C         -4.61980       10.96170       -9.09220
C         -4.38530        9.61010       -8.45670
C         -4.85060        8.69740       -9.59870
C         -2.85340        9.43300       -8.51930
C          0.05000        1.73020       -7.04330
S         -0.32430        2.24410       -5.41840
C          0.25810        0.74630       -4.78120
C          0.28450        0.43290       -3.39100
C          0.92600       -0.82190       -3.07390
C          1.45260       -1.72100       -4.00970
C          1.26510       -1.49850       -5.49800
C          0.71910       -0.11650       -5.77530
C          0.59330        0.44390       -7.03580
C          2.57550       -1.59950       -6.26260
C          2.60750       -1.99110       -7.59580
C          3.79910       -2.01200       -8.29540
C          4.99050       -1.63560       -7.68940
C          6.27440       -1.62130       -8.46770
C          6.44520       -0.28480       -9.19250
C          4.95210       -1.22390       -6.36440
C          3.76180       -1.20060       -5.66100
C          0.24230       -2.55760       -5.90640
C         -1.11680       -2.28330       -5.82850
C         -2.05310       -3.25570       -6.12770
C         -1.66160       -4.53160       -6.50730
C         -2.67670       -5.60190       -6.78700
C         -2.97330       -6.40020       -5.51570
C         -0.30230       -4.80830       -6.56880
C          0.63670       -3.84010       -6.26840
C          2.08400       -2.86170       -3.52600
C          2.20360       -3.16860       -2.17260
C          1.67290       -2.32890       -1.19840
C          1.70110       -2.53890        0.25380
C          1.09720       -1.57380        1.10250
C          0.51590       -0.45510        0.53250
C         -0.12850        0.62350        1.14790
N         -0.54520        1.47690        0.13550
C         -0.15540        0.95640       -1.09080
C         -0.24890        1.30770       -2.43790
C          0.49690       -0.25390       -0.83110
C          1.05050       -1.16240       -1.71570
C         -1.17130        2.75860        0.33500
C         -0.13380        3.86970        0.49130
C         -0.21400        0.55400        2.53890
C          0.34900       -0.55240        3.18460
C          0.22810       -0.72850        4.59370
C          0.77170       -1.81050        5.28410
C          1.67850       -2.83700        4.64360
C          3.07460       -2.49160        5.16210
C          3.95320       -1.73210        4.40160
C          5.19280       -1.37590        4.90190
C          5.58840       -1.75940        6.17510
C          6.91580       -1.33450        6.73340
C          6.78020       -0.00550        7.47930
C          4.70070       -2.50480        6.94020
C          3.46200       -2.86250        6.44480
C          1.23810       -4.24380        5.01640
C          2.14870       -5.27800        5.19350
C          1.71260       -6.55780        5.48200
C          0.35880       -6.84510        5.59300
C         -0.10370       -8.22480        5.96260
C         -0.08890       -8.40330        7.48220
C         -0.54950       -5.81420        5.39480
C         -0.11770       -4.53430        5.10240
C          1.63630       -2.72710        3.13210
C          1.03260       -1.62860        2.50550
C          2.23590       -3.68430        2.32180
C          2.27140       -3.61210        0.93050
C          0.42140       -1.78890        6.62460
C         -0.38600       -0.71090        6.99210
S         -0.70420        0.31040        5.61340
C         -0.85900       -0.54060        8.29990
C         -1.68520        0.41880        8.82990
C         -2.29530        1.53190        8.09460
O         -2.13380        1.83080        6.92330
C         -3.16190        2.23740        9.05430
C         -3.96360        3.34670        8.79930
C         -4.67830        3.78210        9.88910
C         -4.59620        3.16180       11.14230
C         -3.80330        2.07040       11.40820
C         -3.07170        1.60710       10.31130
C         -2.14160        0.48270       10.20310
C         -1.77510       -0.33990       11.23910
C         -0.85760       -1.40780       11.16400
N         -0.12090       -2.28930       11.20310
C         -2.26360       -0.23200       12.55750
N         -2.61130       -0.21160       13.65220
C         -5.59000        4.10990       11.76540
C         -7.03380        3.59580       11.98860
C         -7.27100        2.52060       10.95740
C         -7.34890        3.10780        9.77080
C         -7.16540        4.59090        9.97830
C         -7.82280        4.75440       11.35790
C         -5.68130        4.80130       10.36860
H          0.20030        1.91900       -9.10490
H         -2.21660        7.07120       -6.42260
H         -1.38500        6.69790      -11.40410
H         -1.86590        9.96390      -10.51830
H         -4.08210        9.05650      -11.68520
H         -4.40750       11.60770      -11.14570
H         -4.86420       11.85020       -8.53990
H         -4.82370        9.44870       -7.47540
H         -5.91710        8.79470       -9.79510
H         -4.60040        7.64770       -9.45730
H         -2.31350       10.19820       -7.96420
H          0.88870       -0.04450       -7.94720
H          1.69670       -2.29240       -8.09310
H          3.80240       -2.32530       -9.32970
H          7.11890       -1.77640       -7.79310
H          6.27030       -2.42940       -9.20220
H          6.46730        0.53360       -8.47620
H          5.61690       -0.11670       -9.87710
H          7.37280       -0.27530       -9.76020
H          5.86500       -0.91560       -5.87470
H          3.75610       -0.86980       -4.63220
H         -1.45400       -1.30180       -5.52910
H         -3.10530       -3.01670       -6.06450
H         -3.60090       -5.15000       -7.15240
H         -2.29920       -6.27860       -7.55640
H         -3.36280       -5.74460       -4.74000
H         -3.70740       -7.17720       -5.71600
H         -2.06490       -6.86760       -5.14200
H          0.02780       -5.79640       -6.85710
H          1.68580       -4.08840       -6.33000
H          2.51010       -3.55250       -4.23840
H          2.71260       -4.07970       -1.89580
H         -0.70900        2.22380       -2.77850
H         -1.81390        2.96600       -0.52500
H         -1.79540        2.70120        1.23100
H          0.48740        3.93340       -0.39910
H         -0.62950        4.82480        0.64050
H          0.50590        3.67000        1.34800
H         -0.70310        1.30760        3.13860
H          3.67560       -1.41460        3.40740
H          5.86270       -0.78990        4.28850
H          7.28900       -2.09590        7.42130
H          7.63920       -1.22060        5.92340
H          7.74060        0.30330        7.88570
H          6.07090       -0.10230        8.29820
H          6.42110        0.77040        6.80670
H          4.98230       -2.81100        7.93760
H          2.79820       -3.44890        7.06200
H          3.20910       -5.08490        5.11520
H          2.43780       -7.34730        5.62050
H          0.55240       -8.96970        5.50700
H         -1.11690       -8.38830        5.59010
H         -0.74430       -7.67510        7.95470
H          0.91680       -8.25950        7.87070
H         -0.42630       -9.40130        7.75210
H         -1.60910       -6.01530        5.46520
H         -0.84460       -3.75140        4.93900
H          2.70540       -4.53460        2.79440
H          2.75980       -4.40780        0.38810
H          0.71340       -2.53710        7.33990
H         -0.51520       -1.31530        8.97460
H         -3.99450        3.79380        7.81790
H         -3.75280        1.60790       12.37950
H         -5.22600        4.70020       12.60400
H         -7.26520        3.33320       13.01740
H         -7.29880        1.47060       11.18280
H         -7.45450        2.64630        8.80640
H         -7.51740        5.23510        9.17660
H         -8.89620        4.57140       11.33750
H         -7.62280        5.71910       11.82240
H         -5.37670        5.84370       10.29520
