113

C          1.59590        3.68280        5.85870
C          2.65620        4.35020        5.29950
C          3.10000        4.26320        3.90590
O          2.57770        3.63650        2.99780
C          4.31980        5.08140        3.80640
C          5.11580        5.26930        2.67830
C          6.21200        6.06940        2.89420
C          6.49830        6.63780        4.14240
C          5.72100        6.46150        5.26260
C          4.59680        5.65430        5.06420
C          3.56040        5.23530        6.00700
C          3.47740        5.63190        7.31800
C          2.48050        5.24450        8.23710
N          1.70950        4.98330        9.04880
C          4.38530        6.50870        7.94800
N          5.07760        7.21610        8.53020
C          7.75100        7.31060        3.63940
C          7.65790        8.82520        3.35910
C          8.83470        9.09690        2.44990
C          8.56270        8.56130        1.26680
C          7.19720        7.91840        1.35630
C          6.51570        8.88200        2.33640
C          7.43060        6.67910        2.24640
C          0.68140        2.78060        5.30300
C         -0.32140        2.14780        6.05500
C         -0.61400        2.37610        7.50190
C         -1.52940        3.58880        7.68460
C         -1.08060        1.28430        5.27580
Se        -2.53210        0.13150        5.69100
C         -2.44000       -0.33220        3.89270
C         -3.05720       -1.21470        3.00370
C         -4.05200       -2.17990        3.26370
C         -4.45120       -3.04890        2.20570
N         -5.36120       -3.93290        2.58310
S         -5.68610       -3.68370        4.15310
N         -4.67540       -2.44000        4.40210
C         -3.88150       -2.86080        0.92970
C         -4.15500       -3.53940       -0.25970
Se        -5.21050       -4.94010       -0.85940
C         -4.45720       -4.57250       -2.56440
C         -4.56650       -5.17880       -3.82160
C         -5.49350       -6.29480       -4.16380
C         -6.82260       -6.25080       -3.41930
C         -3.75880       -4.53860       -4.76620
S         -2.92390       -3.14200       -4.08700
C         -3.56710       -3.48260       -2.52720
C         -3.39040       -2.92530       -1.25700
N         -2.65880       -1.90180       -0.71390
C         -2.91680       -1.84870        0.64390
C         -2.44500       -1.04560        1.72430
N         -1.45260       -0.09420        1.86970
C         -1.45110        0.34160        3.16700
C         -0.68680        1.23650        3.92780
S          0.65200        2.27860        3.61420
C         -0.46990        0.44750        0.96070
C         -0.91350        1.79360        0.38820
C         -1.85200       -1.08100       -1.58530
C         -0.50100       -1.73150       -1.88490
C         -3.57160       -4.75800       -6.13940
C         -3.57350       -5.96220       -6.80380
C         -3.27560       -7.26130       -6.17680
O         -3.11930       -7.50760       -4.99850
C         -3.06880       -8.20230       -7.30390
C         -2.73620       -9.53980       -7.25150
C         -2.57050      -10.20880       -8.45990
C         -2.23680      -11.67520       -8.47290
F         -1.32380      -11.98410       -9.40800
F         -3.31860      -12.43170       -8.74390
F         -1.75270      -12.11460       -7.30490
C         -2.73390       -9.55220       -9.67540
C         -3.06490       -8.20540       -9.71940
C         -3.23440       -7.52540       -8.52340
C         -3.57670       -6.13140       -8.23810
C         -3.93000       -5.18520       -9.16540
C         -4.36830       -3.88320       -8.84320
N         -4.75770       -2.82060       -8.64940
C         -3.93560       -5.40410      -10.55810
N         -3.95110       -5.52340      -11.69970
H          1.43130        3.85630        6.91320
H          4.86320        4.80400        1.73820
H          5.96150        6.90050        6.21610
H          8.67440        7.02630        4.14020
H          7.56940        9.44740        4.24530
H          9.73720        9.58570        2.76680
H          9.19270        8.51310        0.39810
H          6.68940        7.71610        0.41700
H          5.56060        8.52560        2.71770
H          6.39060        9.87780        1.91430
H          8.14190        5.97540        1.81770
H          0.30150        2.52100        8.07690
H         -1.12240        1.48540        7.88540
H         -1.75630        3.72430        8.73810
H         -1.04830        4.49230        7.31760
H         -2.46040        3.44210        7.14060
H         -5.67380       -6.27720       -5.24210
H         -4.98150       -7.23750       -3.94180
H         -7.50430       -6.97960       -3.85040
H         -7.27660       -5.26470       -3.49490
H         -6.69380       -6.49720       -2.36490
H         -0.25040       -0.27500        0.18050
H          0.44910        0.60270        1.53440
H         -1.89900        1.72860       -0.06990
H         -0.19750        2.13210       -0.35510
H         -0.95820        2.53550        1.18090
H         -2.40250       -0.96940       -2.52530
H         -1.73980       -0.09000       -1.15460
H         -0.64390       -2.63810       -2.46680
H          0.02270       -2.00160       -0.96990
H          0.11850       -1.04900       -2.45960
H         -3.33270       -3.87030       -6.71510
H         -2.60740      -10.03920       -6.30370
H         -2.59340      -10.09910      -10.59530
H         -3.17740       -7.71420      -10.67170
