188

C          4.08410        4.54550        6.55980
C          4.05820        4.20870        7.88720
C          3.27880        3.11720        8.48630
O          2.45980        2.40040        7.93790
C          3.68410        3.04680        9.89950
C          3.24190        2.13250       10.85240
C          3.81460        2.29510       12.09070
C          4.75570        3.29710       12.36230
C          5.19430        4.21020       11.43280
C          4.62700        4.06050       10.16410
C          4.85120        4.82190        8.93600
C          5.65250        5.92940        8.82730
C          5.84840        6.69660        7.65980
N          6.06210        7.38250        6.76290
C          6.39710        6.48570        9.88860
N          7.03270        6.99560       10.69780
C          4.92580        2.85980       13.79540
C          6.19570        2.04820       14.15310
C          6.62430        1.34240       12.89060
C          5.73280        0.39440       12.63410
C          4.68510        0.44230       13.71870
C          5.55060        0.87750       14.91190
C          3.87630        1.74400       13.49310
C          3.39490        3.99640        5.46670
C          3.62980        4.43090        4.16020
C          2.87280        3.74100        3.23390
S          2.74920        3.78880        1.49420
C          1.57900        2.51390        1.56820
C          0.84420        1.75460        0.60670
C          0.81910        1.82200       -0.78450
C          0.02450        0.91590       -1.44450
C         -0.20080        0.76170       -2.94520
C          1.12680        0.63290       -3.65400
C          1.59040       -0.61680       -4.03870
C          2.78870       -0.75820       -4.71100
C          3.57910        0.34640       -4.99430
C          4.83570        0.19640       -5.80120
C          4.50430        0.21000       -7.29510
C          3.14840        1.59000       -4.55050
C          1.94510        1.73420       -3.88400
C         -1.08800        1.91310       -3.42560
C         -0.82650        2.64550       -4.57180
C         -1.68550        3.65120       -4.97820
C         -2.83940        3.94230       -4.26880
C         -3.75410        5.05140       -4.70020
C         -3.36850        6.36250       -4.01250
C         -3.10180        3.20610       -3.12070
C         -2.24100        2.21060       -2.70470
C         -1.07880       -0.47360       -2.98690
C         -1.43370       -0.82260       -1.68320
C         -0.74550       -0.02530       -0.72280
C         -0.73850       -0.08080        0.66880
C          0.07530        0.80970        1.32720
C          0.28820        0.96200        2.82290
C          0.92840       -0.23930        3.49450
C          1.55060       -1.24390        2.76890
C          2.16510       -2.29760        3.42250
C          2.18220       -2.36770        4.80830
C          2.88860       -3.48730        5.51690
C          4.33060       -3.08850        5.83710
C          1.57300       -1.34760        5.52880
C          0.95360       -0.29630        4.88310
C         -1.04370        1.31320        3.46110
C         -1.92040        0.30100        3.83120
C         -3.15220        0.60560        4.37730
C         -3.54370        1.92530        4.56420
C         -4.86040        2.25090        5.20810
C         -4.71200        2.29660        6.73020
C         -2.66690        2.93230        4.18590
C         -1.43430        2.63290        3.63490
C          1.28580        2.08800        2.85270
C          2.02580        2.77270        3.81430
S          2.19110        2.71360        5.52590
S         -2.59900       -2.08720       -1.56660
C         -2.61210       -2.17100       -3.28960
C         -3.30380       -2.91560       -4.26040
C         -2.88860       -2.50410       -5.53330
C         -1.73710       -1.52750       -5.41590
C         -1.73000       -1.27550       -3.92050
C         -0.56240       -2.40440       -5.86050
C          0.01550       -3.31510       -4.98350
C          1.03470       -4.14880       -5.40030
C          1.49450       -4.11510       -6.70970
C          2.64550       -4.97700       -7.14040
C          3.97660       -4.29510       -6.81540
C          0.87740       -3.24480       -7.59660
C         -0.14900       -2.41400       -7.18540
C         -1.90220       -0.25500       -6.21060
C         -3.17480        0.25740       -6.42740
C         -3.35410        1.40080       -7.18130
C         -2.26980        2.05550       -7.74990
C         -2.47580        3.24550       -8.64180
C         -2.70480        2.79560      -10.08620
C         -0.99790        1.55680       -7.50560
C         -0.81020        0.43020       -6.72600
C         -3.52870       -3.17900       -6.55240
C         -4.41930       -4.14210       -6.08030
S         -4.48150       -4.15370       -4.31770
C         -5.23650       -4.96720       -6.86860
C         -5.88630       -6.11960       -6.51650
C         -7.06970       -6.56310       -7.28660
O         -7.44570       -6.13800       -8.35460
C         -7.71360       -7.59450       -6.43550
C         -6.90550       -7.84300       -5.30940
C         -7.31070       -8.74760       -4.34340
C         -8.52250       -9.40070       -4.51580
C         -9.31050       -9.16520       -5.63160
Br       -10.94560      -10.09560       -5.81300
C         -8.91900       -8.25230       -6.61770
Cl        -9.89250       -7.95970       -7.99530
C         -5.69010       -7.03720       -5.42330
C         -4.49870       -7.32060       -4.80230
C         -4.34560       -8.30400       -3.80650
N         -4.17120       -9.08180       -2.97990
C         -3.27280       -6.72850       -5.17040
N         -2.24770       -6.31170       -5.47730
H          4.75630        5.34530        6.27270
H          2.51540        1.37620       10.59920
H          5.91970        4.97310       11.65990
H          4.67980        3.60040       14.55360
H          6.96420        2.61750       14.66900
H          7.47370        1.63340       12.30080
H          5.68850       -0.26460       11.78670
H          4.07810       -0.45120       13.83990
H          6.27300        0.11800       15.20710
H          4.96970        1.18950       15.77870
H          2.94360        1.75610       14.05370
H          4.33290        5.20960        3.92490
H          1.41530        2.55470       -1.30400
H          1.00890       -1.49530       -3.81690
H          3.10620       -1.74310       -5.02120
H          5.32440       -0.74770       -5.55130
H          5.52660        1.01080       -5.57580
H          4.04560        1.15690       -7.57200
H          3.80560       -0.58950       -7.53350
H          5.40590        0.07470       -7.88790
H          3.76150        2.46180       -4.73140
H          1.64100        2.71630       -3.55390
H          0.04760        2.43630       -5.16510
H         -1.45370        4.21210       -5.87160
H         -3.69130        5.18040       -5.78250
H         -4.78540        4.80060       -4.44380
H         -3.43280        6.25570       -2.93200
H         -4.03260        7.16580       -4.32280
H         -2.34750        6.63650       -4.26820
H         -3.99340        3.41170       -2.54540
H         -2.47530        1.65930       -1.80560
H         -1.33930       -0.80570        1.19600
H          1.55680       -1.20870        1.68900
H          2.63880       -3.07710        2.84250
H          2.36670       -3.72320        6.44660
H          2.89200       -4.38110        4.88990
H          4.84220       -3.89370        6.35950
H          4.87370       -2.86790        4.92080
H          4.34570       -2.20030        6.46490
H          1.58310       -1.37410        6.60860
H          0.48230        0.48460        5.46130
H         -1.63040       -0.73210        3.70500
H         -3.82070       -0.19420        4.66270
H         -5.21820        3.21900        4.85200
H         -5.60050        1.49350        4.94150
H         -4.36870        1.33520        7.10550
H         -5.66440        2.53330        7.19890
H         -3.98530        3.05360        7.01640
H         -2.95130        3.96620        4.32120
H         -0.77330        3.43580        3.34260
H         -0.33630       -3.39110       -3.96460
H          1.47030       -4.84450       -4.69800
H          2.58890       -5.16210       -8.21470
H          2.59890       -5.93810       -6.62480
H          4.81030       -4.91530       -7.13630
H          4.06470       -4.12680       -5.74390
H          4.04470       -3.33470       -7.32250
H          1.19220       -3.22310       -8.63040
H         -0.62860       -1.77040       -7.90750
H         -4.03330       -0.24720       -6.00740
H         -4.35180        1.78470       -7.33820
H         -1.59960        3.89610       -8.60490
H         -3.34290        3.81580       -8.30190
H         -2.85610        3.65560      -10.73440
H         -1.84570        2.23480      -10.44750
H         -3.58170        2.15520      -10.14800
H         -0.13790        2.06220       -7.92240
H          0.19110        0.07890       -6.52310
H         -3.35490       -3.02510       -7.60200
H         -5.44520       -4.60600       -7.87120
H         -6.71620       -8.94300       -3.46620
H         -8.86320      -10.10630       -3.77370
