107

C         -3.25160        5.68050       -2.78780
C         -4.37240        5.42650       -2.05780
C         -5.15970        6.55020       -1.48680
O         -5.08840        7.71810       -1.79860
C         -5.98490        5.94250       -0.42330
C         -6.79340        6.60240        0.49920
C         -7.41290        5.76870        1.39930
C         -7.24570        4.37710        1.38680
C         -6.46230        3.71000        0.47540
C         -5.82230        4.54080       -0.44660
C         -4.94860        4.19560       -1.56400
C         -4.90400        2.97890       -2.19530
C         -4.28620        2.78440       -3.44840
N         -3.83790        2.59510       -4.48870
C         -5.51730        1.80760       -1.71280
N         -5.96080        0.81060       -1.35430
C         -8.14120        4.17840        2.58360
C         -7.46790        3.90310        3.95100
C         -6.09870        4.53370        3.89050
C         -6.25850        5.85030        3.90130
C         -7.73860        6.13380        3.96980
C         -8.20440        4.93830        4.81620
C         -8.32950        5.72810        2.59660
C         -2.15250        4.82810       -3.03600
C         -1.16570        4.99040       -3.99870
C         -1.11360        6.08280       -5.01540
C         -0.17330        7.19680       -4.55050
C         -0.19150        3.98910       -3.91820
Se         1.36340        3.61460       -4.93190
C          1.54910        2.14840       -3.80240
C          2.38900        1.03940       -3.62960
C          3.49720        0.60380       -4.38640
C          4.12500       -0.63310       -4.03490
N          5.11710       -0.95080       -4.85100
S          5.24930        0.21530       -5.96970
N          4.04530        1.16920       -5.45020
C          3.69160       -1.31030       -2.87490
C          4.22950       -2.42900       -2.23130
Se         5.58910       -3.67140       -2.49010
C          5.03300       -4.35960       -0.81010
C          5.48210       -5.42270       -0.03710
C          6.58180       -6.32740       -0.48850
C          6.01360       -7.55140       -1.21030
C          4.74010       -5.55390        1.14760
S          3.48960       -4.31900        1.27870
C          3.95880       -3.65400       -0.24110
C          3.51800       -2.58760       -1.03460
N          2.55140       -1.62030       -0.93490
C          2.62150       -0.82940       -2.06700
C          1.88380        0.29280       -2.52890
N          0.73480        0.91820       -2.07250
C          0.54270        2.04200       -2.83600
C         -0.41190        3.06090       -2.89350
S         -1.83180        3.44150       -1.99610
C         -0.42110        0.33830       -1.42120
C         -1.41580       -0.20720       -2.44530
C          1.91800       -1.36910        0.34270
C          2.21100        0.03190        0.86820
C          4.97330       -6.55940        2.09210
C          4.34600       -6.84910        3.27710
C          3.22160       -6.10900        3.87980
O          2.66160       -5.11710        3.44630
C          2.93370       -6.82420        5.11720
S          1.82320       -6.67070        6.40660
C          2.51130       -8.05790        7.16580
C          3.54290       -8.61600        6.46980
C          3.79110       -7.90330        5.28110
C          4.69740       -7.95670        4.14830
C          5.67810       -8.90210        3.98670
C          6.57800       -8.98930        2.90740
N          7.34250       -9.11940        2.05920
C          5.88140       -9.92370        4.93780
N          6.06380      -10.76500        5.69680
H         -3.15310        6.70130       -3.14250
H         -6.89860        7.67580        0.47690
H         -6.33490        2.63960        0.47330
H         -9.02100        3.55870        2.42240
H         -7.50480        2.86530        4.27130
H         -5.18610        3.97580        3.79070
H         -5.50590        6.61190        3.81230
H         -8.02180        7.12720        4.30780
H         -7.83100        4.97510        5.83850
H         -9.28550        4.80690        4.82380
H         -9.33300        6.12050        2.44450
H         -0.73210        5.66040       -5.94950
H         -2.10990        6.48330       -5.20010
H         -0.11880        7.97800       -5.30370
H         -0.52740        7.63430       -3.61980
H          0.82740        6.79930       -4.38870
H          7.21400       -5.76620       -1.18410
H          7.19960       -6.65190        0.34980
H          5.42510       -7.23990       -2.07090
H          6.82450       -8.18830       -1.55180
H          5.37800       -8.13030       -0.54440
H         -0.11160       -0.46570       -0.76360
H         -0.89450        1.12260       -0.82250
H         -0.95080       -0.98660       -3.04540
H         -2.27670       -0.62670       -1.93200
H         -1.76440        0.57910       -3.11040
H          0.84170       -1.55870        0.28990
H          2.32630       -2.10290        1.04120
H          1.82050        0.80040        0.20730
H          3.28500        0.17410        0.96410
H          1.75700        0.15200        1.84780
H          5.78750       -7.21850        1.82140
H          2.10650       -8.38900        8.10200
H          4.08390       -9.48380        6.79850
