130

C         -3.18410       -1.22590        6.49730
C         -3.53760       -2.48030        6.09730
C         -4.60370       -3.22790        6.81250
O         -5.08120       -2.95790        7.89220
C         -4.99270       -4.32050        5.89660
C         -6.03900       -5.22620        6.05680
C         -6.16930       -6.12190        5.02230
C         -5.32230       -6.12240        3.90570
C         -4.28080       -5.24180        3.73680
C         -4.13310       -4.32270        4.77770
C         -3.12720       -3.28220        4.96600
C         -1.89190       -3.25780        4.36900
C         -1.50800       -4.07660        3.29090
N         -1.14590       -4.67980        2.38280
C         -0.83630       -2.43350        4.81080
N          0.06460       -1.81510        5.16510
C         -6.03980       -7.28080        3.26050
C         -7.00920       -6.97060        2.09330
C         -7.49470       -5.55790        2.30300
C         -8.29660       -5.55800        3.35950
C         -8.36810       -6.97100        3.88310
C         -8.24380       -7.75430        2.56630
C         -6.98350       -7.28170        4.50430
C         -2.53660       -0.23430        5.72670
C         -1.73850        0.81280        6.17970
C         -1.47370        1.12160        7.58410
C         -2.51110        1.32200        8.49080
C         -2.23330        1.62890        9.80810
C         -0.92180        1.73420       10.25600
C         -0.62500        2.10150       11.68040
C         -0.50160        3.62010       11.82370
C          0.10910        1.54260        9.34400
C         -0.15780        1.24590        8.02250
C         -1.13490        1.49250        5.10960
S          0.03090        2.79390        5.02360
C          0.03060        2.66000        3.29810
C          0.72430        3.16580        2.18250
C          1.85060        4.01080        2.04260
C          2.49050        4.12610        0.75530
N          3.58220        4.87190        0.80360
S          3.78750        5.39290        2.32160
N          2.49200        4.68460        2.98330
C          1.89050        3.52070       -0.37350
C          2.19980        3.49280       -1.74560
S          3.48560        3.94530       -2.81120
C          2.60510        3.23770       -4.14530
C          2.91400        3.05260       -5.50230
C          4.14760        3.52570       -6.12490
C          5.36590        3.33800       -5.47400
C          6.54620        3.73700       -6.07030
C          6.54610        4.34200       -7.32010
C          7.83530        4.72720       -7.98240
C          8.30220        3.61850       -8.92780
C          5.32560        4.54840       -7.95650
C          4.14100        4.15000       -7.37070
C          1.88290        2.39330       -6.16870
S          0.50940        2.06990       -5.11440
C          1.35620        2.72870       -3.76960
C          1.13610        2.85260       -2.39630
N          0.19080        2.46040       -1.48310
C          0.66450        2.81870       -0.23730
C          0.18740        2.50030        1.04980
N         -0.76720        1.58400        1.45180
C         -0.85390        1.68450        2.81820
C         -1.51620        1.02070        3.84900
S         -2.63630       -0.28020        3.96620
C         -1.04910        0.30460        0.82620
C         -0.06170       -0.76520        1.29170
C         -1.19990        2.30860       -1.85840
C         -1.73190        3.57620       -2.52670
C          1.76590        1.94480       -7.50370
C          2.71700        1.55610       -8.39750
C          2.35940        1.49610       -9.84610
O          1.25100        1.58500      -10.32330
C          3.64600        1.35250      -10.53930
C          4.66030        1.24450       -9.59470
S          6.22630        1.00510      -10.27460
C          5.53230        1.07020      -11.86560
C          6.05940        0.95880      -13.16520
C          5.07630        1.05990      -14.09920
S          3.49370        1.28970      -13.43790
C          4.14370        1.25490      -11.84440
C          4.12950        1.25960       -8.25960
C          4.82010        0.85430       -7.14270
C          4.21870        0.54400       -5.91150
N          3.75510        0.22120       -4.91180
C          6.20830        0.62850       -7.19640
N          7.34540        0.47380       -7.23420
H         -3.48340       -0.95200        7.50250
H         -6.66790       -5.19790        6.93280
H         -3.63590       -5.24470        2.87320
H         -5.43890       -8.16890        3.07560
H         -6.61630       -7.20210        1.10680
H         -7.16950       -4.71930        1.71540
H         -8.77500       -4.71940        3.83080
H         -9.21360       -7.20270        4.52540
H         -8.05410       -8.81710        2.70980
H         -9.10450       -7.61910        1.91290
H         -7.00000       -8.17170        5.13020
H         -3.53690        1.26590        8.15590
H         -3.04730        1.78680       10.50100
H         -1.42460        1.74190       12.33080
H          0.30970        1.63380       11.99570
H         -0.28310        3.88790       12.85470
H         -1.42930        4.10480       11.52760
H          0.29780        3.99610       11.18930
H          1.13450        1.62380        9.67450
H          0.65150        1.08210        7.32760
H          5.38710        2.85220       -4.51000
H          7.48200        3.57080       -5.55790
H          8.59980        4.89630       -7.22250
H          7.70180        5.65210       -8.54780
H          8.38470        2.67420       -8.39400
H          7.59160        3.49100       -9.74150
H          9.27180        3.86650       -9.35250
H          5.30410        5.03450       -8.92170
H          3.20120        4.33220       -7.87190
H         -0.97660        0.39610       -0.25460
H         -2.06980        0.01850        1.09780
H          0.94990       -0.49550        0.99660
H         -0.08510       -0.88030        2.37240
H         -0.31470       -1.72020        0.83970
H         -1.29240        1.46160       -2.54600
H         -1.78730        2.12090       -0.96030
H         -2.78950        3.45530       -2.74370
H         -1.21000        3.77460       -3.45840
H         -1.60590        4.43090       -1.86540
H          0.75170        1.91550       -7.89490
H          7.09930        0.81120      -13.38910
H          5.18430        1.01140      -15.16470
