116

C         -3.12760       -2.28800        6.65240
C         -4.36660       -2.57860        6.13940
C         -4.74840       -2.55060        4.72540
O         -4.04980       -2.24370        3.77250
C         -6.15920       -2.96540        4.66700
C         -6.94750       -3.09880        3.52600
C         -8.23480       -3.50620        3.78120
C         -8.70290       -3.76500        5.07620
C         -7.93470       -3.63940        6.20960
C         -6.62110       -3.22240        5.97370
C         -5.52600       -2.97920        6.91220
C         -5.61130       -3.10500        8.27600
C         -4.56980       -2.86380        9.19560
N         -3.78190       -2.68170       10.01260
C         -6.77390       -3.49710        8.97230
N         -7.67760       -3.80530        9.61030
C        -10.08450       -4.12750        4.59110
C        -11.18350       -3.06040        4.77880
C        -12.26330       -3.47870        3.80700
C        -11.82030       -3.23200        2.58080
C        -10.43340       -2.64290        2.70310
C        -10.59150       -1.86730        4.01730
C         -9.56270       -3.83770        3.14700
C         -1.94240       -1.89160        6.02220
C         -0.74960       -1.64900        6.72440
C         -0.54530       -1.83480        8.19240
C         -0.25340       -3.30250        8.51700
C          0.27270       -1.26440        5.86690
S          1.95360       -0.84880        6.15010
C          2.14010       -0.58540        4.45240
C          3.15240       -0.27160        3.53630
C          4.54930       -0.12610        3.72030
C          5.38630       -0.01410        2.55410
N          6.68010        0.04070        2.80140
Se         6.92620       -0.03690        4.54610
N          5.19630       -0.14920        4.86860
C          4.76620        0.08230        1.28440
C          5.31420        0.29330        0.01140
S          6.86410        0.43180       -0.74140
C          6.05870        0.71110       -2.27660
C          6.53800        0.93240       -3.55850
C          7.99440        1.02490       -3.87590
C          8.45390        2.48560       -3.90160
C          5.48380        1.10720       -4.47670
S          3.90010        0.99120       -3.70390
C          4.65440        0.69910       -2.18420
C          4.24080        0.45080       -0.87470
N          3.05180        0.32090       -0.20290
C          3.34990        0.06980        1.12310
C          2.54510       -0.25000        2.24690
N          1.21730       -0.59470        2.38290
C          0.96700       -0.79390        3.71390
C         -0.10650       -1.19340        4.51560
S         -1.75940       -1.62680        4.28810
C          0.25350       -1.02600        1.39490
C         -0.90090       -0.03450        1.24680
C          1.87810        0.93670       -0.78590
C          1.98520        2.46050       -0.73930
C          5.69550        1.31960       -5.83960
C          4.80810        1.51730       -6.87290
C          3.35120        1.60370       -6.75770
O          2.67410        1.48290       -5.75160
C          2.84860        1.87400       -8.12020
C          1.55130        2.05710       -8.54440
C          1.32880        2.30800       -9.89990
C         -0.07240        2.51270      -10.35170
O         -1.03220        2.45260       -9.62440
O         -0.15620        2.77750      -11.66210
C         -1.46560        2.99080      -12.16800
C          2.40130        2.36420      -10.78820
C          3.70640        2.17700      -10.35690
C          3.93570        1.93130       -9.01150
C          5.17170        1.69950       -8.26160
C          6.42800        1.64940       -8.81270
C          6.70150        1.83300      -10.18420
N          7.00270        1.97100      -11.28360
C          7.62720        1.40330       -8.11300
N          8.64670        1.20210       -7.62150
H         -3.02770       -2.37690        7.72530
H         -6.54410       -2.89350        2.54680
H         -8.31110       -3.84790        7.19680
H        -10.42250       -5.13370        4.83110
H        -11.48810       -2.89710        5.80890
H        -13.18480       -3.94680        4.09920
H        -12.29760       -3.45290        1.64410
H        -10.05520       -2.09850        1.84190
H         -9.65470       -1.49780        4.43040
H        -11.29910       -1.04480        3.92710
H         -9.55440       -4.65050        2.42310
H         -1.41870       -1.50570        8.75720
H          0.30850       -1.22630        8.49700
H          0.63800       -3.63600        7.99070
H         -0.09310       -3.41840        9.58490
H         -1.08780       -3.93530        8.22330
H          8.54680        0.49200       -3.09970
H          8.21830        0.55810       -4.83630
H          9.51590        2.53290       -4.12460
H          8.27780        2.95430       -2.93630
H          7.91630        3.04590       -4.66300
H          0.77070       -1.20420        0.45110
H         -0.15730       -1.98390        1.73220
H         -0.54170        0.98380        1.11400
H         -1.52690       -0.05800        2.13420
H         -1.51340       -0.30890        0.39270
H          0.98440        0.62840       -0.25860
H          1.81410        0.60390       -1.82580
H          2.07710        2.80320        0.28960
H          1.09560        2.90170       -1.17940
H          2.85150        2.80260       -1.29920
H          6.74180        1.32720       -6.11240
H          0.72090        2.01190       -7.85640
H         -1.94810        3.81330      -11.63610
H         -1.34910        3.23100      -13.22150
H         -2.07130        2.09090      -12.04360
H          2.20710        2.55780      -11.83130
H          4.51480        2.22730      -11.06760
