
  xtb     02012222193D
 energy: -232.012387305405 gnorm: 0.000590977114 xtb: 6.4.1 (unknown)
136152  0     0  0            999 V2000
   -5.4758   -2.0503   -4.2370 C   0  0  0  0  0  0  0  0  0  0  0  0
   -5.1012   -1.4470   -5.4081 C   0  0  0  0  0  0  0  0  0  0  0  0
   -3.7805   -0.8869   -5.7070 C   0  0  0  0  0  0  0  0  0  0  0  0
   -2.8429   -0.7488   -4.9382 O   0  0  0  0  0  0  0  0  0  0  0  0
   -3.7977   -0.5358   -7.1373 C   0  0  0  0  0  0  0  0  0  0  0  0
   -2.7443   -0.0202   -7.8895 C   0  0  0  0  0  0  0  0  0  0  0  0
   -3.0499    0.1833   -9.2139 C   0  0  0  0  0  0  0  0  0  0  0  0
   -4.3096   -0.1085   -9.7534 C   0  0  0  0  0  0  0  0  0  0  0  0
   -5.3582   -0.6150   -9.0226 C   0  0  0  0  0  0  0  0  0  0  0  0
   -5.0711   -0.8245   -7.6706 C   0  0  0  0  0  0  0  0  0  0  0  0
   -5.9197   -1.3415   -6.5984 C   0  0  0  0  0  0  0  0  0  0  0  0
   -7.2601   -1.6142   -6.6990 C   0  0  0  0  0  0  0  0  0  0  0  0
   -8.0117   -1.4813   -7.8850 C   0  0  0  0  0  0  0  0  0  0  0  0
   -8.6832   -1.3994   -8.8130 N   0  0  0  0  0  0  0  0  0  0  0  0
   -8.0973   -2.0218   -5.6385 C   0  0  0  0  0  0  0  0  0  0  0  0
   -8.8563   -2.3309   -4.8328 N   0  0  0  0  0  0  0  0  0  0  0  0
   -3.9075    0.3319  -11.1390 C   0  0  0  0  0  0  0  0  0  0  0  0
   -4.4150    1.7148  -11.5991 C   0  0  0  0  0  0  0  0  0  0  0  0
   -3.4960    2.0738  -12.7444 C   0  0  0  0  0  0  0  0  0  0  0  0
   -2.3039    2.3529  -12.2331 C   0  0  0  0  0  0  0  0  0  0  0  0
   -2.3969    2.1871  -10.7333 C   0  0  0  0  0  0  0  0  0  0  0  0
   -3.8477    2.6322  -10.5081 C   0  0  0  0  0  0  0  0  0  0  0  0
   -2.5035    0.6599  -10.5369 C   0  0  0  0  0  0  0  0  0  0  0  0
   -4.7853   -2.1977   -3.0277 C   0  0  0  0  0  0  0  0  0  0  0  0
   -5.3510   -2.8844   -1.9416 C   0  0  0  0  0  0  0  0  0  0  0  0
   -6.6396   -3.5883   -2.0272 C   0  0  0  0  0  0  0  0  0  0  0  0
   -6.7094   -4.7498   -2.7912 C   0  0  0  0  0  0  0  0  0  0  0  0
   -7.8987   -5.4416   -2.9107 C   0  0  0  0  0  0  0  0  0  0  0  0
   -9.0316   -4.9689   -2.2718 C   0  0  0  0  0  0  0  0  0  0  0  0
   -8.9657   -3.8119   -1.5185 C   0  0  0  0  0  0  0  0  0  0  0  0
   -7.7784   -3.1062   -1.3799 C   0  0  0  0  0  0  0  0  0  0  0  0
   -7.7605   -1.8065   -0.6273 C   0  0  0  0  0  0  0  0  0  0  0  0
   -7.8998   -0.6293   -1.5955 C   0  0  0  0  0  0  0  0  0  0  0  0
   -4.5250   -2.8458   -0.8249 C   0  0  0  0  0  0  0  0  0  0  0  0
   -4.6658   -3.5418    0.7780 S   0  0  0  0  0  0  0  0  0  0  0  0
   -3.1155   -2.8761    1.1614 C   0  0  0  0  0  0  0  0  0  0  0  0
   -2.1990   -2.8709    2.2217 C   0  0  0  0  0  0  0  0  0  0  0  0
   -2.2055   -3.5641    3.4525 C   0  0  0  0  0  0  0  0  0  0  0  0
   -1.0431   -3.4993    4.2892 C   0  0  0  0  0  0  0  0  0  0  0  0
   -1.1579   -4.2466    5.3756 N   0  0  0  0  0  0  0  0  0  0  0  0
   -2.6084   -4.9669    5.3501 S   0  0  0  0  0  0  0  0  0  0  0  0
   -3.1436   -4.3532    3.9515 N   0  0  0  0  0  0  0  0  0  0  0  0
    0.0131   -2.6377    3.9197 C   0  0  0  0  0  0  0  0  0  0  0  0
    1.1744   -2.2621    4.6080 C   0  0  0  0  0  0  0  0  0  0  0  0
    2.0013   -2.6425    6.0781 S   0  0  0  0  0  0  0  0  0  0  0  0
    3.1688   -1.3931    5.7125 C   0  0  0  0  0  0  0  0  0  0  0  0
    4.3096   -0.9389    6.3777 C   0  0  0  0  0  0  0  0  0  0  0  0
    4.8384   -1.4865    7.6388 C   0  0  0  0  0  0  0  0  0  0  0  0
    4.2697   -1.1677    8.8716 C   0  0  0  0  0  0  0  0  0  0  0  0
    3.0870   -0.2472    8.9898 C   0  0  0  0  0  0  0  0  0  0  0  0
    1.8257   -1.0086    9.3995 C   0  0  0  0  0  0  0  0  0  0  0  0
    4.8292   -1.7169   10.0192 C   0  0  0  0  0  0  0  0  0  0  0  0
    5.9185   -2.5644    9.9535 C   0  0  0  0  0  0  0  0  0  0  0  0
    6.4800   -2.8730    8.7258 C   0  0  0  0  0  0  0  0  0  0  0  0
    5.9443   -2.3294    7.5749 C   0  0  0  0  0  0  0  0  0  0  0  0
    4.9403    0.0837    5.6715 C   0  0  0  0  0  0  0  0  0  0  0  0
    4.0984    0.4804    4.1770 S   0  0  0  0  0  0  0  0  0  0  0  0
    2.9160   -0.7345    4.4975 C   0  0  0  0  0  0  0  0  0  0  0  0
    1.7797   -1.2431    3.8628 C   0  0  0  0  0  0  0  0  0  0  0  0
    1.0499   -0.9978    2.7305 N   0  0  0  0  0  0  0  0  0  0  0  0
   -0.0301   -1.8598    2.7257 C   0  0  0  0  0  0  0  0  0  0  0  0
   -1.0869   -2.0826    1.8038 C   0  0  0  0  0  0  0  0  0  0  0  0
   -1.3145   -1.6570    0.5051 N   0  0  0  0  0  0  0  0  0  0  0  0
   -2.5344   -2.1484    0.1166 C   0  0  0  0  0  0  0  0  0  0  0  0
   -3.3307   -2.1336   -1.0335 C   0  0  0  0  0  0  0  0  0  0  0  0
   -3.2111   -1.5140   -2.6407 S   0  0  0  0  0  0  0  0  0  0  0  0
   -0.3631   -1.3025   -0.5270 C   0  0  0  0  0  0  0  0  0  0  0  0
    0.4797   -2.5117   -0.9265 C   0  0  0  0  0  0  0  0  0  0  0  0
    1.2954    0.2067    1.9692 C   0  0  0  0  0  0  0  0  0  0  0  0
    2.4873    0.0621    1.0247 C   0  0  0  0  0  0  0  0  0  0  0  0
    6.1060    0.7552    6.0759 C   0  0  0  0  0  0  0  0  0  0  0  0
    6.7549    1.7582    5.4290 C   0  0  0  0  0  0  0  0  0  0  0  0
    6.2954    2.4958    3.9093 S   0  0  0  0  0  0  0  0  0  0  0  0
    7.6776    3.5714    3.9744 C   0  0  0  0  0  0  0  0  0  0  0  0
    7.8978    4.4617    2.9544 C   0  0  0  0  0  0  0  0  0  0  0  0
    6.9772    4.5168    1.8881 C   0  0  0  0  0  0  0  0  0  0  0  0
    6.2248    4.5595    1.0229 N   0  0  0  0  0  0  0  0  0  0  0  0
    8.9940    5.3297    2.8255 C   0  0  0  0  0  0  0  0  0  0  0  0
    9.8761    6.0413    2.6397 N   0  0  0  0  0  0  0  0  0  0  0  0
    8.4198    3.3658    5.0911 N   0  0  0  0  0  0  0  0  0  0  0  0
    9.5448    4.1871    5.4878 C   0  0  0  0  0  0  0  0  0  0  0  0
    9.1318    5.5865    5.8754 C   0  0  0  0  0  0  0  0  0  0  0  0
    7.8965    5.8297    6.4605 C   0  0  0  0  0  0  0  0  0  0  0  0
    7.5349    7.1157    6.8216 C   0  0  0  0  0  0  0  0  0  0  0  0
    8.4083    8.1678    6.6093 C   0  0  0  0  0  0  0  0  0  0  0  0
    9.6468    7.9285    6.0382 C   0  0  0  0  0  0  0  0  0  0  0  0
   10.0069    6.6450    5.6712 C   0  0  0  0  0  0  0  0  0  0  0  0
    7.9658    2.3716    5.9540 C   0  0  0  0  0  0  0  0  0  0  0  0
    8.5302    2.0824    6.9855 O   0  0  0  0  0  0  0  0  0  0  0  0
   -6.4583   -2.5073   -4.2145 H   0  0  0  0  0  0  0  0  0  0  0  0
   -1.7864    0.1821   -7.4365 H   0  0  0  0  0  0  0  0  0  0  0  0
   -6.3185   -0.8423   -9.4541 H   0  0  0  0  0  0  0  0  0  0  0  0
   -3.9769   -0.4270  -11.9160 H   0  0  0  0  0  0  0  0  0  0  0  0
   -5.4828    1.7663  -11.7928 H   0  0  0  0  0  0  0  0  0  0  0  0
   -3.7832    2.0349  -13.7788 H   0  0  0  0  0  0  0  0  0  0  0  0
   -1.3962    2.5936  -12.7548 H   0  0  0  0  0  0  0  0  0  0  0  0
   -1.6261    2.6705  -10.1389 H   0  0  0  0  0  0  0  0  0  0  0  0
   -4.2270    2.4216   -9.5099 H   0  0  0  0  0  0  0  0  0  0  0  0
   -3.9953    3.6858  -10.7389 H   0  0  0  0  0  0  0  0  0  0  0  0
   -1.6362    0.1209  -10.9140 H   0  0  0  0  0  0  0  0  0  0  0  0
   -5.8176   -5.1075   -3.2873 H   0  0  0  0  0  0  0  0  0  0  0  0
   -7.9411   -6.3416   -3.5055 H   0  0  0  0  0  0  0  0  0  0  0  0
   -9.9678   -5.4976   -2.3677 H   0  0  0  0  0  0  0  0  0  0  0  0
   -9.8551   -3.4388   -1.0321 H   0  0  0  0  0  0  0  0  0  0  0  0
   -8.5923   -1.7888    0.0788 H   0  0  0  0  0  0  0  0  0  0  0  0
   -6.8341   -1.7028   -0.0602 H   0  0  0  0  0  0  0  0  0  0  0  0
   -7.9931    0.3047   -1.0460 H   0  0  0  0  0  0  0  0  0  0  0  0
   -8.7801   -0.7591   -2.2207 H   0  0  0  0  0  0  0  0  0  0  0  0
   -7.0304   -0.5609   -2.2459 H   0  0  0  0  0  0  0  0  0  0  0  0
    2.9116    0.2624    8.0406 H   0  0  0  0  0  0  0  0  0  0  0  0
    3.3039    0.5136    9.7442 H   0  0  0  0  0  0  0  0  0  0  0  0
    0.9822   -0.3263    9.4741 H   0  0  0  0  0  0  0  0  0  0  0  0
    1.9660   -1.4914   10.3633 H   0  0  0  0  0  0  0  0  0  0  0  0
    1.5883   -1.7753    8.6662 H   0  0  0  0  0  0  0  0  0  0  0  0
    4.4048   -1.4644   10.9801 H   0  0  0  0  0  0  0  0  0  0  0  0
    6.3354   -2.9786   10.8593 H   0  0  0  0  0  0  0  0  0  0  0  0
    7.3351   -3.5288    8.6651 H   0  0  0  0  0  0  0  0  0  0  0  0
    6.3763   -2.5584    6.6112 H   0  0  0  0  0  0  0  0  0  0  0  0
   -0.9449   -0.9611   -1.3866 H   0  0  0  0  0  0  0  0  0  0  0  0
    0.2766   -0.4847   -0.2112 H   0  0  0  0  0  0  0  0  0  0  0  0
    1.0450   -2.8853   -0.0746 H   0  0  0  0  0  0  0  0  0  0  0  0
    1.1710   -2.2353   -1.7176 H   0  0  0  0  0  0  0  0  0  0  0  0
   -0.1603   -3.3118   -1.2910 H   0  0  0  0  0  0  0  0  0  0  0  0
    0.3808    0.4839    1.4439 H   0  0  0  0  0  0  0  0  0  0  0  0
    1.5163    1.0072    2.6844 H   0  0  0  0  0  0  0  0  0  0  0  0
    2.5933    0.9629    0.4270 H   0  0  0  0  0  0  0  0  0  0  0  0
    2.3733   -0.7920    0.3632 H   0  0  0  0  0  0  0  0  0  0  0  0
    3.4007   -0.0726    1.5977 H   0  0  0  0  0  0  0  0  0  0  0  0
    6.5458    0.4348    7.0135 H   0  0  0  0  0  0  0  0  0  0  0  0
   10.2875    4.2142    4.6862 H   0  0  0  0  0  0  0  0  0  0  0  0
    9.9797    3.6765    6.3567 H   0  0  0  0  0  0  0  0  0  0  0  0
    7.2104    5.0138    6.6443 H   0  0  0  0  0  0  0  0  0  0  0  0
    6.5690    7.2926    7.2717 H   0  0  0  0  0  0  0  0  0  0  0  0
    8.1247    9.1711    6.8896 H   0  0  0  0  0  0  0  0  0  0  0  0
   10.3333    8.7444    5.8713 H   0  0  0  0  0  0  0  0  0  0  0  0
   10.9671    6.4631    5.2133 H   0  0  0  0  0  0  0  0  0  0  0  0
  1  2  2  0  0  0  0
  2  3  1  0  0  0  0
  3  4  2  0  0  0  0
  3  5  1  0  0  0  0
  5  6  2  0  0  0  0
  6  7  1  0  0  0  0
  7  8  2  0  0  0  0
  8  9  1  0  0  0  0
  9 10  2  0  0  0  0
 10 11  1  0  0  0  0
 11 12  2  0  0  0  0
 12 13  1  0  0  0  0
 13 14  3  0  0  0  0
 12 15  1  0  0  0  0
 15 16  3  0  0  0  0
  8 17  1  0  0  0  0
 17 18  1  0  0  0  0
 18 19  1  0  0  0  0
 19 20  2  0  0  0  0
 20 21  1  0  0  0  0
 21 22  1  0  0  0  0
 21 23  1  0  0  0  0
  1 24  1  0  0  0  0
 24 25  2  0  0  0  0
 25 26  1  0  0  0  0
 26 27  2  0  0  0  0
 27 28  1  0  0  0  0
 28 29  2  0  0  0  0
 29 30  1  0  0  0  0
 30 31  2  0  0  0  0
 31 32  1  0  0  0  0
 32 33  1  0  0  0  0
 25 34  1  0  0  0  0
 34 35  1  0  0  0  0
 35 36  1  0  0  0  0
 36 37  1  0  0  0  0
 37 38  1  0  0  0  0
 38 39  1  0  0  0  0
 39 40  2  0  0  0  0
 40 41  1  0  0  0  0
 41 42  1  0  0  0  0
 39 43  1  0  0  0  0
 43 44  1  0  0  0  0
 44 45  1  0  0  0  0
 45 46  1  0  0  0  0
 46 47  1  0  0  0  0
 47 48  1  0  0  0  0
 48 49  2  0  0  0  0
 49 50  1  0  0  0  0
 50 51  1  0  0  0  0
 49 52  1  0  0  0  0
 52 53  2  0  0  0  0
 53 54  1  0  0  0  0
 54 55  2  0  0  0  0
 47 56  2  0  0  0  0
 56 57  1  0  0  0  0
 57 58  1  0  0  0  0
 58 59  1  0  0  0  0
 59 60  1  0  0  0  0
 60 61  1  0  0  0  0
 61 62  1  0  0  0  0
 62 63  1  0  0  0  0
 63 64  1  0  0  0  0
 64 65  1  0  0  0  0
 65 66  1  0  0  0  0
 63 67  1  0  0  0  0
 67 68  1  0  0  0  0
 60 69  1  0  0  0  0
 69 70  1  0  0  0  0
 56 71  1  0  0  0  0
 71 72  2  0  0  0  0
 72 73  1  0  0  0  0
 73 74  1  0  0  0  0
 74 75  2  0  0  0  0
 75 76  1  0  0  0  0
 76 77  3  0  0  0  0
 75 78  1  0  0  0  0
 78 79  3  0  0  0  0
 74 80  1  0  0  0  0
 80 81  1  0  0  0  0
 81 82  1  0  0  0  0
 82 83  2  0  0  0  0
 83 84  1  0  0  0  0
 84 85  2  0  0  0  0
 85 86  1  0  0  0  0
 86 87  2  0  0  0  0
 80 88  1  0  0  0  0
 88 89  2  0  0  0  0
 11  2  1  0  0  0  0
 23 17  1  0  0  0  0
 66 24  1  0  0  0  0
 88 72  1  0  0  0  0
 10  5  1  0  0  0  0
 22 18  1  0  0  0  0
 31 26  1  0  0  0  0
 65 34  2  0  0  0  0
 87 82  1  0  0  0  0
 23  7  1  0  0  0  0
 64 36  2  0  0  0  0
 62 37  2  0  0  0  0
 42 38  2  0  0  0  0
 61 43  2  0  0  0  0
 59 44  2  0  0  0  0
 58 46  2  0  0  0  0
 55 48  1  0  0  0  0
  1 90  1  0  0  0  0
  6 91  1  0  0  0  0
  9 92  1  0  0  0  0
 17 93  1  0  0  0  0
 18 94  1  0  0  0  0
 19 95  1  0  0  0  0
 20 96  1  0  0  0  0
 21 97  1  0  0  0  0
 22 98  1  0  0  0  0
 22 99  1  0  0  0  0
 23100  1  0  0  0  0
 27101  1  0  0  0  0
 28102  1  0  0  0  0
 29103  1  0  0  0  0
 30104  1  0  0  0  0
 32105  1  0  0  0  0
 32106  1  0  0  0  0
 33107  1  0  0  0  0
 33108  1  0  0  0  0
 33109  1  0  0  0  0
 50110  1  0  0  0  0
 50111  1  0  0  0  0
 51112  1  0  0  0  0
 51113  1  0  0  0  0
 51114  1  0  0  0  0
 52115  1  0  0  0  0
 53116  1  0  0  0  0
 54117  1  0  0  0  0
 55118  1  0  0  0  0
 67119  1  0  0  0  0
 67120  1  0  0  0  0
 68121  1  0  0  0  0
 68122  1  0  0  0  0
 68123  1  0  0  0  0
 69124  1  0  0  0  0
 69125  1  0  0  0  0
 70126  1  0  0  0  0
 70127  1  0  0  0  0
 70128  1  0  0  0  0
 71129  1  0  0  0  0
 81130  1  0  0  0  0
 81131  1  0  0  0  0
 83132  1  0  0  0  0
 84133  1  0  0  0  0
 85134  1  0  0  0  0
 86135  1  0  0  0  0
 87136  1  0  0  0  0
M  END
