113

C          6.02650       -2.03800        2.34800
C          6.17780       -0.94790        3.16840
C          5.28110        0.20720        3.24950
O          4.24160        0.38680        2.63520
C          5.88270        1.13360        4.22270
C          5.38820        2.37560        4.61530
C          6.16680        3.01740        5.54810
C          7.35270        2.46600        6.05020
C          7.85440        1.24470        5.66680
C          7.07510        0.57150        4.72100
C          7.27680       -0.73190        4.08820
C          8.31860       -1.58510        4.35320
C          9.36110       -1.31640        5.26460
N         10.23860       -1.17200        5.99110
C          8.51410       -2.85630        3.77510
N          8.74340       -3.90420        3.36200
C          7.61280        3.64460        6.95490
C          7.29040        3.44800        8.45150
C          7.18000        4.85800        8.98530
C          6.05820        5.38290        8.50920
C          5.39140        4.33630        7.64580
C          5.80500        3.06750        8.40270
C          6.29100        4.26060        6.39390
C          5.01490       -2.37160        1.44080
C          5.02960       -3.55480        0.68270
C          6.07130       -4.62350        0.74740
C          5.79580       -5.58220        1.90920
C          3.89990       -3.65770       -0.11810
S          3.36640       -4.88930       -1.24920
C          1.95090       -3.94570       -1.55330
C          0.77960       -4.01020       -2.31600
C          0.35110       -5.02480       -3.20340
C         -0.92030       -4.86870       -3.84860
N         -1.26360       -5.85440       -4.65470
Se         0.02450       -7.05970       -4.64690
N          1.00020       -6.13200       -3.50720
C         -1.66890       -3.69980       -3.57680
C         -2.91590       -3.31680       -4.08300
S         -4.12950       -3.91580       -5.15720
C         -5.06340       -2.46150       -4.85430
C         -6.29120       -2.02530       -5.33630
C         -7.13150       -2.84280       -6.26190
C         -8.15030       -3.67490       -5.47830
C         -6.63800       -0.77640       -4.79690
S         -5.40340       -0.15940       -3.69870
C         -4.44710       -1.57040       -3.95990
C         -3.21660       -2.07170       -3.52250
N         -2.20980       -1.68610       -2.67990
C         -1.22880       -2.66200       -2.69810
C          0.02280       -2.83030       -2.03520
N          0.74830       -2.07410       -1.13210
C          1.89750       -2.75150       -0.82810
C          3.01120       -2.57560       -0.00030
S          3.57900       -1.39590        1.12190
C          0.44010       -0.88730       -0.36880
C         -0.43220       -1.21760        0.84140
C         -2.26070       -0.35220       -2.12810
C         -1.48050        0.63630       -2.99340
C         -7.83460       -0.11730       -5.10460
C         -8.34160        1.07860       -4.66940
C         -7.71240        2.02030       -3.72360
O         -6.63210        1.90330       -3.16990
C         -8.65720        3.13150       -3.59150
C         -9.75760        2.88440       -4.38780
S        -10.95030        4.12360       -4.32670
C         -9.95230        5.02000       -3.19580
C        -10.26360        6.24690       -2.63160
C         -9.35730        6.81520       -1.75900
C         -8.15640        6.17410       -1.44830
C         -7.83960        4.95530       -2.00280
C         -8.73950        4.36000       -2.88930
C         -9.62130        1.62920       -5.08370
C        -10.55280        1.11790       -5.95320
C        -11.74840        1.81420       -6.22850
N        -12.72610        2.36690       -6.46390
C        -10.45060       -0.09890       -6.65220
N        -10.42870       -1.08040       -7.24970
H          6.81240       -2.77900        2.39810
H          4.47190        2.76370        4.19880
H          8.77230        0.84100        6.05920
H          8.54800        4.17520        6.78730
H          7.96320        2.77630        8.97740
H          7.93190        5.33150        9.58890
H          5.68590        6.38260        8.63540
H          4.33350        4.47440        7.43900
H          5.60070        2.14330        7.86520
H          5.36050        3.01720        9.39530
H          6.34520        5.20210        5.85030
H          6.04300       -5.18290       -0.18990
H          7.06820       -4.19550        0.86040
H          6.55560       -6.35780        1.93340
H          4.82080       -6.04930        1.79090
H          5.81640       -5.05270        2.85870
H         -7.65540       -2.21040       -6.97990
H         -6.47300       -3.51550       -6.81500
H         -8.81500       -3.03120       -4.90680
H         -8.74990       -4.26500       -6.16530
H         -7.64100       -4.34680       -4.79140
H         -0.01050       -0.13100       -1.00630
H          1.39410       -0.48710       -0.01500
H         -1.34910       -1.72290        0.54340
H         -0.68500       -0.30710        1.37750
H          0.11140       -1.87380        1.51680
H         -1.91890       -0.35350       -1.09620
H         -3.31360       -0.05770       -2.12020
H         -0.44980        0.31470       -3.13080
H         -1.48820        1.62050       -2.53340
H         -1.94450        0.71190       -3.97380
H         -8.45480       -0.66210       -5.80410
H        -11.19240        6.73960       -2.87310
H         -9.58090        7.77080       -1.30980
H         -7.46920        6.64620       -0.76270
H         -6.91580        4.44770       -1.77330
