109

C         -1.04670        2.42780       -5.38940
C         -2.17280        2.35590       -6.16640
C         -3.54360        2.07760       -5.71550
O         -3.96380        2.06460       -4.57400
C         -4.32800        1.80900       -6.93460
C         -5.65510        1.39140       -6.99980
C         -6.10870        1.17170       -8.27830
C         -5.30270        1.35680       -9.40950
C         -3.99390        1.77440       -9.35900
C         -3.51110        2.00230       -8.06640
C         -2.18130        2.40840       -7.61600
C         -1.15030        2.79540       -8.43510
C         -1.23090        2.86180       -9.84160
N         -1.22020        2.94270      -10.98710
C          0.12810        3.20770       -8.00710
N          1.19320        3.55180       -7.74380
C         -6.39810        0.93630      -10.35780
C         -7.12820        2.06370      -11.11730
C         -8.41630        1.41620      -11.57230
C         -9.17990        1.24050      -10.50150
C         -8.42100        1.76650       -9.30450
C         -7.65830        2.92350       -9.96260
C         -7.29680        0.73000       -9.09630
C         -0.86870        2.30040       -4.00270
S         -2.19530        2.22360       -2.84330
C         -1.05450        2.02240       -1.59030
C         -1.05640        1.74510       -0.21850
C         -2.14210        1.52210        0.65500
C         -1.87150        1.00750        1.96240
N         -2.97500        0.77270        2.65570
S         -4.24710        1.17720        1.73810
N         -3.43800        1.65790        0.42290
C         -0.52770        0.83370        2.35730
C          0.00210        0.33230        3.55150
S         -0.55130       -0.35180        5.03950
C          1.12430       -0.55170        5.52550
C          1.70520       -1.12130        6.64520
C          0.89460       -1.63650        7.79100
C          0.82920       -0.60520        8.92090
C          3.11470       -1.11110        6.56150
S          3.67890       -0.34530        5.07560
C          2.05010       -0.08270        4.57450
C          1.39320        0.42090        3.44900
N          1.74880        0.95800        2.23480
C          0.57590        1.19560        1.52370
C          0.29990        1.56900        0.17820
N          1.09360        1.73000       -0.94360
C          0.28220        1.99730       -2.02800
C          0.40490        2.18320       -3.40890
C          1.66710        2.18610       -4.21950
C          1.94200        0.80910       -4.83280
C          2.50910        1.49770       -1.07590
C          3.30910        2.80050       -0.99900
C          3.02850        1.64090        2.20680
C          2.90230        3.04820        2.78800
C          3.91740       -1.70090        7.53720
C          5.28300       -1.91190        7.65860
C          6.22040       -1.42170        6.65760
O          5.87460       -0.73320        5.69890
N          7.54680       -1.74010        6.79800
C          8.46430       -1.27390        5.76370
C          8.48890       -2.23470        4.58190
C          8.08870       -2.50340        7.82770
O          9.27220       -2.76730        7.84850
C          7.13170       -2.92670        8.84640
C          5.79430       -2.64820        8.77630
C          4.88290       -3.13200        9.86350
C          7.67690       -3.66430        9.91890
N          8.11210       -4.26480       10.79410
H         -0.12290        2.54550       -5.93780
H         -6.23650        1.25260       -6.10180
H         -3.38430        1.89990      -10.23810
H         -6.17570        0.07520      -10.98530
H         -6.53280        2.55880      -11.87930
H         -8.60960        1.11110      -12.58390
H        -10.13840        0.75930      -10.43990
H         -9.00400        1.99110       -8.41540
H         -6.87930        3.35420       -9.33630
H         -8.32480        3.71160      -10.30870
H         -7.67300       -0.26890       -8.88290
H          1.30280       -2.57610        8.16780
H         -0.11700       -1.83100        7.42950
H          1.82460       -0.36980        9.29110
H          0.37200        0.31330        8.56180
H          0.23200       -0.98970        9.74360
H          1.59710        2.92330       -5.02130
H          2.51280        2.47760       -3.60030
H          1.13170        0.51630       -5.49560
H          2.86420        0.83650       -5.40750
H          2.03440        0.04790       -4.06000
H          2.68270        1.01990       -2.04250
H          2.81610        0.78140       -0.31210
H          3.06020        3.44700       -1.83690
H          3.08240        3.35050       -0.08980
H          4.37510        2.58950       -1.03060
H          3.44150        1.68970        1.20710
H          3.70890        1.04910        2.82450
H          2.19050        3.63900        2.21390
H          2.55690        3.00270        3.81800
H          3.86900        3.54340        2.76890
H          3.33060       -2.10740        8.34930
H          9.45310       -1.20890        6.22060
H          8.12890       -0.28530        5.44450
H          9.18650       -1.87350        3.83150
H          8.80740       -3.22190        4.90870
H          7.49960       -2.30700        4.13560
H          4.33950       -2.30080       10.31150
H          5.45810       -3.62510       10.64280
H          4.16130       -3.84790        9.47020
