
  xtb     02022219523D
 energy: -220.748801311162 gnorm: 0.000495974309 xtb: 6.4.1 (unknown)
140158  0     0  0            999 V2000
    6.6250   -3.6419    7.8281 C   0  0  0  0  0  0  0  0  0  0  0  0
    7.2694   -4.8194    8.0996 C   0  0  0  0  0  0  0  0  0  0  0  0
    7.7156   -5.8698    7.1575 C   0  0  0  0  0  0  0  0  0  0  0  0
    7.8565   -5.8057    5.9522 O   0  0  0  0  0  0  0  0  0  0  0  0
    7.9567   -7.0700    7.9820 C   0  0  0  0  0  0  0  0  0  0  0  0
    8.2818   -8.3439    7.5218 C   0  0  0  0  0  0  0  0  0  0  0  0
    8.4024   -9.2840    8.5163 C   0  0  0  0  0  0  0  0  0  0  0  0
    8.2183   -8.9793    9.8717 C   0  0  0  0  0  0  0  0  0  0  0  0
    7.9125   -7.7240   10.3404 C   0  0  0  0  0  0  0  0  0  0  0  0
    7.7818   -6.7538    9.3429 C   0  0  0  0  0  0  0  0  0  0  0  0
    7.4498   -5.3361    9.4458 C   0  0  0  0  0  0  0  0  0  0  0  0
    7.3964   -4.6174   10.6118 C   0  0  0  0  0  0  0  0  0  0  0  0
    7.1862   -3.2252   10.7081 C   0  0  0  0  0  0  0  0  0  0  0  0
    7.0446   -2.0981   10.8797 N   0  0  0  0  0  0  0  0  0  0  0  0
    7.6030   -5.1662   11.8945 C   0  0  0  0  0  0  0  0  0  0  0  0
    7.7541   -5.5421   12.9691 N   0  0  0  0  0  0  0  0  0  0  0  0
    8.4565  -10.4033   10.3066 C   0  0  0  0  0  0  0  0  0  0  0  0
    7.2193  -11.2567   10.6814 C   0  0  0  0  0  0  0  0  0  0  0  0
    6.0535  -10.6855    9.9132 C   0  0  0  0  0  0  0  0  0  0  0  0
    6.2319  -10.9753    8.6313 C   0  0  0  0  0  0  0  0  0  0  0  0
    7.5223  -11.7476    8.5096 C   0  0  0  0  0  0  0  0  0  0  0  0
    7.5065  -12.5124    9.8427 C   0  0  0  0  0  0  0  0  0  0  0  0
    8.6655  -10.7426    8.7971 C   0  0  0  0  0  0  0  0  0  0  0  0
    6.3113   -3.0199    6.6068 C   0  0  0  0  0  0  0  0  0  0  0  0
    5.1493   -1.6897    6.6905 S   0  0  0  0  0  0  0  0  0  0  0  0
    5.2054   -1.5177    4.9940 C   0  0  0  0  0  0  0  0  0  0  0  0
    4.5313   -0.7366    4.0044 C   0  0  0  0  0  0  0  0  0  0  0  0
    5.0310   -1.1460    2.7465 C   0  0  0  0  0  0  0  0  0  0  0  0
    6.0951   -2.2176    2.9037 C   0  0  0  0  0  0  0  0  0  0  0  0
    6.0966   -2.4052    4.3968 C   0  0  0  0  0  0  0  0  0  0  0  0
    6.7218   -3.2493    5.2977 C   0  0  0  0  0  0  0  0  0  0  0  0
    7.4587   -1.7234    2.4100 C   0  0  0  0  0  0  0  0  0  0  0  0
    5.7003   -3.5116    2.1868 C   0  0  0  0  0  0  0  0  0  0  0  0
    4.5218   -0.6110    1.5859 C   0  0  0  0  0  0  0  0  0  0  0  0
    3.4929    0.3198    1.6993 C   0  0  0  0  0  0  0  0  0  0  0  0
    2.7056    0.9621    0.6672 C   0  0  0  0  0  0  0  0  0  0  0  0
    1.7215    1.7558    1.2829 C   0  0  0  0  0  0  0  0  0  0  0  0
    1.8708    1.7150    2.7870 C   0  0  0  0  0  0  0  0  0  0  0  0
    2.2617    3.0930    3.3332 C   0  0  0  0  0  0  0  0  0  0  0  0
    0.5929    1.2141    3.4654 C   0  0  0  0  0  0  0  0  0  0  0  0
    3.0043    0.7289    2.9542 C   0  0  0  0  0  0  0  0  0  0  0  0
    3.5236    0.2163    4.1210 C   0  0  0  0  0  0  0  0  0  0  0  0
    0.7690    2.4128    0.5359 C   0  0  0  0  0  0  0  0  0  0  0  0
    0.8132    2.2556   -0.8455 C   0  0  0  0  0  0  0  0  0  0  0  0
   -0.1006    2.7250   -1.8669 C   0  0  0  0  0  0  0  0  0  0  0  0
    0.3490    2.2597   -3.1169 C   0  0  0  0  0  0  0  0  0  0  0  0
    1.6378    1.4853   -2.9635 C   0  0  0  0  0  0  0  0  0  0  0  0
    1.8196    1.4913   -1.4628 C   0  0  0  0  0  0  0  0  0  0  0  0
    2.7767    0.8408   -0.7165 C   0  0  0  0  0  0  0  0  0  0  0  0
    2.7956    2.2154   -3.6542 C   0  0  0  0  0  0  0  0  0  0  0  0
    1.5025    0.0612   -3.5088 C   0  0  0  0  0  0  0  0  0  0  0  0
   -0.3726    2.4932   -4.2651 C   0  0  0  0  0  0  0  0  0  0  0  0
   -1.5713    3.1876   -4.1327 C   0  0  0  0  0  0  0  0  0  0  0  0
   -2.5835    3.5052   -5.0905 C   0  0  0  0  0  0  0  0  0  0  0  0
   -3.6501    4.1606   -4.4805 C   0  0  0  0  0  0  0  0  0  0  0  0
   -3.3664    4.3623   -3.0161 C   0  0  0  0  0  0  0  0  0  0  0  0
   -2.0222    3.6688   -2.8818 C   0  0  0  0  0  0  0  0  0  0  0  0
   -1.2834    3.4487   -1.7421 C   0  0  0  0  0  0  0  0  0  0  0  0
   -4.4359    3.6915   -2.1500 C   0  0  0  0  0  0  0  0  0  0  0  0
   -3.2566    5.8525   -2.6772 C   0  0  0  0  0  0  0  0  0  0  0  0
   -4.7007    4.4237   -5.3415 C   0  0  0  0  0  0  0  0  0  0  0  0
   -4.4535    3.9642   -6.6314 C   0  0  0  0  0  0  0  0  0  0  0  0
   -2.8506    3.2262   -6.7520 S   0  0  0  0  0  0  0  0  0  0  0  0
   -5.2230    3.9535   -7.8077 C   0  0  0  0  0  0  0  0  0  0  0  0
   -6.5456    4.2349   -8.0267 C   0  0  0  0  0  0  0  0  0  0  0  0
   -7.6048    4.5420   -7.0409 C   0  0  0  0  0  0  0  0  0  0  0  0
   -7.4944    4.8604   -5.8731 O   0  0  0  0  0  0  0  0  0  0  0  0
   -8.8826    4.3773   -7.7609 C   0  0  0  0  0  0  0  0  0  0  0  0
  -10.1615    4.4561   -7.2131 C   0  0  0  0  0  0  0  0  0  0  0  0
  -11.1710    4.2177   -8.1139 C   0  0  0  0  0  0  0  0  0  0  0  0
  -10.9278    3.9180   -9.4611 C   0  0  0  0  0  0  0  0  0  0  0  0
   -9.6723    3.8441  -10.0155 C   0  0  0  0  0  0  0  0  0  0  0  0
   -8.6303    4.0909   -9.1159 C   0  0  0  0  0  0  0  0  0  0  0  0
   -7.1851    4.0947   -9.3244 C   0  0  0  0  0  0  0  0  0  0  0  0
   -6.5636    4.0486  -10.5456 C   0  0  0  0  0  0  0  0  0  0  0  0
   -7.2407    3.9353  -11.7777 C   0  0  0  0  0  0  0  0  0  0  0  0
   -7.7243    3.8418  -12.8151 N   0  0  0  0  0  0  0  0  0  0  0  0
   -5.1745    4.1618  -10.7666 C   0  0  0  0  0  0  0  0  0  0  0  0
   -4.0634    4.2696  -11.0382 N   0  0  0  0  0  0  0  0  0  0  0  0
  -12.3962    3.7772   -9.7777 C   0  0  0  0  0  0  0  0  0  0  0  0
  -13.0599    4.9561  -10.5201 C   0  0  0  0  0  0  0  0  0  0  0  0
  -14.5366    4.7596  -10.2632 C   0  0  0  0  0  0  0  0  0  0  0  0
  -14.7663    5.0479   -8.9885 C   0  0  0  0  0  0  0  0  0  0  0  0
  -13.4487    5.4439   -8.3623 C   0  0  0  0  0  0  0  0  0  0  0  0
  -12.7784    6.1223   -9.5639 C   0  0  0  0  0  0  0  0  0  0  0  0
  -12.6673    4.1156   -8.2766 C   0  0  0  0  0  0  0  0  0  0  0  0
    6.2238   -3.1150    8.6869 H   0  0  0  0  0  0  0  0  0  0  0  0
    8.4112   -8.5360    6.4680 H   0  0  0  0  0  0  0  0  0  0  0  0
    7.7702   -7.5060   11.3857 H   0  0  0  0  0  0  0  0  0  0  0  0
    9.2910  -10.5627   10.9865 H   0  0  0  0  0  0  0  0  0  0  0  0
    7.0704  -11.3905   11.7495 H   0  0  0  0  0  0  0  0  0  0  0  0
    5.2722  -10.0982   10.3593 H   0  0  0  0  0  0  0  0  0  0  0  0
    5.6298  -10.6783    7.7925 H   0  0  0  0  0  0  0  0  0  0  0  0
    7.6498  -12.3292    7.6003 H   0  0  0  0  0  0  0  0  0  0  0  0
    6.7048  -13.2474    9.8968 H   0  0  0  0  0  0  0  0  0  0  0  0
    8.4572  -12.9865   10.0827 H   0  0  0  0  0  0  0  0  0  0  0  0
    9.6385  -11.1217    8.4903 H   0  0  0  0  0  0  0  0  0  0  0  0
    7.4330   -4.0139    5.0480 H   0  0  0  0  0  0  0  0  0  0  0  0
    8.2184   -2.4774    2.6008 H   0  0  0  0  0  0  0  0  0  0  0  0
    7.4223   -1.5238    1.3419 H   0  0  0  0  0  0  0  0  0  0  0  0
    7.7383   -0.8071    2.9255 H   0  0  0  0  0  0  0  0  0  0  0  0
    5.6715   -3.3552    1.1114 H   0  0  0  0  0  0  0  0  0  0  0  0
    4.7176   -3.8412    2.5172 H   0  0  0  0  0  0  0  0  0  0  0  0
    6.4220   -4.2937    2.4089 H   0  0  0  0  0  0  0  0  0  0  0  0
    4.8858   -0.9174    0.6169 H   0  0  0  0  0  0  0  0  0  0  0  0
    3.1696    3.4463    2.8489 H   0  0  0  0  0  0  0  0  0  0  0  0
    2.4382    3.0373    4.4046 H   0  0  0  0  0  0  0  0  0  0  0  0
    1.4668    3.8112    3.1468 H   0  0  0  0  0  0  0  0  0  0  0  0
    0.7420    1.1320    4.5391 H   0  0  0  0  0  0  0  0  0  0  0  0
    0.3187    0.2358    3.0761 H   0  0  0  0  0  0  0  0  0  0  0  0
   -0.2275    1.9034    3.2819 H   0  0  0  0  0  0  0  0  0  0  0  0
    3.1591    0.5108    5.0936 H   0  0  0  0  0  0  0  0  0  0  0  0
    0.0001    3.0114    1.0008 H   0  0  0  0  0  0  0  0  0  0  0  0
    3.5433    0.2392   -1.1811 H   0  0  0  0  0  0  0  0  0  0  0  0
    2.8880    3.2272   -3.2650 H   0  0  0  0  0  0  0  0  0  0  0  0
    2.6208    2.2697   -4.7260 H   0  0  0  0  0  0  0  0  0  0  0  0
    3.7308    1.6892   -3.4785 H   0  0  0  0  0  0  0  0  0  0  0  0
    1.3047    0.0825   -4.5776 H   0  0  0  0  0  0  0  0  0  0  0  0
    0.6833   -0.4554   -3.0132 H   0  0  0  0  0  0  0  0  0  0  0  0
    2.4195   -0.4974   -3.3380 H   0  0  0  0  0  0  0  0  0  0  0  0
   -0.0498    2.1380   -5.2321 H   0  0  0  0  0  0  0  0  0  0  0  0
   -1.6169    3.8007   -0.7777 H   0  0  0  0  0  0  0  0  0  0  0  0
   -4.4964    2.6299   -2.3798 H   0  0  0  0  0  0  0  0  0  0  0  0
   -5.4055    4.1445   -2.3407 H   0  0  0  0  0  0  0  0  0  0  0  0
   -4.1960    3.8061   -1.0959 H   0  0  0  0  0  0  0  0  0  0  0  0
   -2.5007    6.3272   -3.2992 H   0  0  0  0  0  0  0  0  0  0  0  0
   -4.2106    6.3443   -2.8503 H   0  0  0  0  0  0  0  0  0  0  0  0
   -2.9789    5.9813   -1.6339 H   0  0  0  0  0  0  0  0  0  0  0  0
   -5.6211    4.9088   -5.0758 H   0  0  0  0  0  0  0  0  0  0  0  0
   -4.6690    3.5986   -8.6697 H   0  0  0  0  0  0  0  0  0  0  0  0
  -10.3030    4.6784   -6.1669 H   0  0  0  0  0  0  0  0  0  0  0  0
   -9.5013    3.6015  -11.0508 H   0  0  0  0  0  0  0  0  0  0  0  0
  -12.7079    2.8057  -10.1568 H   0  0  0  0  0  0  0  0  0  0  0  0
  -12.7538    5.0716  -11.5561 H   0  0  0  0  0  0  0  0  0  0  0  0
  -15.2291    4.3891  -10.9961 H   0  0  0  0  0  0  0  0  0  0  0  0
  -15.6889    4.9663   -8.4441 H   0  0  0  0  0  0  0  0  0  0  0  0
  -13.4976    6.0047   -7.4327 H   0  0  0  0  0  0  0  0  0  0  0  0
  -13.2943    7.0332   -9.8628 H   0  0  0  0  0  0  0  0  0  0  0  0
  -11.7202    6.3331   -9.4214 H   0  0  0  0  0  0  0  0  0  0  0  0
  -13.1619    3.3705   -7.6559 H   0  0  0  0  0  0  0  0  0  0  0  0
  1  2  2  0  0  0  0
  2  3  1  0  0  0  0
  3  4  2  0  0  0  0
  3  5  1  0  0  0  0
  5  6  2  0  0  0  0
  6  7  1  0  0  0  0
  7  8  2  0  0  0  0
  8  9  1  0  0  0  0
  9 10  2  0  0  0  0
 10 11  1  0  0  0  0
 11 12  2  0  0  0  0
 12 13  1  0  0  0  0
 13 14  3  0  0  0  0
 12 15  1  0  0  0  0
 15 16  3  0  0  0  0
  8 17  1  0  0  0  0
 17 18  1  0  0  0  0
 18 19  1  0  0  0  0
 19 20  2  0  0  0  0
 20 21  1  0  0  0  0
 21 22  1  0  0  0  0
 21 23  1  0  0  0  0
  1 24  1  0  0  0  0
 24 25  1  0  0  0  0
 25 26  1  0  0  0  0
 26 27  1  0  0  0  0
 27 28  2  0  0  0  0
 28 29  1  0  0  0  0
 29 30  1  0  0  0  0
 30 31  1  0  0  0  0
 29 32  1  0  0  0  0
 29 33  1  0  0  0  0
 28 34  1  0  0  0  0
 34 35  2  0  0  0  0
 35 36  1  0  0  0  0
 36 37  2  0  0  0  0
 37 38  1  0  0  0  0
 38 39  1  0  0  0  0
 38 40  1  0  0  0  0
 38 41  1  0  0  0  0
 41 42  2  0  0  0  0
 37 43  1  0  0  0  0
 43 44  2  0  0  0  0
 44 45  1  0  0  0  0
 45 46  2  0  0  0  0
 46 47  1  0  0  0  0
 47 48  1  0  0  0  0
 48 49  2  0  0  0  0
 47 50  1  0  0  0  0
 47 51  1  0  0  0  0
 46 52  1  0  0  0  0
 52 53  2  0  0  0  0
 53 54  1  0  0  0  0
 54 55  2  0  0  0  0
 55 56  1  0  0  0  0
 56 57  1  0  0  0  0
 57 58  2  0  0  0  0
 56 59  1  0  0  0  0
 56 60  1  0  0  0  0
 55 61  1  0  0  0  0
 61 62  2  0  0  0  0
 62 63  1  0  0  0  0
 62 64  1  0  0  0  0
 64 65  2  0  0  0  0
 65 66  1  0  0  0  0
 66 67  2  0  0  0  0
 66 68  1  0  0  0  0
 68 69  2  0  0  0  0
 69 70  1  0  0  0  0
 70 71  2  0  0  0  0
 71 72  1  0  0  0  0
 72 73  2  0  0  0  0
 73 74  1  0  0  0  0
 74 75  2  0  0  0  0
 75 76  1  0  0  0  0
 76 77  3  0  0  0  0
 75 78  1  0  0  0  0
 78 79  3  0  0  0  0
 71 80  1  0  0  0  0
 80 81  1  0  0  0  0
 81 82  1  0  0  0  0
 82 83  2  0  0  0  0
 83 84  1  0  0  0  0
 84 85  1  0  0  0  0
 84 86  1  0  0  0  0
 11  2  1  0  0  0  0
 23 17  1  0  0  0  0
 31 24  2  0  0  0  0
 41 35  1  0  0  0  0
 48 44  1  0  0  0  0
 57 53  1  0  0  0  0
 74 65  1  0  0  0  0
 86 80  1  0  0  0  0
 10  5  1  0  0  0  0
 22 18  1  0  0  0  0
 30 26  2  0  0  0  0
 49 36  1  0  0  0  0
 63 54  1  0  0  0  0
 73 68  1  0  0  0  0
 85 81  1  0  0  0  0
 23  7  1  0  0  0  0
 42 27  1  0  0  0  0
 58 45  1  0  0  0  0
 86 70  1  0  0  0  0
  1 87  1  0  0  0  0
  6 88  1  0  0  0  0
  9 89  1  0  0  0  0
 17 90  1  0  0  0  0
 18 91  1  0  0  0  0
 19 92  1  0  0  0  0
 20 93  1  0  0  0  0
 21 94  1  0  0  0  0
 22 95  1  0  0  0  0
 22 96  1  0  0  0  0
 23 97  1  0  0  0  0
 31 98  1  0  0  0  0
 32 99  1  0  0  0  0
 32100  1  0  0  0  0
 32101  1  0  0  0  0
 33102  1  0  0  0  0
 33103  1  0  0  0  0
 33104  1  0  0  0  0
 34105  1  0  0  0  0
 39106  1  0  0  0  0
 39107  1  0  0  0  0
 39108  1  0  0  0  0
 40109  1  0  0  0  0
 40110  1  0  0  0  0
 40111  1  0  0  0  0
 42112  1  0  0  0  0
 43113  1  0  0  0  0
 49114  1  0  0  0  0
 50115  1  0  0  0  0
 50116  1  0  0  0  0
 50117  1  0  0  0  0
 51118  1  0  0  0  0
 51119  1  0  0  0  0
 51120  1  0  0  0  0
 52121  1  0  0  0  0
 58122  1  0  0  0  0
 59123  1  0  0  0  0
 59124  1  0  0  0  0
 59125  1  0  0  0  0
 60126  1  0  0  0  0
 60127  1  0  0  0  0
 60128  1  0  0  0  0
 61129  1  0  0  0  0
 64130  1  0  0  0  0
 69131  1  0  0  0  0
 72132  1  0  0  0  0
 80133  1  0  0  0  0
 81134  1  0  0  0  0
 82135  1  0  0  0  0
 83136  1  0  0  0  0
 84137  1  0  0  0  0
 85138  1  0  0  0  0
 85139  1  0  0  0  0
 86140  1  0  0  0  0
M  END
