
  xtb     02032200513D
 energy: -222.142348270238 gnorm: 0.000596610462 xtb: 6.4.1 (unknown)
130146  0     0  0            999 V2000
   -1.8357    5.7954   -3.4431 C   0  0  0  0  0  0  0  0  0  0  0  0
   -2.5311    5.2982   -4.5180 C   0  0  0  0  0  0  0  0  0  0  0  0
   -2.8583    3.8917   -4.7584 C   0  0  0  0  0  0  0  0  0  0  0  0
   -2.5178    2.9231   -4.0973 O   0  0  0  0  0  0  0  0  0  0  0  0
   -3.6871    3.8583   -5.9741 C   0  0  0  0  0  0  0  0  0  0  0  0
   -4.2562    2.7346   -6.5690 C   0  0  0  0  0  0  0  0  0  0  0  0
   -4.9876    3.0114   -7.6988 C   0  0  0  0  0  0  0  0  0  0  0  0
   -5.1425    4.3111   -8.1980 C   0  0  0  0  0  0  0  0  0  0  0  0
   -4.5875    5.4279   -7.6190 C   0  0  0  0  0  0  0  0  0  0  0  0
   -3.8363    5.1695   -6.4684 C   0  0  0  0  0  0  0  0  0  0  0  0
   -3.1112    6.0856   -5.5868 C   0  0  0  0  0  0  0  0  0  0  0  0
   -3.0135    7.4425   -5.7665 C   0  0  0  0  0  0  0  0  0  0  0  0
   -3.6030    8.1492   -6.8355 C   0  0  0  0  0  0  0  0  0  0  0  0
   -4.0533    8.7934   -7.6729 N   0  0  0  0  0  0  0  0  0  0  0  0
   -2.3180    8.3471   -4.9370 C   0  0  0  0  0  0  0  0  0  0  0  0
   -1.7854    9.1630   -4.3270 N   0  0  0  0  0  0  0  0  0  0  0  0
   -5.9940    3.8510   -9.3553 C   0  0  0  0  0  0  0  0  0  0  0  0
   -5.3021    3.7732  -10.7327 C   0  0  0  0  0  0  0  0  0  0  0  0
   -6.2007    2.8620  -11.5373 C   0  0  0  0  0  0  0  0  0  0  0  0
   -6.0542    1.6308  -11.0649 C   0  0  0  0  0  0  0  0  0  0  0  0
   -5.0542    1.6891   -9.9327 C   0  0  0  0  0  0  0  0  0  0  0  0
   -4.1420    2.8116  -10.4440 C   0  0  0  0  0  0  0  0  0  0  0  0
   -5.8211    2.4015   -8.7984 C   0  0  0  0  0  0  0  0  0  0  0  0
   -1.2553    5.1375   -2.3534 C   0  0  0  0  0  0  0  0  0  0  0  0
   -0.6338    5.8269   -1.2936 C   0  0  0  0  0  0  0  0  0  0  0  0
   -0.6374    7.2777   -1.1329 C   0  0  0  0  0  0  0  0  0  0  0  0
   -1.8137    8.0173   -1.2465 C   0  0  0  0  0  0  0  0  0  0  0  0
   -1.7912    9.3896   -1.1057 C   0  0  0  0  0  0  0  0  0  0  0  0
   -0.6020   10.0615   -0.8508 C   0  0  0  0  0  0  0  0  0  0  0  0
   -0.5884   11.5507   -0.6738 C   0  0  0  0  0  0  0  0  0  0  0  0
   -0.8332   11.9156    0.7923 C   0  0  0  0  0  0  0  0  0  0  0  0
    0.5640    9.3183   -0.7101 C   0  0  0  0  0  0  0  0  0  0  0  0
    0.5509    7.9451   -0.8424 C   0  0  0  0  0  0  0  0  0  0  0  0
   -0.0235    4.9492   -0.4003 C   0  0  0  0  0  0  0  0  0  0  0  0
    0.8498    5.1969    1.1005 S   0  0  0  0  0  0  0  0  0  0  0  0
    0.9918    3.4797    1.2635 C   0  0  0  0  0  0  0  0  0  0  0  0
    1.5429    2.5365    2.1404 C   0  0  0  0  0  0  0  0  0  0  0  0
    2.3115    2.7087    3.3127 C   0  0  0  0  0  0  0  0  0  0  0  0
    2.8141    1.5489    3.9867 C   0  0  0  0  0  0  0  0  0  0  0  0
    3.5479    1.8553    5.0447 N   0  0  0  0  0  0  0  0  0  0  0  0
    3.5987    3.4683    5.1822 S   0  0  0  0  0  0  0  0  0  0  0  0
    2.6863    3.8360    3.8964 N   0  0  0  0  0  0  0  0  0  0  0  0
    2.4526    0.2712    3.5055 C   0  0  0  0  0  0  0  0  0  0  0  0
    2.7051   -1.0037    4.0270 C   0  0  0  0  0  0  0  0  0  0  0  0
    3.5398   -1.7358    5.3540 S   0  0  0  0  0  0  0  0  0  0  0  0
    2.9541   -3.2988    4.8158 C   0  0  0  0  0  0  0  0  0  0  0  0
    3.1427   -4.5920    5.2941 C   0  0  0  0  0  0  0  0  0  0  0  0
    3.9365   -4.9292    6.4707 C   0  0  0  0  0  0  0  0  0  0  0  0
    3.7504   -4.2266    7.6597 C   0  0  0  0  0  0  0  0  0  0  0  0
    4.4502   -4.5827    8.7942 C   0  0  0  0  0  0  0  0  0  0  0  0
    5.3623   -5.6313    8.7723 C   0  0  0  0  0  0  0  0  0  0  0  0
    6.0416   -6.0841   10.0289 C   0  0  0  0  0  0  0  0  0  0  0  0
    5.1671   -7.1264   10.7311 C   0  0  0  0  0  0  0  0  0  0  0  0
    5.5815   -6.2969    7.5723 C   0  0  0  0  0  0  0  0  0  0  0  0
    4.8809   -5.9543    6.4345 C   0  0  0  0  0  0  0  0  0  0  0  0
    2.4597   -5.5413    4.5055 C   0  0  0  0  0  0  0  0  0  0  0  0
    1.6411   -4.7959    3.1344 S   0  0  0  0  0  0  0  0  0  0  0  0
    2.1607   -3.2358    3.6580 C   0  0  0  0  0  0  0  0  0  0  0  0
    2.0236   -1.9172    3.2145 C   0  0  0  0  0  0  0  0  0  0  0  0
    1.3829   -1.2564    2.2014 N   0  0  0  0  0  0  0  0  0  0  0  0
    1.6302    0.0968    2.3516 C   0  0  0  0  0  0  0  0  0  0  0  0
    1.2434    1.2456    1.6096 C   0  0  0  0  0  0  0  0  0  0  0  0
    0.5540    1.4188    0.4213 N   0  0  0  0  0  0  0  0  0  0  0  0
    0.4025    2.7635    0.2161 C   0  0  0  0  0  0  0  0  0  0  0  0
   -0.1828    3.5970   -0.7420 C   0  0  0  0  0  0  0  0  0  0  0  0
   -1.1047    3.3902   -2.1857 S   0  0  0  0  0  0  0  0  0  0  0  0
    0.3476    0.5143   -0.6886 C   0  0  0  0  0  0  0  0  0  0  0  0
    1.6743   -0.0142   -1.2285 C   0  0  0  0  0  0  0  0  0  0  0  0
    0.3681   -1.9514    1.4412 C   0  0  0  0  0  0  0  0  0  0  0  0
   -1.0346   -1.5136    1.8557 C   0  0  0  0  0  0  0  0  0  0  0  0
    2.3651   -6.8874    4.8668 C   0  0  0  0  0  0  0  0  0  0  0  0
    1.7744   -7.9482    4.2210 C   0  0  0  0  0  0  0  0  0  0  0  0
    1.1222   -7.9049    2.9111 C   0  0  0  0  0  0  0  0  0  0  0  0
    0.9439   -6.9306    2.1980 O   0  0  0  0  0  0  0  0  0  0  0  0
    0.7102   -9.2885    2.6126 C   0  0  0  0  0  0  0  0  0  0  0  0
    0.0737   -9.7799    1.4906 C   0  0  0  0  0  0  0  0  0  0  0  0
   -0.2123  -11.1374    1.4418 C   0  0  0  0  0  0  0  0  0  0  0  0
    0.1357  -11.9663    2.4977 C   0  0  0  0  0  0  0  0  0  0  0  0
    0.7759  -11.4739    3.6284 C   0  0  0  0  0  0  0  0  0  0  0  0
    1.0676  -10.1207    3.6878 C   0  0  0  0  0  0  0  0  0  0  0  0
    1.7269   -9.3086    4.7129 C   0  0  0  0  0  0  0  0  0  0  0  0
    2.1960   -9.7830    5.9116 C   0  0  0  0  0  0  0  0  0  0  0  0
    2.8350   -9.0326    6.9205 C   0  0  0  0  0  0  0  0  0  0  0  0
    3.3650   -8.5217    7.8033 N   0  0  0  0  0  0  0  0  0  0  0  0
    2.1000  -11.1301    6.3200 C   0  0  0  0  0  0  0  0  0  0  0  0
    2.0565  -12.2057    6.7201 N   0  0  0  0  0  0  0  0  0  0  0  0
   -1.7069    6.8701   -3.4064 H   0  0  0  0  0  0  0  0  0  0  0  0
   -4.1143    1.7523   -6.1460 H   0  0  0  0  0  0  0  0  0  0  0  0
   -4.7237    6.4200   -8.0151 H   0  0  0  0  0  0  0  0  0  0  0  0
   -6.9955    4.2741   -9.4053 H   0  0  0  0  0  0  0  0  0  0  0  0
   -5.0581    4.7355  -11.1742 H   0  0  0  0  0  0  0  0  0  0  0  0
   -6.8699    3.2044  -12.3047 H   0  0  0  0  0  0  0  0  0  0  0  0
   -6.5766    0.7392  -11.3586 H   0  0  0  0  0  0  0  0  0  0  0  0
   -4.5839    0.7520   -9.6466 H   0  0  0  0  0  0  0  0  0  0  0  0
   -3.4340    3.1800   -9.7039 H   0  0  0  0  0  0  0  0  0  0  0  0
   -3.6079    2.5278  -11.3493 H   0  0  0  0  0  0  0  0  0  0  0  0
   -6.7077    1.8578   -8.4770 H   0  0  0  0  0  0  0  0  0  0  0  0
   -2.7514    7.5083   -1.4197 H   0  0  0  0  0  0  0  0  0  0  0  0
   -2.7095    9.9495   -1.2034 H   0  0  0  0  0  0  0  0  0  0  0  0
   -1.3649   12.0016   -1.2938 H   0  0  0  0  0  0  0  0  0  0  0  0
    0.3771   11.9515   -0.9879 H   0  0  0  0  0  0  0  0  0  0  0  0
   -1.7987   11.5374    1.1209 H   0  0  0  0  0  0  0  0  0  0  0  0
   -0.8204   12.9951    0.9225 H   0  0  0  0  0  0  0  0  0  0  0  0
   -0.0629   11.4798    1.4248 H   0  0  0  0  0  0  0  0  0  0  0  0
    1.4963    9.8237   -0.5029 H   0  0  0  0  0  0  0  0  0  0  0  0
    1.4679    7.3822   -0.7492 H   0  0  0  0  0  0  0  0  0  0  0  0
    3.0290   -3.4239    7.6957 H   0  0  0  0  0  0  0  0  0  0  0  0
    4.2786   -4.0452    9.7156 H   0  0  0  0  0  0  0  0  0  0  0  0
    7.0101   -6.5273    9.7901 H   0  0  0  0  0  0  0  0  0  0  0  0
    6.2058   -5.2356   10.6964 H   0  0  0  0  0  0  0  0  0  0  0  0
    4.2208   -6.6831   11.0320 H   0  0  0  0  0  0  0  0  0  0  0  0
    5.6689   -7.5121   11.6155 H   0  0  0  0  0  0  0  0  0  0  0  0
    4.9535   -7.9515   10.0566 H   0  0  0  0  0  0  0  0  0  0  0  0
    6.3020   -7.1003    7.5322 H   0  0  0  0  0  0  0  0  0  0  0  0
    5.0771   -6.4678    5.5038 H   0  0  0  0  0  0  0  0  0  0  0  0
   -0.1535    1.0917   -1.4691 H   0  0  0  0  0  0  0  0  0  0  0  0
   -0.3267   -0.2944   -0.4089 H   0  0  0  0  0  0  0  0  0  0  0  0
    2.2792    0.8111   -1.5970 H   0  0  0  0  0  0  0  0  0  0  0  0
    2.2402   -0.5292   -0.4553 H   0  0  0  0  0  0  0  0  0  0  0  0
    1.4921   -0.7019   -2.0498 H   0  0  0  0  0  0  0  0  0  0  0  0
    0.4913   -3.0150    1.6583 H   0  0  0  0  0  0  0  0  0  0  0  0
    0.5332   -1.8227    0.3721 H   0  0  0  0  0  0  0  0  0  0  0  0
   -1.2030   -1.7551    2.9026 H   0  0  0  0  0  0  0  0  0  0  0  0
   -1.7771   -2.0350    1.2579 H   0  0  0  0  0  0  0  0  0  0  0  0
   -1.1685   -0.4415    1.7297 H   0  0  0  0  0  0  0  0  0  0  0  0
    2.8360   -7.1063    5.8177 H   0  0  0  0  0  0  0  0  0  0  0  0
   -0.1873   -9.1154    0.6812 H   0  0  0  0  0  0  0  0  0  0  0  0
   -0.7083  -11.5519    0.5771 H   0  0  0  0  0  0  0  0  0  0  0  0
   -0.0936  -13.0200    2.4441 H   0  0  0  0  0  0  0  0  0  0  0  0
    1.0337  -12.1442    4.4316 H   0  0  0  0  0  0  0  0  0  0  0  0
  1  2  2  0  0  0  0
  2  3  1  0  0  0  0
  3  4  2  0  0  0  0
  3  5  1  0  0  0  0
  5  6  2  0  0  0  0
  6  7  1  0  0  0  0
  7  8  2  0  0  0  0
  8  9  1  0  0  0  0
  9 10  2  0  0  0  0
 10 11  1  0  0  0  0
 11 12  2  0  0  0  0
 12 13  1  0  0  0  0
 13 14  3  0  0  0  0
 12 15  1  0  0  0  0
 15 16  3  0  0  0  0
  8 17  1  0  0  0  0
 17 18  1  0  0  0  0
 18 19  1  0  0  0  0
 19 20  2  0  0  0  0
 20 21  1  0  0  0  0
 21 22  1  0  0  0  0
 21 23  1  0  0  0  0
  1 24  1  0  0  0  0
 24 25  2  0  0  0  0
 25 26  1  0  0  0  0
 26 27  2  0  0  0  0
 27 28  1  0  0  0  0
 28 29  2  0  0  0  0
 29 30  1  0  0  0  0
 30 31  1  0  0  0  0
 29 32  1  0  0  0  0
 32 33  2  0  0  0  0
 25 34  1  0  0  0  0
 34 35  1  0  0  0  0
 35 36  1  0  0  0  0
 36 37  1  0  0  0  0
 37 38  1  0  0  0  0
 38 39  1  0  0  0  0
 39 40  2  0  0  0  0
 40 41  1  0  0  0  0
 41 42  1  0  0  0  0
 39 43  1  0  0  0  0
 43 44  1  0  0  0  0
 44 45  1  0  0  0  0
 45 46  1  0  0  0  0
 46 47  1  0  0  0  0
 47 48  1  0  0  0  0
 48 49  2  0  0  0  0
 49 50  1  0  0  0  0
 50 51  2  0  0  0  0
 51 52  1  0  0  0  0
 52 53  1  0  0  0  0
 51 54  1  0  0  0  0
 54 55  2  0  0  0  0
 47 56  2  0  0  0  0
 56 57  1  0  0  0  0
 57 58  1  0  0  0  0
 58 59  1  0  0  0  0
 59 60  1  0  0  0  0
 60 61  1  0  0  0  0
 61 62  1  0  0  0  0
 62 63  1  0  0  0  0
 63 64  1  0  0  0  0
 64 65  1  0  0  0  0
 65 66  1  0  0  0  0
 63 67  1  0  0  0  0
 67 68  1  0  0  0  0
 60 69  1  0  0  0  0
 69 70  1  0  0  0  0
 56 71  1  0  0  0  0
 71 72  2  0  0  0  0
 72 73  1  0  0  0  0
 73 74  2  0  0  0  0
 73 75  1  0  0  0  0
 75 76  2  0  0  0  0
 76 77  1  0  0  0  0
 77 78  2  0  0  0  0
 78 79  1  0  0  0  0
 79 80  2  0  0  0  0
 80 81  1  0  0  0  0
 81 82  2  0  0  0  0
 82 83  1  0  0  0  0
 83 84  3  0  0  0  0
 82 85  1  0  0  0  0
 85 86  3  0  0  0  0
 11  2  1  0  0  0  0
 23 17  1  0  0  0  0
 66 24  1  0  0  0  0
 81 72  1  0  0  0  0
 10  5  1  0  0  0  0
 22 18  1  0  0  0  0
 33 26  1  0  0  0  0
 65 34  2  0  0  0  0
 80 75  1  0  0  0  0
 23  7  1  0  0  0  0
 64 36  2  0  0  0  0
 62 37  2  0  0  0  0
 42 38  2  0  0  0  0
 61 43  2  0  0  0  0
 59 44  2  0  0  0  0
 58 46  2  0  0  0  0
 55 48  1  0  0  0  0
  1 87  1  0  0  0  0
  6 88  1  0  0  0  0
  9 89  1  0  0  0  0
 17 90  1  0  0  0  0
 18 91  1  0  0  0  0
 19 92  1  0  0  0  0
 20 93  1  0  0  0  0
 21 94  1  0  0  0  0
 22 95  1  0  0  0  0
 22 96  1  0  0  0  0
 23 97  1  0  0  0  0
 27 98  1  0  0  0  0
 28 99  1  0  0  0  0
 30100  1  0  0  0  0
 30101  1  0  0  0  0
 31102  1  0  0  0  0
 31103  1  0  0  0  0
 31104  1  0  0  0  0
 32105  1  0  0  0  0
 33106  1  0  0  0  0
 49107  1  0  0  0  0
 50108  1  0  0  0  0
 52109  1  0  0  0  0
 52110  1  0  0  0  0
 53111  1  0  0  0  0
 53112  1  0  0  0  0
 53113  1  0  0  0  0
 54114  1  0  0  0  0
 55115  1  0  0  0  0
 67116  1  0  0  0  0
 67117  1  0  0  0  0
 68118  1  0  0  0  0
 68119  1  0  0  0  0
 68120  1  0  0  0  0
 69121  1  0  0  0  0
 69122  1  0  0  0  0
 70123  1  0  0  0  0
 70124  1  0  0  0  0
 70125  1  0  0  0  0
 71126  1  0  0  0  0
 76127  1  0  0  0  0
 77128  1  0  0  0  0
 78129  1  0  0  0  0
 79130  1  0  0  0  0
M  END
