104

C         -3.54970        0.30240       -4.77450
C         -4.64070        0.96060       -4.30620
C         -5.05780        0.92050       -2.87730
O         -4.41390        0.53590       -1.92640
C         -6.47800        1.32000       -2.87990
C         -7.33580        1.34810       -1.78220
C         -8.62090        1.72900       -2.08410
C         -9.02930        2.05920       -3.38410
C         -8.19520        2.03850       -4.47610
C         -6.88300        1.65050       -4.19030
C         -5.74090        1.49840       -5.08180
C         -5.66190        1.88310       -6.39330
C         -6.73100        2.43000       -7.13140
N         -7.56800        2.87300       -7.78010
C         -4.46720        1.82720       -7.14270
N         -3.51390        1.84020       -7.78210
C        -10.45130        2.32090       -2.95630
C        -11.50890        1.23400       -3.27130
C        -10.76760       -0.07810       -3.34330
C        -10.37980       -0.39200       -2.11440
C        -10.85260        0.70190       -1.18880
C        -12.16310        1.09920       -1.88690
C         -9.99660        1.95280       -1.50880
C         -2.46880       -0.11380       -3.93640
S         -2.03060       -1.81750       -3.95050
C         -0.84270       -1.50040       -2.76130
C          0.10260       -2.20070       -2.00130
C          0.34130       -3.58600       -1.87090
C          1.30100       -4.03070       -0.90430
N          1.38270       -5.35010       -0.84010
S          0.34260       -5.97910       -1.91040
N         -0.25150       -4.59160       -2.49490
C          2.06010       -3.06480       -0.20740
C          3.13900       -3.21280        0.67120
S          4.02360       -4.47750        1.44910
C          5.07540       -3.26230        2.15080
C          6.17990       -3.35750        2.98400
C          6.66810       -4.65770        3.53330
C          6.08660       -4.90810        4.92770
C          6.71470       -2.08890        3.27360
S          5.81040       -0.79210        2.48670
C          4.73800       -1.94540        1.78720
C          3.62160       -1.92710        0.94780
N          2.85840       -0.99300        0.29860
C          1.87710       -1.66370       -0.41030
C          0.79850       -1.23210       -1.22830
N          0.24520        0.01500       -1.48630
C         -0.75680       -0.14670       -2.41750
C         -1.68740        0.66610       -3.10370
C         -1.70100        2.16890       -3.15430
C         -2.54650        2.85010       -2.06730
C          0.28060        1.17300       -0.61830
C         -0.11070        0.81700        0.81410
C          3.35310        0.35960        0.16110
C          3.73590        0.67410       -1.28230
C          7.83580       -1.90430        4.08490
C          8.50080       -0.76550        4.47100
C          8.16340        0.61620        4.09180
O          7.24700        0.99960        3.38670
C          9.18060        1.43370        4.74860
S          9.54780        3.10110        4.84360
C         10.90600        2.72250        5.86320
Br        11.99580        4.10260        6.50890
C         11.06750        1.38790        6.11630
C         10.06560        0.64470        5.46830
C          9.67350       -0.74800        5.32320
C         10.33360       -1.79820        5.90860
C         11.47240       -1.59690        6.71650
N         12.40000       -1.45500        7.37690
C          9.99100       -3.15970        5.79720
N          9.76930       -4.28630        5.75100
H         -3.51250       -0.01150       -5.81160
H         -6.98340        1.08460       -0.79710
H         -8.52090        2.28500       -5.47330
H        -10.82490        3.32740       -3.13360
H        -12.15730        1.46590       -4.11180
H        -10.55900       -0.59850       -4.25960
H         -9.78190       -1.22690       -1.79910
H        -10.90440        0.44830       -0.13320
H        -12.91420        0.31170       -1.85140
H        -12.58830        2.03040       -1.51500
H        -10.07580        2.71790       -0.73890
H          7.75740       -4.67990        3.58570
H          6.34130       -5.45500        2.86300
H          6.43750       -5.86370        5.30620
H          5.00000       -4.92510        4.88640
H          6.39630       -4.12900        5.62020
H         -2.07250        2.47310       -4.13500
H         -0.66530        2.51210       -3.08520
H         -2.10390        3.80210       -1.78130
H         -2.64060        2.22160       -1.18530
H         -3.55160        3.04470       -2.43130
H         -0.44520        1.88240       -1.00730
H          1.25970        1.65260       -0.65920
H         -0.09910        1.71160        1.43150
H          0.56650        0.08510        1.24660
H         -1.11520        0.39970        0.82700
H          4.24210        0.43010        0.79230
H          2.62840        1.07580        0.55100
H          4.10410        1.69410       -1.35130
H          4.52310        0.00020       -1.61220
H          2.88780        0.55870       -1.95290
H          8.24340       -2.83060        4.46720
H         11.85680        0.98970        6.72660
