130

C          0.46480        3.73250        5.84510
C         -0.09740        4.84940        5.30830
C         -0.73470        5.87750        6.17170
O         -0.62950        5.98200        7.37330
C         -1.55470        6.69810        5.25670
C         -2.43010        7.72780        5.59770
C         -3.07220        8.29730        4.52410
C         -2.87580        7.86680        3.20450
C         -2.01190        6.85870        2.85030
C         -1.33600        6.27910        3.92700
C         -0.30870        5.24340        3.93200
C          0.49460        4.91540        2.86980
C          1.67800        4.16080        3.00830
N          2.67550        3.59900        3.09770
C          0.28590        5.35240        1.54810
N          0.14860        5.64720        0.44650
C         -3.84580        8.87640        2.64470
C         -3.22760       10.11200        1.95700
C         -4.35160       11.12260        1.94970
C         -4.52890       11.53740        3.19760
C         -3.52790       10.81370        4.06940
C         -2.36000       10.69040        3.08230
C         -4.05730        9.36410        4.11400
C          0.74570        2.51150        5.18590
C          1.69260        1.55900        5.54700
C          2.65930        1.74250        6.61900
C          3.23470        2.99020        6.85820
C          4.15270        3.15040        7.87650
C          4.52210        2.07960        8.68170
C          5.55660        2.25030        9.75460
C          6.95580        2.00500        9.18490
C          3.95720        0.83380        8.43050
C          3.04260        0.66130        7.41240
C          1.65820        0.44930        4.68230
S          2.66370       -0.97240        4.53190
C          1.79800       -1.40870        3.09970
C          1.81820       -2.38740        2.09530
C          2.61020       -3.54790        1.95190
C          2.41520       -4.38210        0.80340
N          3.20130       -5.44700        0.81140
S          4.11070       -5.40200        2.15000
N          3.53700       -4.02150        2.76990
C          1.49800       -3.97130       -0.18930
C          1.23520       -4.49350       -1.46130
S          1.74580       -5.80000       -2.47400
C          0.73990       -5.15490       -3.75870
C          0.49340       -5.56780       -5.06260
C          1.10410       -6.73140       -5.69350
C          0.34210       -7.64550       -6.42070
C          0.95040       -8.70020       -7.06890
C          2.32810       -8.87380       -7.01170
C          2.99560       -9.94870       -7.81390
C          3.39550       -9.38630       -9.18080
C          3.07900       -7.98640       -6.24900
C          2.47970       -6.93330       -5.59000
C         -0.40440       -4.69630       -5.72230
S         -0.97420       -3.40860       -4.66020
C          0.03360       -3.99490       -3.39060
C          0.32660       -3.62320       -2.07740
N          0.00120       -2.60380       -1.22400
C          0.71320       -2.78560       -0.05330
C          0.81190       -2.03530        1.14840
N          0.16470       -0.89760        1.60740
C          0.77140       -0.51740        2.77260
C          0.69020        0.54340        3.67840
S         -0.22090        2.00230        3.80530
C         -1.14690       -0.37340        1.29350
C         -2.22720       -1.43950        1.45850
C         -0.67840       -1.43870       -1.74520
C          0.28030       -0.26280       -1.91610
C         -0.67930       -4.79310       -7.08390
C         -1.52720       -4.05410       -7.88360
C         -2.42020       -2.99100       -7.43360
O         -2.54780       -2.53560       -6.30960
C         -3.16680       -2.55330       -8.63170
C         -4.14130       -1.58420       -8.73200
C         -4.70550       -1.34880       -9.97950
Br        -6.04810       -0.02840      -10.15230
C         -4.28580       -2.08000      -11.09030
Br        -5.05950       -1.75530      -12.78590
C         -3.30030       -3.05640      -10.98440
C         -2.73530       -3.29660       -9.74380
C         -1.70150       -4.23800       -9.30650
C         -1.03780       -5.11080      -10.13240
C         -0.03060       -6.02220       -9.75360
N          0.79550       -6.79610       -9.55430
C         -1.27650       -5.21480      -11.51890
N         -1.42570       -5.34920      -12.64930
H          0.65230        3.75650        6.91440
H         -2.56250        8.02480        6.62620
H         -1.86990        6.52830        1.83430
H         -4.69750        8.46840        2.10370
H         -2.74450        9.90840        1.00530
H         -4.91950       11.38210        1.07560
H         -5.27480       12.21250        3.57410
H         -3.31860       11.25230        5.04130
H         -1.93910       11.65960        2.82010
H         -1.56430       10.02660        3.41520
H         -5.05110        9.28800        4.55150
H          2.99080        3.82130        6.21350
H          4.59390        4.12180        8.04690
H          5.36970        1.54460       10.56630
H          5.50570        3.26240       10.16080
H          7.03020        0.99610        8.78560
H          7.16500        2.70670        8.38070
H          7.70840        2.12930        9.95980
H          4.23700       -0.01070        9.04360
H          2.60270       -0.30990        7.24100
H         -0.73270       -7.53610       -6.45710
H          0.34900       -9.39360       -7.63780
H          2.31230      -10.78810       -7.95470
H          3.88500      -10.31080       -7.29390
H          4.12510       -8.58870       -9.06170
H          3.82970      -10.16650       -9.80150
H          2.52530       -8.97520       -9.68570
H          4.14940       -8.11630       -6.18110
H          3.07800       -6.23720       -5.02120
H         -1.16230        0.06780        0.29720
H         -1.33260        0.43770        2.00210
H         -2.25640       -1.78290        2.49010
H         -3.19880       -1.02430        1.20470
H         -2.03430       -2.29980        0.82170
H         -1.07620       -1.72190       -2.72260
H         -1.53020       -1.18110       -1.11700
H          1.05280       -0.51750       -2.63780
H         -0.25980        0.60570       -2.28260
H          0.76610       -0.00590       -0.97760
H         -0.11990       -5.57740       -7.57920
H         -4.45630       -1.02570       -7.86430
H         -3.00430       -3.59940      -11.86700
