
  xtb     02102221483D
 energy: -196.442868131612 gnorm: 0.000830443033 xtb: 6.4.1 (unknown)
107121  0     0  0            999 V2000
    0.5629   -1.6704    6.3136 C   0  0  0  0  0  0  0  0  0  0  0  0
   -0.1501   -2.7180    6.7987 C   0  0  0  0  0  0  0  0  0  0  0  0
   -0.2505   -2.9750    8.2619 C   0  0  0  0  0  0  0  0  0  0  0  0
    0.0658   -2.2165    9.1504 O   0  0  0  0  0  0  0  0  0  0  0  0
   -0.7639   -4.3533    8.3800 C   0  0  0  0  0  0  0  0  0  0  0  0
   -0.9342   -5.0960    9.5468 C   0  0  0  0  0  0  0  0  0  0  0  0
   -1.4287   -6.3614    9.3395 C   0  0  0  0  0  0  0  0  0  0  0  0
   -1.7103   -6.8680    8.0628 C   0  0  0  0  0  0  0  0  0  0  0  0
   -1.5503   -6.1491    6.9030 C   0  0  0  0  0  0  0  0  0  0  0  0
   -1.0758   -4.8498    7.0957 C   0  0  0  0  0  0  0  0  0  0  0  0
   -0.8597   -3.7860    6.1212 C   0  0  0  0  0  0  0  0  0  0  0  0
   -1.4885   -3.6934    4.9059 C   0  0  0  0  0  0  0  0  0  0  0  0
   -1.5013   -2.5237    4.1181 C   0  0  0  0  0  0  0  0  0  0  0  0
   -1.5933   -1.5784    3.4718 N   0  0  0  0  0  0  0  0  0  0  0  0
   -2.2976   -4.7090    4.3569 C   0  0  0  0  0  0  0  0  0  0  0  0
   -2.9665   -5.4995    3.8613 N   0  0  0  0  0  0  0  0  0  0  0  0
   -2.1736   -8.1964    8.6036 C   0  0  0  0  0  0  0  0  0  0  0  0
   -3.7001   -8.4533    8.6481 C   0  0  0  0  0  0  0  0  0  0  0  0
   -4.3583   -7.0991    8.7464 C   0  0  0  0  0  0  0  0  0  0  0  0
   -4.1055   -6.6137    9.9545 C   0  0  0  0  0  0  0  0  0  0  0  0
   -3.2717   -7.6304   10.6947 C   0  0  0  0  0  0  0  0  0  0  0  0
   -3.8412   -8.9295   10.1025 C   0  0  0  0  0  0  0  0  0  0  0  0
   -1.8735   -7.6283   10.0266 C   0  0  0  0  0  0  0  0  0  0  0  0
    1.0327   -1.5063    4.9807 C   0  0  0  0  0  0  0  0  0  0  0  0
    1.6410   -2.9898    3.9317 Se  0  0  0  0  0  2  0  0  0  0  0  0
    1.8905   -1.7485    2.5922 C   0  0  0  0  0  0  0  0  0  0  0  0
    2.2955   -1.6803    1.2565 C   0  0  0  0  0  0  0  0  0  0  0  0
    2.8586   -2.6807    0.4388 C   0  0  0  0  0  0  0  0  0  0  0  0
    3.2667   -2.3411   -0.8885 C   0  0  0  0  0  0  0  0  0  0  0  0
    3.8183   -3.3628   -1.5240 N   0  0  0  0  0  0  0  0  0  0  0  0
    3.8192   -4.6432   -0.5323 S   0  0  0  0  0  0  0  0  0  0  0  0
    3.1155   -3.9411    0.7495 N   0  0  0  0  0  0  0  0  0  0  0  0
    2.9890   -1.0391   -1.3633 C   0  0  0  0  0  0  0  0  0  0  0  0
    3.1193   -0.5035   -2.6487 C   0  0  0  0  0  0  0  0  0  0  0  0
    3.6834   -0.9745   -4.2150 S   0  0  0  0  0  0  0  0  0  0  0  0
    3.0961    0.5537   -4.8497 C   0  0  0  0  0  0  0  0  0  0  0  0
    3.0672    1.0844   -6.1295 C   0  0  0  0  0  0  0  0  0  0  0  0
    3.5967    0.3576   -7.3220 C   0  0  0  0  0  0  0  0  0  0  0  0
    2.4800   -0.4195   -8.0253 C   0  0  0  0  0  0  0  0  0  0  0  0
    2.4142    2.3332   -6.1531 C   0  0  0  0  0  0  0  0  0  0  0  0
    1.8783    2.8332   -4.5463 S   0  0  0  0  0  0  0  0  0  0  0  0
    2.5108    1.3807   -3.8722 C   0  0  0  0  0  0  0  0  0  0  0  0
    2.5444    0.7728   -2.6163 C   0  0  0  0  0  0  0  0  0  0  0  0
    2.0943    1.0487   -1.3551 N   0  0  0  0  0  0  0  0  0  0  0  0
    2.3637   -0.0395   -0.5499 C   0  0  0  0  0  0  0  0  0  0  0  0
    2.1076   -0.3370    0.8192 C   0  0  0  0  0  0  0  0  0  0  0  0
    1.6721    0.3946    1.9082 N   0  0  0  0  0  0  0  0  0  0  0  0
    1.5298   -0.4514    2.9757 C   0  0  0  0  0  0  0  0  0  0  0  0
    1.1227   -0.3068    4.3077 C   0  0  0  0  0  0  0  0  0  0  0  0
    1.4198    1.8028    2.1026 C   0  0  0  0  0  0  0  0  0  0  0  0
   -0.0789    2.1024    2.1565 C   0  0  0  0  0  0  0  0  0  0  0  0
    1.3635    2.2751   -1.1391 C   0  0  0  0  0  0  0  0  0  0  0  0
    2.3016    3.4714   -0.9816 C   0  0  0  0  0  0  0  0  0  0  0  0
    2.2010    3.0554   -7.3268 C   0  0  0  0  0  0  0  0  0  0  0  0
    1.4968    4.2171   -7.5559 C   0  0  0  0  0  0  0  0  0  0  0  0
    0.7555    4.9863   -6.5582 C   0  0  0  0  0  0  0  0  0  0  0  0
    0.7238    4.8134   -5.3504 O   0  0  0  0  0  0  0  0  0  0  0  0
    0.0342    6.0365   -7.3006 C   0  0  0  0  0  0  0  0  0  0  0  0
   -0.8346    6.9748   -6.8259 C   0  0  0  0  0  0  0  0  0  0  0  0
   -1.4387    7.8710   -7.7361 C   0  0  0  0  0  0  0  0  0  0  0  0
   -2.3481    8.8547   -7.3027 C   0  0  0  0  0  0  0  0  0  0  0  0
   -2.9258    9.7029   -8.2055 C   0  0  0  0  0  0  0  0  0  0  0  0
   -3.7922   10.6384   -7.7907 F   0  0  0  0  0  0  0  0  0  0  0  0
   -2.6201    9.6040   -9.5770 C   0  0  0  0  0  0  0  0  0  0  0  0
   -3.2038   10.4472  -10.4401 F   0  0  0  0  0  0  0  0  0  0  0  0
   -1.7396    8.6604  -10.0274 C   0  0  0  0  0  0  0  0  0  0  0  0
   -1.1259    7.7718   -9.1223 C   0  0  0  0  0  0  0  0  0  0  0  0
   -0.2140    6.7923   -9.5810 C   0  0  0  0  0  0  0  0  0  0  0  0
    0.3618    5.9357   -8.6812 C   0  0  0  0  0  0  0  0  0  0  0  0
    1.3093    4.8345   -8.8514 C   0  0  0  0  0  0  0  0  0  0  0  0
    1.9171    4.4960  -10.0352 C   0  0  0  0  0  0  0  0  0  0  0  0
    2.8550    3.4586  -10.2110 C   0  0  0  0  0  0  0  0  0  0  0  0
    3.6299    2.6396  -10.4347 N   0  0  0  0  0  0  0  0  0  0  0  0
    1.6949    5.1682  -11.2545 C   0  0  0  0  0  0  0  0  0  0  0  0
    1.5631    5.6740  -12.2771 N   0  0  0  0  0  0  0  0  0  0  0  0
    0.8360   -0.9045    7.0339 H   0  0  0  0  0  0  0  0  0  0  0  0
   -0.6959   -4.6758   10.5114 H   0  0  0  0  0  0  0  0  0  0  0  0
   -1.7617   -6.5475    5.9242 H   0  0  0  0  0  0  0  0  0  0  0  0
   -1.6134   -9.0690    8.2742 H   0  0  0  0  0  0  0  0  0  0  0  0
   -4.0702   -9.1106    7.8661 H   0  0  0  0  0  0  0  0  0  0  0  0
   -4.8742   -6.6243    7.9325 H   0  0  0  0  0  0  0  0  0  0  0  0
   -4.3688   -5.6512   10.3526 H   0  0  0  0  0  0  0  0  0  0  0  0
   -3.2538   -7.5396   11.7776 H   0  0  0  0  0  0  0  0  0  0  0  0
   -4.8770   -9.1040   10.3894 H   0  0  0  0  0  0  0  0  0  0  0  0
   -3.2425   -9.8101   10.3309 H   0  0  0  0  0  0  0  0  0  0  0  0
   -1.1242   -8.1342   10.6322 H   0  0  0  0  0  0  0  0  0  0  0  0
    4.3578   -0.3468   -6.9808 H   0  0  0  0  0  0  0  0  0  0  0  0
    4.0609    1.0478   -8.0280 H   0  0  0  0  0  0  0  0  0  0  0  0
    2.8854   -0.9535   -8.8800 H   0  0  0  0  0  0  0  0  0  0  0  0
    1.7020    0.2546   -8.3764 H   0  0  0  0  0  0  0  0  0  0  0  0
    2.0333   -1.1393   -7.3434 H   0  0  0  0  0  0  0  0  0  0  0  0
    0.8222    0.6196    4.7659 H   0  0  0  0  0  0  0  0  0  0  0  0
    1.8720    2.0816    3.0608 H   0  0  0  0  0  0  0  0  0  0  0  0
    1.9215    2.3783    1.3294 H   0  0  0  0  0  0  0  0  0  0  0  0
   -0.2393    3.1696    2.2846 H   0  0  0  0  0  0  0  0  0  0  0  0
   -0.5379    1.5741    2.9876 H   0  0  0  0  0  0  0  0  0  0  0  0
   -0.5846    1.7762    1.2505 H   0  0  0  0  0  0  0  0  0  0  0  0
    0.7011    2.1605   -0.2867 H   0  0  0  0  0  0  0  0  0  0  0  0
    0.7404    2.4408   -2.0242 H   0  0  0  0  0  0  0  0  0  0  0  0
    3.0477    3.2963   -0.2086 H   0  0  0  0  0  0  0  0  0  0  0  0
    2.8223    3.6599   -1.9166 H   0  0  0  0  0  0  0  0  0  0  0  0
    1.7278    4.3576   -0.7264 H   0  0  0  0  0  0  0  0  0  0  0  0
    2.6387    2.5920   -8.2004 H   0  0  0  0  0  0  0  0  0  0  0  0
   -1.0628    7.0292   -5.7723 H   0  0  0  0  0  0  0  0  0  0  0  0
   -2.5933    8.9422   -6.2558 H   0  0  0  0  0  0  0  0  0  0  0  0
   -1.5163    8.5990  -11.0810 H   0  0  0  0  0  0  0  0  0  0  0  0
   -0.0011    6.7431  -10.6364 H   0  0  0  0  0  0  0  0  0  0  0  0
  1  2  2  0  0  0  0
  2  3  1  0  0  0  0
  3  4  2  0  0  0  0
  3  5  1  0  0  0  0
  5  6  2  0  0  0  0
  6  7  1  0  0  0  0
  7  8  2  0  0  0  0
  8  9  1  0  0  0  0
  9 10  2  0  0  0  0
 10 11  1  0  0  0  0
 11 12  2  0  0  0  0
 12 13  1  0  0  0  0
 13 14  3  0  0  0  0
 12 15  1  0  0  0  0
 15 16  3  0  0  0  0
  8 17  1  0  0  0  0
 17 18  1  0  0  0  0
 18 19  1  0  0  0  0
 19 20  2  0  0  0  0
 20 21  1  0  0  0  0
 21 22  1  0  0  0  0
 21 23  1  0  0  0  0
  1 24  1  0  0  0  0
 24 25  1  0  0  0  0
 25 26  1  0  0  0  0
 26 27  1  0  0  0  0
 27 28  1  0  0  0  0
 28 29  1  0  0  0  0
 29 30  2  0  0  0  0
 30 31  1  0  0  0  0
 31 32  1  0  0  0  0
 29 33  1  0  0  0  0
 33 34  1  0  0  0  0
 34 35  1  0  0  0  0
 35 36  1  0  0  0  0
 36 37  1  0  0  0  0
 37 38  1  0  0  0  0
 38 39  1  0  0  0  0
 37 40  2  0  0  0  0
 40 41  1  0  0  0  0
 41 42  1  0  0  0  0
 42 43  1  0  0  0  0
 43 44  1  0  0  0  0
 44 45  1  0  0  0  0
 45 46  1  0  0  0  0
 46 47  1  0  0  0  0
 47 48  1  0  0  0  0
 48 49  1  0  0  0  0
 47 50  1  0  0  0  0
 50 51  1  0  0  0  0
 44 52  1  0  0  0  0
 52 53  1  0  0  0  0
 40 54  1  0  0  0  0
 54 55  2  0  0  0  0
 55 56  1  0  0  0  0
 56 57  2  0  0  0  0
 56 58  1  0  0  0  0
 58 59  2  0  0  0  0
 59 60  1  0  0  0  0
 60 61  2  0  0  0  0
 61 62  1  0  0  0  0
 62 63  1  0  0  0  0
 62 64  2  0  0  0  0
 64 65  1  0  0  0  0
 64 66  1  0  0  0  0
 66 67  2  0  0  0  0
 67 68  1  0  0  0  0
 68 69  2  0  0  0  0
 69 70  1  0  0  0  0
 70 71  2  0  0  0  0
 71 72  1  0  0  0  0
 72 73  3  0  0  0  0
 71 74  1  0  0  0  0
 74 75  3  0  0  0  0
 11  2  1  0  0  0  0
 23 17  1  0  0  0  0
 49 24  2  0  0  0  0
 70 55  1  0  0  0  0
 10  5  1  0  0  0  0
 22 18  1  0  0  0  0
 48 26  2  0  0  0  0
 69 58  1  0  0  0  0
 23  7  1  0  0  0  0
 46 27  2  0  0  0  0
 67 60  1  0  0  0  0
 32 28  2  0  0  0  0
 45 33  2  0  0  0  0
 43 34  2  0  0  0  0
 42 36  2  0  0  0  0
  1 76  1  0  0  0  0
  6 77  1  0  0  0  0
  9 78  1  0  0  0  0
 17 79  1  0  0  0  0
 18 80  1  0  0  0  0
 19 81  1  0  0  0  0
 20 82  1  0  0  0  0
 21 83  1  0  0  0  0
 22 84  1  0  0  0  0
 22 85  1  0  0  0  0
 23 86  1  0  0  0  0
 38 87  1  0  0  0  0
 38 88  1  0  0  0  0
 39 89  1  0  0  0  0
 39 90  1  0  0  0  0
 39 91  1  0  0  0  0
 49 92  1  0  0  0  0
 50 93  1  0  0  0  0
 50 94  1  0  0  0  0
 51 95  1  0  0  0  0
 51 96  1  0  0  0  0
 51 97  1  0  0  0  0
 52 98  1  0  0  0  0
 52 99  1  0  0  0  0
 53100  1  0  0  0  0
 53101  1  0  0  0  0
 53102  1  0  0  0  0
 54103  1  0  0  0  0
 59104  1  0  0  0  0
 61105  1  0  0  0  0
 66106  1  0  0  0  0
 68107  1  0  0  0  0
M  END
