127

C          5.03820       -4.43060        2.23380
C          4.94410       -4.13910        3.56020
C          6.10850       -4.32030        4.46500
O          7.12660       -4.93020        4.22660
C          5.77690       -3.54950        5.68180
C          6.59830       -3.31290        6.78240
C          6.01610       -2.54450        7.76230
C          4.71460       -2.03510        7.65610
C          3.89070       -2.26130        6.57980
C          4.46120       -3.05030        5.57770
C          3.87810       -3.54290        4.33420
C          2.53580       -3.67430        4.08200
C          1.51620       -3.11800        4.87640
N          0.64240       -2.65850        5.46360
C          2.03060       -4.46470        3.02940
N          1.58690       -5.14890        2.22050
C          4.78460       -1.35380        8.99950
C          4.04320       -2.04890       10.16120
C          4.66960       -1.44910       11.39930
C          5.90080       -1.93300       11.50320
C          6.12700       -2.86900       10.33760
C          4.70910       -3.43100       10.17210
C          6.23380       -1.92510        9.12100
C          4.21880       -3.95930        1.18290
C          4.04950       -4.56470       -0.05560
C          4.63680       -5.87550       -0.36300
C          4.22810       -6.95740        0.41480
C          4.73830       -8.21910        0.18380
C          5.67890       -8.40390       -0.81600
C          6.09740       -7.32840       -1.57610
C          5.58450       -6.05270       -1.37210
C          6.09080       -4.90990       -2.20880
C          5.70700       -5.06950       -3.68010
C          3.15760       -3.84620       -0.86330
S          2.43320       -4.17540       -2.41870
C          1.48370       -2.74090       -2.25450
C          0.44730       -2.07160       -2.91980
C         -0.28450       -2.42840       -4.07390
C         -1.43360       -1.65010       -4.43070
N         -2.06350       -2.13390       -5.48950
S         -1.27410       -3.45280       -5.99720
N         -0.09860       -3.45860       -4.88380
C         -1.72580       -0.48570       -3.68650
C         -2.71330        0.49160       -3.86440
S         -4.08800        0.79770       -4.87060
C         -4.32750        2.31030       -4.01810
C         -5.26860        3.32380       -4.15060
C         -6.41050        3.27150       -5.07630
C         -6.49680        4.09600       -6.20000
C         -5.37040        5.00990       -6.59210
C         -4.32850        4.23620       -7.40340
C         -7.61830        3.99300       -7.01150
C         -8.63360        3.10020       -6.72410
C         -8.53350        2.27390       -5.61840
C         -7.42360        2.35810       -4.80080
C         -5.03340        4.37180       -3.24600
S         -3.61990        4.07600       -2.23830
C         -3.37110        2.55690       -3.01770
C         -2.46180        1.49930       -2.92520
N         -1.38270        1.16240       -2.15380
C         -0.91790       -0.06640       -2.58740
C          0.11140       -0.93270       -2.13130
N          0.91840       -0.93280       -1.00460
C          1.72880       -2.03330       -1.07240
C          2.67750       -2.67110       -0.27010
S          3.33930       -2.43860        1.30630
C          0.75960       -0.25140        0.26120
C         -0.57170       -0.59710        0.92230
C         -0.74260        2.17470       -1.34340
C          0.62300        2.56080       -1.90560
C         -5.87080        5.49200       -3.17610
C         -5.78790        6.61970       -2.40290
C         -4.75120        6.92530       -1.39960
O         -3.79730        6.23480       -1.08640
C         -5.10990        8.24040       -0.85330
C         -4.61980        9.14900        0.09930
C         -5.41570       10.25390        0.17240
S         -6.76580       10.21600       -0.90470
C         -6.26650        8.68110       -1.47910
C         -6.72860        7.72710       -2.45280
C         -7.83220        7.89990       -3.25080
C         -8.61510        9.06800       -3.13960
N         -9.25700       10.01550       -3.05340
C         -8.29700        7.00930       -4.23620
N         -8.73290        6.33780       -5.06040
H          5.87830       -5.05160        1.93800
H          7.59710       -3.71800        6.82560
H          2.89400       -1.85890        6.50030
H          4.64860       -0.27390        8.99310
H          2.95930       -2.01520       10.09410
H          4.18850       -0.71630       12.02020
H          6.65350       -1.68500       12.22840
H          6.94110       -3.58220       10.43400
H          4.56140       -4.00220        9.25750
H          4.40120       -4.02900       11.02810
H          7.06480       -1.22620        9.19650
H          3.48950       -6.79570        1.18650
H          4.40900       -9.05230        0.78560
H          6.09190       -9.38510       -0.99740
H          6.84790       -7.47470       -2.33940
H          5.69680       -3.96480       -1.83170
H          7.18100       -4.87160       -2.12880
H          6.06950       -4.22130       -4.25610
H          6.13840       -5.97670       -4.09510
H          4.62680       -5.12540       -3.78740
H         -5.76370        5.83030       -7.19490
H         -4.89080        5.43840       -5.71040
H         -3.91420        3.42250       -6.81210
H         -3.51720        4.89410       -7.70630
H         -4.78380        3.81110       -8.29470
H         -7.69560        4.63080       -7.87940
H         -9.50130        3.04700       -7.36390
H         -9.31770        1.56800       -5.38970
H         -7.33720        1.72380       -3.93020
H          0.88200        0.82420        0.13620
H          1.57640       -0.59340        0.90150
H         -0.62380       -1.66660        1.11330
H         -1.41060       -0.32300        0.28680
H         -0.66110       -0.07440        1.87070
H         -0.67530        1.85000       -0.30450
H         -1.39830        3.04840       -1.36290
H          1.08500        3.31130       -1.27010
H          1.28330        1.69910       -1.97200
H          0.50810        2.97710       -2.90370
H         -6.70930        5.43350       -3.86150
H         -3.73620        8.99620        0.69080
H         -5.29090       11.10950        0.80690
