118

C         -6.26920       -0.87250       -5.13460
C         -6.81770       -1.90740       -4.41970
C         -6.21510       -2.55930       -3.25380
O         -5.11120       -2.35520       -2.77390
C         -7.20870       -3.52300       -2.75490
C         -7.09100       -4.34410       -1.63550
C         -8.19700       -5.12340       -1.39640
C         -9.33410       -5.09170       -2.21430
C         -9.45890       -4.29290       -3.32650
C         -8.34600       -3.48750       -3.58630
C         -8.11470       -2.51220       -4.65210
C         -8.97820       -2.25160       -5.68530
C        -10.22600       -2.88490       -5.86300
N        -11.25330       -3.35300       -6.07330
C         -8.75790       -1.33560       -6.73500
N         -8.66580       -0.61560       -7.62580
C        -10.06530       -6.10870       -1.37390
C        -11.15230       -5.56080       -0.42480
C        -11.34480       -6.67020        0.58370
C        -10.26770       -6.70290        1.35790
C         -9.32930       -5.61560        0.88600
C        -10.35080       -4.56730        0.42640
C         -8.79670       -6.14530       -0.46260
C         -5.05170       -0.19940       -4.96640
C         -4.68490        0.88650       -5.76580
C         -3.46060        1.42070       -5.41500
S         -2.51620        2.77130       -6.01220
C         -1.31650        2.42590       -4.80810
C         -0.10650        2.93990       -4.33470
C          0.61700        4.09270       -4.70100
N          0.40900        5.03710       -5.62030
N          1.39330        5.88170       -5.43530
C          1.55710        7.04220       -6.26170
C          2.40370        6.71400       -7.48790
N          2.24310        5.59150       -4.48130
C          1.78300        4.44520       -3.97700
C          2.24290        3.60180       -2.94590
C          3.37500        3.67910       -2.13070
S          4.73430        4.72070       -1.85930
C          5.30680        3.60310       -0.63670
C          6.39850        3.59770        0.20890
C          6.42490        2.48440        1.05290
S          5.05490        1.41950        0.76330
C          4.47290        2.47940       -0.46580
C          3.37170        2.53640       -1.32250
N          2.28310        1.76210       -1.61240
C          2.18830        0.45770       -0.99900
C          1.63070        0.53300        0.42300
C          1.54650        2.40060       -2.59630
C          0.31950        2.10270       -3.25340
N         -0.64950        1.13050       -3.07210
C         -1.62640        1.31990       -4.00860
C         -2.85350        0.74190       -4.33920
S         -3.82340       -0.56030       -3.75960
C         -0.84930        0.09960       -2.08080
C         -0.48310       -1.28370       -2.61960
C          7.43410        2.29560        2.00650
C          7.59480        1.30890        2.94660
C          6.68220        0.18540        3.17460
O          5.67580       -0.09670        2.54360
C          7.20960       -0.55200        4.33340
C          6.65610       -1.68350        4.92890
C          7.36630       -2.14970        6.00880
C          8.54310       -1.53750        6.45960
C          9.10220       -0.42450        5.87740
C          8.39320        0.07010        4.77840
C          8.66750        1.22130        3.91800
C          9.75900        2.04500        4.02540
C         10.76930        1.91050        5.00060
N         11.62590        1.86720        5.76410
C         10.05380        3.14000        3.18660
N         10.37490        4.04230        2.55180
C          8.71820       -2.52260        7.58850
C          8.32880       -2.03010        8.99840
C          8.14350       -3.30540        9.78850
C          7.02950       -3.88630        9.36170
C          6.44290       -3.01300        8.27600
C          6.86150       -1.63110        8.79420
C          7.40610       -3.20570        7.08540
H         -6.85800       -0.47710       -5.95330
H         -6.19500       -4.33630       -1.03470
H        -10.34100       -4.28430       -3.94400
H        -10.36700       -7.02060       -1.88540
H        -12.04460       -5.18980       -0.92150
H        -12.19160       -7.33090        0.59430
H        -10.03500       -7.39650        2.14460
H         -8.56150       -5.29470        1.58490
H        -10.93500       -4.17100        1.25530
H         -9.91860       -3.74450       -0.14010
H         -8.25080       -7.08200       -0.36690
H         -5.31020        1.25420       -6.55920
H          0.56140        7.37370       -6.56260
H          2.04360        7.80870       -5.65550
H          1.91840        5.94350       -8.08190
H          3.38400        6.35800       -7.18050
H          2.52860        7.60290       -8.09940
H          7.15560        4.36030        0.23790
H          1.60280       -0.20150       -1.63290
H          3.20360        0.05050       -0.94780
H          0.71080        1.11340        0.46240
H          1.43500       -0.46860        0.79510
H          2.35390        1.00490        1.08210
H         -0.29880        0.34480       -1.17830
H         -1.91500        0.09770       -1.82840
H         -1.18260       -1.57590       -3.39800
H         -0.53770       -2.01670       -1.81990
H          0.51870       -1.29580       -3.04500
H          8.18200        3.07880        1.98620
H          5.74940       -2.12410        4.54470
H         10.00970        0.02970        6.23750
H          9.64220       -3.09740        7.57850
H          8.99720       -1.28480        9.42060
H          8.84780       -3.66970       10.51320
H          6.61730       -4.83280        9.65870
H          5.39240       -3.16350        8.04160
H          6.37010       -1.37700        9.73190
H          6.71600       -0.82510        8.07720
H          7.45500       -4.23660        6.73950
