
  xtb     02022214093D
 energy: -214.095937819470 gnorm: 0.000667861486 xtb: 6.4.1 (unknown)
124139  0     0  0            999 V2000
   -4.6484   -3.1967   -4.8401 C   0  0  0  0  0  0  0  0  0  0  0  0
   -4.9133   -4.3734   -4.2060 C   0  0  0  0  0  0  0  0  0  0  0  0
   -6.2224   -5.0479   -4.4029 C   0  0  0  0  0  0  0  0  0  0  0  0
   -7.0476   -4.7972   -5.2531 O   0  0  0  0  0  0  0  0  0  0  0  0
   -6.3208   -6.0325   -3.3060 C   0  0  0  0  0  0  0  0  0  0  0  0
   -7.4116   -6.8407   -2.9913 C   0  0  0  0  0  0  0  0  0  0  0  0
   -7.2111   -7.6538   -1.9015 C   0  0  0  0  0  0  0  0  0  0  0  0
   -6.0153   -7.6642   -1.1704 C   0  0  0  0  0  0  0  0  0  0  0  0
   -4.9277   -6.8802   -1.4725 C   0  0  0  0  0  0  0  0  0  0  0  0
   -5.1108   -6.0487   -2.5802 C   0  0  0  0  0  0  0  0  0  0  0  0
   -4.1731   -5.1357   -3.2269 C   0  0  0  0  0  0  0  0  0  0  0  0
   -2.8055   -5.2061   -3.1368 C   0  0  0  0  0  0  0  0  0  0  0  0
   -2.1071   -5.9911   -2.2011 C   0  0  0  0  0  0  0  0  0  0  0  0
   -1.4807   -6.5743   -1.4349 N   0  0  0  0  0  0  0  0  0  0  0  0
   -1.9445   -4.5448   -4.0373 C   0  0  0  0  0  0  0  0  0  0  0  0
   -1.2158   -4.0646   -4.7840 N   0  0  0  0  0  0  0  0  0  0  0  0
   -6.5194   -8.7077   -0.2055 C   0  0  0  0  0  0  0  0  0  0  0  0
   -6.9673   -8.2055    1.1834 C   0  0  0  0  0  0  0  0  0  0  0  0
   -7.8333   -9.3266    1.7106 C   0  0  0  0  0  0  0  0  0  0  0  0
   -8.9645   -9.3226    1.0171 C   0  0  0  0  0  0  0  0  0  0  0  0
   -8.8825   -8.1980    0.0101 C   0  0  0  0  0  0  0  0  0  0  0  0
   -8.0523   -7.1867    0.8111 C   0  0  0  0  0  0  0  0  0  0  0  0
   -7.8512   -8.7004   -1.0225 C   0  0  0  0  0  0  0  0  0  0  0  0
   -3.7016   -2.2078   -4.4964 C   0  0  0  0  0  0  0  0  0  0  0  0
   -3.1574   -1.2393   -5.3355 C   0  0  0  0  0  0  0  0  0  0  0  0
   -3.5030   -1.0500   -6.7440 C   0  0  0  0  0  0  0  0  0  0  0  0
   -2.4911   -1.0186   -7.6999 C   0  0  0  0  0  0  0  0  0  0  0  0
   -2.7993   -0.8324   -9.0327 C   0  0  0  0  0  0  0  0  0  0  0  0
   -4.1154   -0.6626   -9.4450 C   0  0  0  0  0  0  0  0  0  0  0  0
   -4.4416   -0.4166  -10.8888 C   0  0  0  0  0  0  0  0  0  0  0  0
   -4.4222    1.0837  -11.1902 C   0  0  0  0  0  0  0  0  0  0  0  0
   -5.1192   -0.6720   -8.4835 C   0  0  0  0  0  0  0  0  0  0  0  0
   -4.8226   -0.8658   -7.1492 C   0  0  0  0  0  0  0  0  0  0  0  0
   -2.1711   -0.4889   -4.6781 C   0  0  0  0  0  0  0  0  0  0  0  0
   -1.1140    0.7960   -5.2131 S   0  0  0  0  0  0  0  0  0  0  0  0
   -0.4408    0.8685   -3.6224 C   0  0  0  0  0  0  0  0  0  0  0  0
    0.5892    1.5244   -2.9347 C   0  0  0  0  0  0  0  0  0  0  0  0
    1.5632    2.4345   -3.3998 C   0  0  0  0  0  0  0  0  0  0  0  0
    2.6067    2.8426   -2.5080 C   0  0  0  0  0  0  0  0  0  0  0  0
    3.4811    3.6513   -3.0859 N   0  0  0  0  0  0  0  0  0  0  0  0
    3.0251    3.8816   -4.6226 S   0  0  0  0  0  0  0  0  0  0  0  0
    1.6962    2.9582   -4.6083 N   0  0  0  0  0  0  0  0  0  0  0  0
    2.5641    2.4050   -1.1664 C   0  0  0  0  0  0  0  0  0  0  0  0
    3.3759    2.7434   -0.0760 C   0  0  0  0  0  0  0  0  0  0  0  0
    4.7859    3.6864    0.2622 S   0  0  0  0  0  0  0  0  0  0  0  0
    4.6160    3.2809    1.9542 C   0  0  0  0  0  0  0  0  0  0  0  0
    5.3522    3.6534    3.0919 C   0  0  0  0  0  0  0  0  0  0  0  0
    6.4923    4.5684    3.0268 C   0  0  0  0  0  0  0  0  0  0  0  0
    6.5628    5.6867    3.8545 C   0  0  0  0  0  0  0  0  0  0  0  0
    7.6261    6.5612    3.7540 C   0  0  0  0  0  0  0  0  0  0  0  0
    8.6424    6.3476    2.8294 C   0  0  0  0  0  0  0  0  0  0  0  0
    9.8238    7.2699    2.7618 C   0  0  0  0  0  0  0  0  0  0  0  0
   10.9367    6.7773    3.6900 C   0  0  0  0  0  0  0  0  0  0  0  0
    8.5621    5.2358    1.9999 C   0  0  0  0  0  0  0  0  0  0  0  0
    7.4985    4.3594    2.0878 C   0  0  0  0  0  0  0  0  0  0  0  0
    4.8093    3.0956    4.2428 C   0  0  0  0  0  0  0  0  0  0  0  0
    3.3702    2.1396    3.9100 S   0  0  0  0  0  0  0  0  0  0  0  0
    3.5132    2.4609    2.2207 C   0  0  0  0  0  0  0  0  0  0  0  0
    2.8130    2.1400    1.0527 C   0  0  0  0  0  0  0  0  0  0  0  0
    1.7010    1.4279    0.6946 N   0  0  0  0  0  0  0  0  0  0  0  0
    1.5315    1.5529   -0.6730 C   0  0  0  0  0  0  0  0  0  0  0  0
    0.5884    1.0241   -1.5982 C   0  0  0  0  0  0  0  0  0  0  0  0
   -0.3990    0.0597   -1.5055 N   0  0  0  0  0  0  0  0  0  0  0  0
   -1.0187   -0.0327   -2.7217 C   0  0  0  0  0  0  0  0  0  0  0  0
   -2.0038   -0.8169   -3.3273 C   0  0  0  0  0  0  0  0  0  0  0  0
   -3.0567   -2.0985   -2.8592 S   0  0  0  0  0  0  0  0  0  0  0  0
   -0.6769   -0.9425   -0.5027 C   0  0  0  0  0  0  0  0  0  0  0  0
   -1.9998   -0.6827    0.2174 C   0  0  0  0  0  0  0  0  0  0  0  0
    0.8449    0.8972    1.7309 C   0  0  0  0  0  0  0  0  0  0  0  0
    1.4147   -0.3773    2.3529 C   0  0  0  0  0  0  0  0  0  0  0  0
    5.2805    3.1419    5.5797 C   0  0  0  0  0  0  0  0  0  0  0  0
    6.5425    3.4744    6.0531 C   0  0  0  0  0  0  0  0  0  0  0  0
    6.6517    3.3793    7.4301 C   0  0  0  0  0  0  0  0  0  0  0  0
    5.4802    2.9676    8.0548 C   0  0  0  0  0  0  0  0  0  0  0  0
    5.3029    2.7926    9.4507 C   0  0  0  0  0  0  0  0  0  0  0  0
    4.1590    2.3726   10.0993 C   0  0  0  0  0  0  0  0  0  0  0  0
    4.1276    2.2545   11.5043 C   0  0  0  0  0  0  0  0  0  0  0  0
    4.0840    2.1523   12.6457 N   0  0  0  0  0  0  0  0  0  0  0  0
    2.9583    2.0329    9.4517 C   0  0  0  0  0  0  0  0  0  0  0  0
    1.9575    1.7466    8.9663 N   0  0  0  0  0  0  0  0  0  0  0  0
    6.4299    3.0894   10.2628 C   0  0  0  0  0  0  0  0  0  0  0  0
    7.3427    3.3269   10.9123 N   0  0  0  0  0  0  0  0  0  0  0  0
    4.2214    2.6919    6.8800 S   0  0  0  0  0  0  0  0  0  0  0  0
   -5.2932   -2.9721   -5.6824 H   0  0  0  0  0  0  0  0  0  0  0  0
   -8.3141   -6.8082   -3.5813 H   0  0  0  0  0  0  0  0  0  0  0  0
   -4.0108   -6.8934   -0.9060 H   0  0  0  0  0  0  0  0  0  0  0  0
   -5.9411   -9.6285   -0.1588 H   0  0  0  0  0  0  0  0  0  0  0  0
   -6.1599   -7.8663    1.8268 H   0  0  0  0  0  0  0  0  0  0  0  0
   -7.5210  -10.0194    2.4698 H   0  0  0  0  0  0  0  0  0  0  0  0
   -9.7861  -10.0115    1.0815 H   0  0  0  0  0  0  0  0  0  0  0  0
   -9.8212   -7.8520   -0.4142 H   0  0  0  0  0  0  0  0  0  0  0  0
   -8.5860   -6.8162    1.6848 H   0  0  0  0  0  0  0  0  0  0  0  0
   -7.6890   -6.3461    0.2226 H   0  0  0  0  0  0  0  0  0  0  0  0
   -8.1599   -9.6166   -1.5223 H   0  0  0  0  0  0  0  0  0  0  0  0
   -1.4665   -1.1661   -7.3943 H   0  0  0  0  0  0  0  0  0  0  0  0
   -2.0058   -0.8218   -9.7658 H   0  0  0  0  0  0  0  0  0  0  0  0
   -5.4308   -0.8173  -11.1188 H   0  0  0  0  0  0  0  0  0  0  0  0
   -3.7112   -0.9207  -11.5244 H   0  0  0  0  0  0  0  0  0  0  0  0
   -4.6524    1.2637  -12.2376 H   0  0  0  0  0  0  0  0  0  0  0  0
   -3.4414    1.5004  -10.9725 H   0  0  0  0  0  0  0  0  0  0  0  0
   -5.1570    1.6023  -10.5785 H   0  0  0  0  0  0  0  0  0  0  0  0
   -6.1469   -0.5277   -8.7847 H   0  0  0  0  0  0  0  0  0  0  0  0
   -5.6142   -0.8441   -6.4141 H   0  0  0  0  0  0  0  0  0  0  0  0
    5.7726    5.8730    4.5672 H   0  0  0  0  0  0  0  0  0  0  0  0
    7.6659    7.4271    4.3990 H   0  0  0  0  0  0  0  0  0  0  0  0
    9.5260    8.2768    3.0601 H   0  0  0  0  0  0  0  0  0  0  0  0
   10.2018    7.3127    1.7386 H   0  0  0  0  0  0  0  0  0  0  0  0
   11.2608    5.7808    3.3978 H   0  0  0  0  0  0  0  0  0  0  0  0
   11.7918    7.4473    3.6456 H   0  0  0  0  0  0  0  0  0  0  0  0
   10.5823    6.7346    4.7176 H   0  0  0  0  0  0  0  0  0  0  0  0
    9.3399    5.0570    1.2719 H   0  0  0  0  0  0  0  0  0  0  0  0
    7.4515    3.4981    1.4384 H   0  0  0  0  0  0  0  0  0  0  0  0
   -0.7437   -1.9092   -1.0149 H   0  0  0  0  0  0  0  0  0  0  0  0
    0.1561   -0.9971    0.1917 H   0  0  0  0  0  0  0  0  0  0  0  0
   -2.1218   -1.3964    1.0271 H   0  0  0  0  0  0  0  0  0  0  0  0
   -2.0442    0.3249    0.6256 H   0  0  0  0  0  0  0  0  0  0  0  0
   -2.8317   -0.8003   -0.4716 H   0  0  0  0  0  0  0  0  0  0  0  0
    0.7684    1.6597    2.5145 H   0  0  0  0  0  0  0  0  0  0  0  0
   -0.1512    0.7386    1.3282 H   0  0  0  0  0  0  0  0  0  0  0  0
    1.6258   -1.1345    1.6008 H   0  0  0  0  0  0  0  0  0  0  0  0
    2.3421   -0.1591    2.8749 H   0  0  0  0  0  0  0  0  0  0  0  0
    0.7064   -0.7817    3.0700 H   0  0  0  0  0  0  0  0  0  0  0  0
    7.3515    3.7567    5.4055 H   0  0  0  0  0  0  0  0  0  0  0  0
    7.5528    3.5926    7.9782 H   0  0  0  0  0  0  0  0  0  0  0  0
  1  2  2  0  0  0  0
  2  3  1  0  0  0  0
  3  4  2  0  0  0  0
  3  5  1  0  0  0  0
  5  6  2  0  0  0  0
  6  7  1  0  0  0  0
  7  8  2  0  0  0  0
  8  9  1  0  0  0  0
  9 10  2  0  0  0  0
 10 11  1  0  0  0  0
 11 12  2  0  0  0  0
 12 13  1  0  0  0  0
 13 14  3  0  0  0  0
 12 15  1  0  0  0  0
 15 16  3  0  0  0  0
  8 17  1  0  0  0  0
 17 18  1  0  0  0  0
 18 19  1  0  0  0  0
 19 20  2  0  0  0  0
 20 21  1  0  0  0  0
 21 22  1  0  0  0  0
 21 23  1  0  0  0  0
  1 24  1  0  0  0  0
 24 25  2  0  0  0  0
 25 26  1  0  0  0  0
 26 27  2  0  0  0  0
 27 28  1  0  0  0  0
 28 29  2  0  0  0  0
 29 30  1  0  0  0  0
 30 31  1  0  0  0  0
 29 32  1  0  0  0  0
 32 33  2  0  0  0  0
 25 34  1  0  0  0  0
 34 35  1  0  0  0  0
 35 36  1  0  0  0  0
 36 37  1  0  0  0  0
 37 38  1  0  0  0  0
 38 39  1  0  0  0  0
 39 40  2  0  0  0  0
 40 41  1  0  0  0  0
 41 42  1  0  0  0  0
 39 43  1  0  0  0  0
 43 44  1  0  0  0  0
 44 45  1  0  0  0  0
 45 46  1  0  0  0  0
 46 47  1  0  0  0  0
 47 48  1  0  0  0  0
 48 49  2  0  0  0  0
 49 50  1  0  0  0  0
 50 51  2  0  0  0  0
 51 52  1  0  0  0  0
 52 53  1  0  0  0  0
 51 54  1  0  0  0  0
 54 55  2  0  0  0  0
 47 56  2  0  0  0  0
 56 57  1  0  0  0  0
 57 58  1  0  0  0  0
 58 59  1  0  0  0  0
 59 60  1  0  0  0  0
 60 61  1  0  0  0  0
 61 62  1  0  0  0  0
 62 63  1  0  0  0  0
 63 64  1  0  0  0  0
 64 65  1  0  0  0  0
 65 66  1  0  0  0  0
 63 67  1  0  0  0  0
 67 68  1  0  0  0  0
 60 69  1  0  0  0  0
 69 70  1  0  0  0  0
 56 71  1  0  0  0  0
 71 72  2  0  0  0  0
 72 73  1  0  0  0  0
 73 74  2  0  0  0  0
 74 75  1  0  0  0  0
 75 76  2  0  0  0  0
 76 77  1  0  0  0  0
 77 78  3  0  0  0  0
 76 79  1  0  0  0  0
 79 80  3  0  0  0  0
 75 81  1  0  0  0  0
 81 82  3  0  0  0  0
 74 83  1  0  0  0  0
 11  2  1  0  0  0  0
 23 17  1  0  0  0  0
 66 24  1  0  0  0  0
 83 71  1  0  0  0  0
 10  5  1  0  0  0  0
 22 18  1  0  0  0  0
 33 26  1  0  0  0  0
 65 34  2  0  0  0  0
 23  7  1  0  0  0  0
 64 36  2  0  0  0  0
 62 37  2  0  0  0  0
 42 38  2  0  0  0  0
 61 43  2  0  0  0  0
 59 44  2  0  0  0  0
 58 46  2  0  0  0  0
 55 48  1  0  0  0  0
  1 84  1  0  0  0  0
  6 85  1  0  0  0  0
  9 86  1  0  0  0  0
 17 87  1  0  0  0  0
 18 88  1  0  0  0  0
 19 89  1  0  0  0  0
 20 90  1  0  0  0  0
 21 91  1  0  0  0  0
 22 92  1  0  0  0  0
 22 93  1  0  0  0  0
 23 94  1  0  0  0  0
 27 95  1  0  0  0  0
 28 96  1  0  0  0  0
 30 97  1  0  0  0  0
 30 98  1  0  0  0  0
 31 99  1  0  0  0  0
 31100  1  0  0  0  0
 31101  1  0  0  0  0
 32102  1  0  0  0  0
 33103  1  0  0  0  0
 49104  1  0  0  0  0
 50105  1  0  0  0  0
 52106  1  0  0  0  0
 52107  1  0  0  0  0
 53108  1  0  0  0  0
 53109  1  0  0  0  0
 53110  1  0  0  0  0
 54111  1  0  0  0  0
 55112  1  0  0  0  0
 67113  1  0  0  0  0
 67114  1  0  0  0  0
 68115  1  0  0  0  0
 68116  1  0  0  0  0
 68117  1  0  0  0  0
 69118  1  0  0  0  0
 69119  1  0  0  0  0
 70120  1  0  0  0  0
 70121  1  0  0  0  0
 70122  1  0  0  0  0
 72123  1  0  0  0  0
 73124  1  0  0  0  0
M  END
