130

C         -4.48120       -4.36860        2.23110
C         -5.21290       -4.84980        1.17390
C         -5.08500       -4.43460       -0.22430
O         -4.35240       -3.57050       -0.68000
C         -6.02490       -5.26610       -0.99320
C         -6.24400       -5.23080       -2.36860
C         -7.18600       -6.12990       -2.80730
C         -7.86320       -6.99710       -1.94020
C         -7.65990       -7.03800       -0.58100
C         -6.70160       -6.13400       -0.11270
C         -6.21930       -5.88920        1.24710
C         -6.65720       -6.54550        2.36980
C         -6.22320       -6.32660        3.69400
N         -5.94540       -6.23420        4.80570
C         -7.63250       -7.56490        2.36790
N         -8.41110       -8.40520        2.45080
C         -8.65640       -7.62570       -3.05880
C         -8.19120       -9.01780       -3.53590
C         -8.81640       -9.15810       -4.90500
C         -8.17610       -8.33650       -5.72700
C         -7.10710       -7.62720       -4.92730
C         -6.73690       -8.73940       -3.93760
C         -7.90150       -6.65810       -4.02600
C         -3.48260       -3.38930        2.27590
C         -2.79510       -3.06540        3.46180
C         -2.93250       -3.79760        4.71650
C         -3.13660       -3.10690        5.90920
C         -3.31210       -3.79720        7.09100
C         -3.27240       -5.18630        7.12060
C         -3.55950       -5.93690        8.38560
C         -5.06470       -6.19420        8.49480
C         -3.02340       -5.86970        5.93660
C         -2.85420       -5.18930        4.74880
C         -1.95140       -1.97180        3.28240
S         -0.83610       -1.14750        4.35500
C         -0.36940       -0.13300        3.03350
C          0.54510        0.89040        2.75410
C          1.56270        1.45860        3.55210
C          2.47470        2.38580        2.95100
N          3.41320        2.79120        3.79170
S          3.16550        2.07150        5.22080
N          1.85320        1.21270        4.81970
C          2.25740        2.78500        1.61370
C          2.92690        3.72620        0.82040
S          4.30890        4.76210        0.90260
C          3.93110        5.34890       -0.70130
C          4.57350        6.26230       -1.54630
C          5.85420        6.88740       -1.23940
C          6.86680        6.93830       -2.19590
C          8.04190        7.60870       -1.92950
C          8.24330        8.24010       -0.70540
C          9.52620        8.96490       -0.42330
C         10.55810        8.00990        0.18090
C          7.25130        8.14360        0.26090
C          6.06960        7.47590        0.00400
C          3.88150        6.41370       -2.75120
S          2.48540        5.33520       -2.84710
C          2.78660        4.75380       -1.25380
C          2.21800        3.82090       -0.38270
N          1.15860        2.95350       -0.37410
C          1.16740        2.28740        0.84080
C          0.36860        1.24500        1.38310
N         -0.61300        0.42850        0.84980
C         -1.04810       -0.40890        1.84080
C         -1.95340       -1.46750        1.97230
S         -3.01560       -2.34770        0.93440
C         -0.93790        0.12860       -0.52690
C          0.27390       -0.41010       -1.28280
C          0.09350        3.12410       -1.33820
C         -1.16770        3.68380       -0.68570
C          4.11940        7.22060       -3.87900
C          4.82160        8.39730       -3.94050
C          5.15250        9.25860       -2.78470
O          4.70550        9.18050       -1.66040
C          6.01750       10.32670       -3.32450
C          6.71560       11.31930       -2.65990
Cl         6.68080       11.41910       -0.94790
C          7.47110       12.22280       -3.40360
C          7.50520       12.12530       -4.78340
C          6.81320       11.12910       -5.46260
C          6.07190       10.22090       -4.72620
C          5.29470        9.04950       -5.13920
C          5.12130        8.63610       -6.43640
C          5.61380        9.32420       -7.56440
N          5.97510        9.83270       -8.52860
C          4.42910        7.47620       -6.84120
N          3.89290        6.54820       -7.25560
H         -4.69260       -4.80220        3.20100
H         -5.70240       -4.54220       -2.99820
H         -8.19500       -7.70870        0.06950
H         -9.73850       -7.54300       -2.97830
H         -8.37110       -9.82410       -2.83020
H         -9.66780       -9.77850       -5.11500
H         -8.38600       -8.13330       -6.76080
H         -6.29920       -7.16760       -5.49030
H         -6.10460       -8.40960       -3.11530
H         -6.27580       -9.59310       -4.43160
H         -8.48060       -5.92960       -4.59040
H         -3.18830       -2.02820        5.89690
H         -3.49110       -3.25000        8.00530
H         -3.02980       -6.89140        8.38020
H         -3.22360       -5.36130        9.25060
H         -5.41870       -6.72460        7.61450
H         -5.60410       -5.25230        8.56110
H         -5.28710       -6.78700        9.37900
H         -2.96970       -6.94820        5.94460
H         -2.63790       -5.73390        3.84050
H          6.72720        6.44880       -3.14960
H          8.81480        7.65210       -2.68430
H          9.34160        9.78410        0.27390
H          9.92280        9.38690       -1.34940
H         10.18430        7.58890        1.11140
H         10.76480        7.19190       -0.50560
H         11.48780        8.53560        0.38530
H          7.39630        8.61660        1.22140
H          5.28980        7.44870        0.74890
H         -1.36620        1.00210       -1.01870
H         -1.71490       -0.63900       -0.50270
H          0.61090       -1.33810       -0.82700
H          0.00500       -0.61170       -2.31600
H          1.10050        0.29650       -1.26390
H          0.46020        3.83620       -2.08150
H         -0.10550        2.18970       -1.86310
H         -0.96100        4.66090       -0.25500
H         -1.52450        3.03220        0.10850
H         -1.95150        3.79330       -1.43020
H          3.67470        6.84870       -4.79480
H          8.02540       12.99470       -2.89410
H          8.08840       12.83720       -5.34730
H          6.86630       11.07710       -6.53720
