111

C          4.31000       -3.46390       -2.16960
C          3.99960       -4.67650       -1.60750
C          2.94420       -4.94570       -0.60710
O          2.32110       -4.16080        0.08040
C          2.72590       -6.40520       -0.64090
C          1.75230       -7.11140        0.06140
C          1.76020       -8.46350       -0.18110
C          2.66980       -9.06970       -1.05730
C          3.63310       -8.38300       -1.75840
C          3.64110       -7.00380       -1.52690
C          4.47790       -5.95210       -2.10000
C          5.56240       -6.15300       -2.91770
C          6.39610       -5.13300       -3.41950
N          7.12290       -4.35930       -3.86030
C          6.01350       -7.41730       -3.34640
N          6.43400       -8.41360       -3.73380
C          2.09960      -10.44710       -0.82160
C          2.90050      -11.37760        0.11340
C          1.89340      -12.42580        0.52860
C          1.03030      -11.85110        1.35650
C          1.43930      -10.40450        1.51450
C          2.96260      -10.54650        1.40150
C          1.08420       -9.76950        0.15370
C          3.91800       -2.18110       -1.74810
C          3.51540       -1.74210       -0.47270
C          3.17520       -0.41040       -0.62080
C          3.36690       -0.05390       -1.97390
N          3.86790       -1.11250       -2.64080
C          4.11900       -1.15310       -4.06020
C          2.97230       -1.82010       -4.81670
C          2.83400        1.23870       -2.13960
C          2.53850        2.01240       -3.28490
C          1.64740        3.13740       -3.16520
N          1.38030        3.69720       -4.33350
S          2.18430        2.90020       -5.48840
N          2.90280        1.79550       -4.54030
C          1.20040        3.52510       -1.88260
C          0.31110        4.51610       -1.43130
S         -0.84020        5.63520       -2.07440
C         -1.35670        6.01800       -0.44810
C         -2.43920        6.75680        0.05960
C         -3.33950        7.60170       -0.77740
C         -2.55700        8.59250       -1.63780
C         -2.50750        6.65190        1.43600
S         -1.17550        5.71420        2.11540
C         -0.61060        5.34970        0.52860
C          0.32770        4.47960       -0.03190
N          1.18460        3.50140        0.40400
C          1.68050        2.86450       -0.71960
C          2.36730        1.63760       -0.85240
N          2.59600        0.63000        0.06480
C          1.93630        0.36490        1.32520
C          2.93700        0.23700        2.47170
C          1.82690        3.59360        1.69780
C          2.51390        4.94650        1.87990
C         -3.49010        7.10990        2.35740
C         -4.83150        7.00910        2.18070
S         -5.97930        7.64640        3.35360
C         -7.31000        6.86460        2.53350
C         -8.60960        7.01650        2.94100
C         -9.72500        6.47940        2.27310
N        -10.68050        6.09150        1.76810
C         -8.90380        7.78130        4.08730
N         -9.14420        8.39580        5.02560
N         -6.87720        6.14310        1.46540
C         -7.72100        5.26430        0.72170
C         -8.20920        4.11610        1.32860
C         -9.00190        3.25110        0.59800
C         -9.29150        3.52680       -0.72760
C         -8.78470        4.66550       -1.32960
C         -7.99360        5.54110       -0.60770
C         -5.51710        6.19460        1.17720
O         -5.01870        5.57280        0.26730
H          4.86980       -3.49330       -3.09580
H          1.06750       -6.60260        0.72170
H          4.31550       -8.86140       -2.44100
H          1.71440      -10.95790       -1.70210
H          3.84010      -11.73660       -0.29750
H          1.87950      -13.42950        0.14600
H          0.15160      -12.27830        1.80330
H          1.04740       -9.87670        2.37990
H          3.38670      -11.10690        2.23300
H          3.48930       -9.60010        1.29360
H          0.02220       -9.82660       -0.07870
H          3.49730       -2.34350        0.41050
H          5.05980       -1.67820       -4.24940
H          4.21400       -0.11840       -4.39800
H          3.19730       -1.84110       -5.87890
H          2.81610       -2.83960       -4.47020
H          2.05400       -1.25760       -4.66730
H         -3.92980        6.93970       -1.41660
H         -4.02910        8.14550       -0.12960
H         -1.91170        8.07310       -2.34070
H         -3.24730        9.21500       -2.20110
H         -1.94330        9.23680       -1.01170
H          1.19690        1.14060        1.52150
H          1.40400       -0.58820        1.22310
H          3.53610        1.13740        2.58810
H          3.61140       -0.59330        2.28280
H          2.40720        0.04970        3.40140
H          1.07680        3.45350        2.48340
H          2.57910        2.81160        1.76300
H          3.04090        4.96050        2.82990
H          3.23100        5.11580        1.07940
H          1.78910        5.75570        1.87700
H         -3.13000        7.49130        3.30590
H         -7.97250        3.90780        2.36210
H         -9.39130        2.36050        1.06630
H         -9.91260        2.84970       -1.29370
H         -9.00610        4.87690       -2.36440
H         -7.59030        6.43130       -1.06560
