98

C          5.34090        3.20850        0.56150
C          4.84950        4.43700        0.22780
C          5.79360        5.47070       -0.27710
O          7.00260        5.42770       -0.23070
C          4.94710        6.51520       -0.88470
C          5.36930        7.63320       -1.59980
C          4.34370        8.41820       -2.06970
C          2.99380        8.11550       -1.84620
C          2.56270        7.02000       -1.13670
C          3.59070        6.20930       -0.64930
C          3.51930        4.99560        0.16470
C          2.42890        4.62250        0.91100
C          2.42790        3.60530        1.88510
N          2.34190        2.81000        2.70950
C          1.16580        5.24410        0.84640
N          0.09870        5.66850        0.82030
C          2.51290        9.32190       -2.61200
C          1.96800        9.09900       -4.04430
C          2.63750        7.85310       -4.56880
C          3.91530        8.13860       -4.78090
C          4.13280        9.58310       -4.40430
C          2.76890       10.17360       -4.79680
C          4.01660        9.65970       -2.86150
C          4.66140        1.98240        0.71410
Se         5.47390        0.57300        1.71750
C          3.92660       -0.36420        1.38140
C          3.30820       -1.57260        1.72210
C          3.74480       -2.60070        2.58240
C          2.85810       -3.68600        2.87220
N          3.37920       -4.54580        3.73400
S          4.85830       -4.03100        4.14180
N          4.89430       -2.69020        3.23210
C          1.61500       -3.73800        2.20270
C          0.61010       -4.71400        2.21600
S          0.23700       -6.19940        3.01670
C         -1.22850       -6.31280        2.06920
C         -2.25570       -7.26090        2.03190
C         -2.26820       -8.48470        2.88720
C         -1.43210       -9.59530        2.24590
C         -3.23370       -6.91600        1.10780
S         -2.84520       -5.41450        0.26450
C         -1.39430       -5.24490        1.17770
C         -0.34790       -4.32440        1.27200
N          0.01050       -3.13350        0.70490
C          1.21190       -2.73680        1.26750
C          2.02880       -1.58660        1.10230
N          1.87230       -0.39350        0.41120
C          3.01370        0.35030        0.58940
C          3.41920        1.62960        0.21370
C          0.64560        0.28310        0.04410
C         -0.25740        0.48840        1.25730
C         -0.66810       -2.67190       -0.48400
C          0.23480       -2.75270       -1.71230
C         -4.35530       -7.69050        0.73890
C         -5.46480       -7.32160        0.04210
C         -6.26540       -8.36760       -0.66410
O         -6.18390       -9.56580       -0.51790
C         -7.09820       -7.59700       -1.58450
S         -8.22640       -7.94240       -2.82210
C         -8.46520       -6.25440       -3.08170
C         -7.72840       -5.45680       -2.25650
C         -6.93100       -6.23050       -1.39320
C         -6.01830       -6.02190       -0.28510
C         -5.94280       -4.87210        0.45710
C         -6.57050       -3.67980        0.04720
N         -7.04700       -2.69170       -0.29050
C         -5.32240       -4.79710        1.72030
N         -4.87850       -4.72010        2.77620
H          6.42240        3.17340        0.67280
H          6.41920        7.83250       -1.74740
H          1.52080        6.79580       -0.97720
H          1.91660       10.03610       -2.04770
H          0.88480        9.13260       -4.12540
H          2.14160        6.90580       -4.67440
H          4.70030        7.47750       -5.09860
H          5.02040       10.05750       -4.81450
H          2.59460       10.15330       -5.87150
H          2.60660       11.18110       -4.41660
H          4.40160       10.59600       -2.46270
H         -3.29050       -8.82860        3.04210
H         -1.83940       -8.23040        3.85850
H         -1.83770       -9.86940        1.27460
H         -1.43360      -10.47540        2.88320
H         -0.40460       -9.26540        2.11230
H          2.86380        2.28410       -0.43670
H          0.13500       -0.24920       -0.75770
H          0.93230        1.25800       -0.35270
H         -0.53900       -0.46200        1.70450
H          0.26620        1.07850        2.00690
H         -1.15870        1.02040        0.96480
H         -1.52800       -3.33120       -0.62680
H         -1.06200       -1.66600       -0.33280
H          1.14430       -2.17330       -1.57280
H          0.51730       -3.78660       -1.89720
H         -0.29240       -2.37730       -2.58520
H         -4.28510       -8.75250        0.95210
H         -9.15520       -5.94140       -3.84080
H         -7.75440       -4.38310       -2.27780
