136

C         -5.96470       -2.47640        3.12890
C         -5.41260       -3.24740        4.12280
C         -3.99110       -3.55370        4.28880
O         -3.06030       -3.17110        3.59680
C         -3.88660       -4.42080        5.47340
C         -2.72390       -4.96690        6.01240
C         -2.93530       -5.73800        7.12980
C         -4.21050       -5.95320        7.66830
C         -5.36550       -5.42240        7.14390
C         -5.17350       -4.62970        6.00840
C         -6.14400       -3.90620        5.18570
C         -7.49780       -3.87480        5.40710
C         -8.45760       -3.19170        4.63120
N         -9.31850       -2.68080        4.06620
C         -8.14760       -4.53710        6.46970
N         -8.74840       -5.04500        7.30650
C         -3.68080       -6.81660        8.78620
C         -3.58120       -6.15780       10.17820
C         -2.61060       -7.04160       10.92790
C         -1.40250       -6.83710       10.41870
C         -1.53620       -5.81150        9.31610
C         -2.67330       -4.95540        9.88870
C         -2.25830       -6.57580        8.18610
C         -5.36100       -1.78070        2.07630
C         -6.10260       -1.03160        1.14080
C         -7.55860       -1.03900        1.04240
C         -8.27310       -2.23650        1.03270
C         -9.64980       -2.22670        0.94490
C        -10.35120       -1.02970        0.86710
C        -11.84610       -1.02860        0.74700
C        -12.26350       -1.12400       -0.72240
C         -9.63430        0.16090        0.84960
C         -8.25670        0.16160        0.92980
C         -5.27020       -0.29830        0.29860
S         -5.59450        0.78690       -1.03990
C         -3.88870        0.95420       -1.27580
C         -2.99700        1.56450       -2.16780
C         -3.22080        2.27920       -3.36620
C         -2.09860        2.60700       -4.19840
N         -2.46030        3.20470       -5.32230
S         -4.07280        3.35080       -5.33040
N         -4.37230        2.65220       -3.90100
C         -0.79530        2.32010       -3.73410
C          0.46680        2.59000       -4.28280
S          1.15870        3.25390       -5.72330
C          2.75280        3.00100       -5.03660
C          4.03750        3.21110       -5.52810
C          4.32620        3.73950       -6.85720
C          3.66480        4.87890       -7.31100
C          3.94820        5.39810       -8.55750
C          4.88420        4.79340       -9.38820
C          5.16660        5.34220      -10.75480
C          4.24920        4.68910      -11.79140
C          5.51500        3.63650       -8.94720
C          5.24420        3.11350       -7.69980
C          5.01930        2.83070       -4.58860
S          4.30890        2.15850       -3.12140
C          2.72780        2.43280       -3.75140
C          1.41660        2.19500       -3.33350
N          0.79350        1.67210       -2.22870
C         -0.56980        1.71560       -2.46260
C         -1.68230        1.21540       -1.73890
N         -1.78780        0.37920       -0.64640
C         -3.11810        0.22330       -0.36240
C         -3.90190       -0.50290        0.53920
S         -3.62470       -1.60770        1.83530
C         -0.81550       -0.50980       -0.05010
C         -0.46610       -0.10390        1.38230
C          1.51470        1.70020       -0.97370
C          1.69750        3.13600       -0.48250
C          6.38050        3.06370       -4.79440
C          7.47430        2.73080       -4.02890
C          7.45060        1.99460       -2.76570
O          6.47670        1.60060       -2.14580
C          8.86260        1.81700       -2.37110
C          9.37190        1.16540       -1.27020
C         10.75760        1.11840       -1.12330
O         11.22970        0.49550        0.01630
C         12.35470       -0.25420        0.01080
O         13.00980       -0.48970       -0.96390
C         12.63390       -0.75500        1.40040
C         11.59240        1.72230       -2.05750
C         11.06730        2.37650       -3.16340
C          9.69250        2.42710       -3.32820
C          8.85230        3.02240       -4.36750
C          9.31750        3.72670       -5.44900
C          8.53520        4.31800       -6.46310
N          7.99310        4.83390       -7.33540
C         10.68370        3.97450       -5.70010
N         11.77450        4.21250       -5.96780
H         -7.04120       -2.35970        3.15110
H         -1.76240       -4.77860        5.56070
H         -6.33760       -5.60350        7.57040
H         -4.06530       -7.83400        8.82310
H         -4.53600       -5.96140       10.65800
H         -2.90170       -7.74240       11.68810
H         -0.48280       -7.33290       10.66850
H         -0.62740       -5.29910        9.01170
H         -2.37830       -4.43430       10.79800
H         -3.09260       -4.24300        9.18070
H         -1.69390       -7.43310        7.82380
H         -7.74160       -3.17700        1.06820
H        -10.18960       -3.16190        0.94590
H        -12.25880       -1.87650        1.29620
H        -12.25140       -0.11110        1.17750
H        -11.86810       -0.28040       -1.28400
H        -11.87970       -2.03960       -1.16680
H        -13.34730       -1.12300       -0.81030
H        -10.16320        1.10060        0.78070
H         -7.71370        1.09510        0.93370
H          2.94920        5.36990       -6.66820
H          3.44160        6.29320       -8.88850
H          5.00540        6.42170      -10.76060
H          6.20740        5.14940      -11.01990
H          4.40850        3.61340      -11.81450
H          4.44840        5.09120      -12.78190
H          3.20620        4.87440      -11.54400
H          6.23370        3.14470       -9.58580
H          5.72540        2.19940       -7.38180
H          0.06370       -0.55470       -0.69430
H         -1.25710       -1.51210       -0.02460
H          0.38320       -0.68410        1.73180
H         -1.30700       -0.30340        2.04050
H         -0.22670        0.95510        1.45330
H          0.98450        1.13470       -0.21830
H          2.49310        1.24210       -1.14590
H          0.73000        3.61410       -0.34160
H          2.27260        3.71790       -1.19780
H          2.22890        3.13230        0.46490
H          6.58480        3.59470       -5.71610
H          8.72350        0.70350       -0.54280
H         11.75430       -1.25800        1.79360
H         13.47910       -1.43560        1.37860
H         12.85740        0.09080        2.04710
H         12.66170        1.67840       -1.92790
H         11.73970        2.83250       -3.87110
