140

C          6.62500       -3.64190        7.82810
C          7.26940       -4.81940        8.09960
C          7.71560       -5.86980        7.15750
O          7.85650       -5.80570        5.95220
C          7.95670       -7.07000        7.98200
C          8.28180       -8.34390        7.52180
C          8.40240       -9.28400        8.51630
C          8.21830       -8.97930        9.87170
C          7.91250       -7.72400       10.34040
C          7.78180       -6.75380        9.34290
C          7.44980       -5.33610        9.44580
C          7.39640       -4.61740       10.61180
C          7.18620       -3.22520       10.70810
N          7.04460       -2.09810       10.87970
C          7.60300       -5.16620       11.89450
N          7.75410       -5.54210       12.96910
C          8.45650      -10.40330       10.30660
C          7.21930      -11.25670       10.68140
C          6.05350      -10.68550        9.91320
C          6.23190      -10.97530        8.63130
C          7.52230      -11.74760        8.50960
C          7.50650      -12.51240        9.84270
C          8.66550      -10.74260        8.79710
C          6.31130       -3.01990        6.60680
S          5.14930       -1.68970        6.69050
C          5.20540       -1.51770        4.99400
C          4.53130       -0.73660        4.00440
C          5.03100       -1.14600        2.74650
C          6.09510       -2.21760        2.90370
C          6.09660       -2.40520        4.39680
C          6.72180       -3.24930        5.29770
C          7.45870       -1.72340        2.41000
C          5.70030       -3.51160        2.18680
C          4.52180       -0.61100        1.58590
C          3.49290        0.31980        1.69930
C          2.70560        0.96210        0.66720
C          1.72150        1.75580        1.28290
C          1.87080        1.71500        2.78700
C          2.26170        3.09300        3.33320
C          0.59290        1.21410        3.46540
C          3.00430        0.72890        2.95420
C          3.52360        0.21630        4.12100
C          0.76900        2.41280        0.53590
C          0.81320        2.25560       -0.84550
C         -0.10060        2.72500       -1.86690
C          0.34900        2.25970       -3.11690
C          1.63780        1.48530       -2.96350
C          1.81960        1.49130       -1.46280
C          2.77670        0.84080       -0.71650
C          2.79560        2.21540       -3.65420
C          1.50250        0.06120       -3.50880
C         -0.37260        2.49320       -4.26510
C         -1.57130        3.18760       -4.13270
C         -2.58350        3.50520       -5.09050
C         -3.65010        4.16060       -4.48050
C         -3.36640        4.36230       -3.01610
C         -2.02220        3.66880       -2.88180
C         -1.28340        3.44870       -1.74210
C         -4.43590        3.69150       -2.15000
C         -3.25660        5.85250       -2.67720
C         -4.70070        4.42370       -5.34150
C         -4.45350        3.96420       -6.63140
S         -2.85060        3.22620       -6.75200
C         -5.22300        3.95350       -7.80770
C         -6.54560        4.23490       -8.02670
C         -7.60480        4.54200       -7.04090
O         -7.49440        4.86040       -5.87310
C         -8.88260        4.37730       -7.76090
C        -10.16150        4.45610       -7.21310
C        -11.17100        4.21770       -8.11390
C        -10.92780        3.91800       -9.46110
C         -9.67230        3.84410      -10.01550
C         -8.63030        4.09090       -9.11590
C         -7.18510        4.09470       -9.32440
C         -6.56360        4.04860      -10.54560
C         -7.24070        3.93530      -11.77770
N         -7.72430        3.84180      -12.81510
C         -5.17450        4.16180      -10.76660
N         -4.06340        4.26960      -11.03820
C        -12.39620        3.77720       -9.77770
C        -13.05990        4.95610      -10.52010
C        -14.53660        4.75960      -10.26320
C        -14.76630        5.04790       -8.98850
C        -13.44870        5.44390       -8.36230
C        -12.77840        6.12230       -9.56390
C        -12.66730        4.11560       -8.27660
H          6.22380       -3.11500        8.68690
H          8.41120       -8.53600        6.46800
H          7.77020       -7.50600       11.38570
H          9.29100      -10.56270       10.98650
H          7.07040      -11.39050       11.74950
H          5.27220      -10.09820       10.35930
H          5.62980      -10.67830        7.79250
H          7.64980      -12.32920        7.60030
H          6.70480      -13.24740        9.89680
H          8.45720      -12.98650       10.08270
H          9.63850      -11.12170        8.49030
H          7.43300       -4.01390        5.04800
H          8.21840       -2.47740        2.60080
H          7.42230       -1.52380        1.34190
H          7.73830       -0.80710        2.92550
H          5.67150       -3.35520        1.11140
H          4.71760       -3.84120        2.51720
H          6.42200       -4.29370        2.40890
H          4.88580       -0.91740        0.61690
H          3.16960        3.44630        2.84890
H          2.43820        3.03730        4.40460
H          1.46680        3.81120        3.14680
H          0.74200        1.13200        4.53910
H          0.31870        0.23580        3.07610
H         -0.22750        1.90340        3.28190
H          3.15910        0.51080        5.09360
H          0.00010        3.01140        1.00080
H          3.54330        0.23920       -1.18110
H          2.88800        3.22720       -3.26500
H          2.62080        2.26970       -4.72600
H          3.73080        1.68920       -3.47850
H          1.30470        0.08250       -4.57760
H          0.68330       -0.45540       -3.01320
H          2.41950       -0.49740       -3.33800
H         -0.04980        2.13800       -5.23210
H         -1.61690        3.80070       -0.77770
H         -4.49640        2.62990       -2.37980
H         -5.40550        4.14450       -2.34070
H         -4.19600        3.80610       -1.09590
H         -2.50070        6.32720       -3.29920
H         -4.21060        6.34430       -2.85030
H         -2.97890        5.98130       -1.63390
H         -5.62110        4.90880       -5.07580
H         -4.66900        3.59860       -8.66970
H        -10.30300        4.67840       -6.16690
H         -9.50130        3.60150      -11.05080
H        -12.70790        2.80570      -10.15680
H        -12.75380        5.07160      -11.55610
H        -15.22910        4.38910      -10.99610
H        -15.68890        4.96630       -8.44410
H        -13.49760        6.00470       -7.43270
H        -13.29430        7.03320       -9.86280
H        -11.72020        6.33310       -9.42140
H        -13.16190        3.37050       -7.65590
