
  xtb     02112200113D
 energy: -178.424641845851 gnorm: 0.000272644151 xtb: 6.4.1 (unknown)
 98111  0     0  0            999 V2000
    5.2461   -0.2651   -0.2982 C   0  0  0  0  0  0  0  0  0  0  0  0
    6.2194    0.4953    0.2899 C   0  0  0  0  0  0  0  0  0  0  0  0
    6.0501    1.8546    0.8254 C   0  0  0  0  0  0  0  0  0  0  0  0
    5.0682    2.5680    0.7357 O   0  0  0  0  0  0  0  0  0  0  0  0
    7.3110    2.1870    1.5096 C   0  0  0  0  0  0  0  0  0  0  0  0
    7.5970    3.3515    2.2176 C   0  0  0  0  0  0  0  0  0  0  0  0
    8.8531    3.3726    2.7745 C   0  0  0  0  0  0  0  0  0  0  0  0
    9.7573    2.3102    2.6413 C   0  0  0  0  0  0  0  0  0  0  0  0
    9.4878    1.1565    1.9440 C   0  0  0  0  0  0  0  0  0  0  0  0
    8.2168    1.1166    1.3632 C   0  0  0  0  0  0  0  0  0  0  0  0
    7.5790    0.0701    0.5667 C   0  0  0  0  0  0  0  0  0  0  0  0
    8.1871   -1.0826    0.1395 C   0  0  0  0  0  0  0  0  0  0  0  0
    9.5244   -1.4332    0.4211 C   0  0  0  0  0  0  0  0  0  0  0  0
   10.6004   -1.7890    0.6057 N   0  0  0  0  0  0  0  0  0  0  0  0
    7.5918   -2.0805   -0.6598 C   0  0  0  0  0  0  0  0  0  0  0  0
    7.1891   -2.9370   -1.3117 N   0  0  0  0  0  0  0  0  0  0  0  0
   10.8183    3.0062    3.4562 C   0  0  0  0  0  0  0  0  0  0  0  0
   12.0036    3.6520    2.6972 C   0  0  0  0  0  0  0  0  0  0  0  0
   11.4946    3.9926    1.3185 C   0  0  0  0  0  0  0  0  0  0  0  0
   10.6394    4.9990    1.4399 C   0  0  0  0  0  0  0  0  0  0  0  0
   10.5548    5.3577    2.9030 C   0  0  0  0  0  0  0  0  0  0  0  0
   11.9950    5.0475    3.3416 C   0  0  0  0  0  0  0  0  0  0  0  0
    9.8122    4.1914    3.6012 C   0  0  0  0  0  0  0  0  0  0  0  0
    3.8998    0.0250   -0.5812 C   0  0  0  0  0  0  0  0  0  0  0  0
    3.0809    1.5664   -0.3262 S   0  0  0  0  0  0  0  0  0  0  0  0
    1.6272    0.8852   -0.9260 C   0  0  0  0  0  0  0  0  0  0  0  0
    0.2880    1.2405   -1.1690 C   0  0  0  0  0  0  0  0  0  0  0  0
   -0.4098    2.4706   -1.1370 C   0  0  0  0  0  0  0  0  0  0  0  0
   -1.7826    2.5139   -1.5721 C   0  0  0  0  0  0  0  0  0  0  0  0
   -2.2762    3.7416   -1.5578 N   0  0  0  0  0  0  0  0  0  0  0  0
   -1.1261    4.7543   -1.0377 S   0  0  0  0  0  0  0  0  0  0  0  0
    0.0490    3.6680   -0.8107 N   0  0  0  0  0  0  0  0  0  0  0  0
   -2.4498    1.3031   -1.8711 C   0  0  0  0  0  0  0  0  0  0  0  0
   -3.7896    0.9832   -2.1390 C   0  0  0  0  0  0  0  0  0  0  0  0
   -3.8925   -0.4222   -2.1537 C   0  0  0  0  0  0  0  0  0  0  0  0
   -2.6542   -0.9798   -1.9393 N   0  0  0  0  0  0  0  0  0  0  0  0
   -2.5240   -2.3029   -1.3590 C   0  0  0  0  0  0  0  0  0  0  0  0
   -3.3508   -2.4413   -0.0807 C   0  0  0  0  0  0  0  0  0  0  0  0
   -1.7597    0.0623   -1.7926 C   0  0  0  0  0  0  0  0  0  0  0  0
   -0.3629    0.0588   -1.6112 C   0  0  0  0  0  0  0  0  0  0  0  0
    0.5563   -0.9704   -1.7189 N   0  0  0  0  0  0  0  0  0  0  0  0
    1.7663   -0.4694   -1.2895 C   0  0  0  0  0  0  0  0  0  0  0  0
    3.0509   -0.9511   -1.1112 C   0  0  0  0  0  0  0  0  0  0  0  0
    0.5017   -2.0494   -2.6854 C   0  0  0  0  0  0  0  0  0  0  0  0
    1.2906   -1.7040   -3.9483 C   0  0  0  0  0  0  0  0  0  0  0  0
   -5.1863   -0.8919   -2.3367 C   0  0  0  0  0  0  0  0  0  0  0  0
   -6.0910    0.1530   -2.4562 C   0  0  0  0  0  0  0  0  0  0  0  0
   -5.3008    1.7396   -2.3996 S   0  0  0  0  0  0  0  0  0  0  0  0
   -7.4884    0.1296   -2.6102 C   0  0  0  0  0  0  0  0  0  0  0  0
   -8.3654   -0.8624   -2.2527 C   0  0  0  0  0  0  0  0  0  0  0  0
   -8.0939   -1.9860   -1.3284 C   0  0  0  0  0  0  0  0  0  0  0  0
   -7.0243   -2.4006   -0.9258 O   0  0  0  0  0  0  0  0  0  0  0  0
   -9.4200   -2.4881   -0.9203 C   0  0  0  0  0  0  0  0  0  0  0  0
   -9.7155   -3.4627   -0.0115 C   0  0  0  0  0  0  0  0  0  0  0  0
  -11.0686   -3.7797    0.2427 C   0  0  0  0  0  0  0  0  0  0  0  0
  -11.4306   -4.7744    1.1738 C   0  0  0  0  0  0  0  0  0  0  0  0
  -12.7437   -5.0674    1.4170 C   0  0  0  0  0  0  0  0  0  0  0  0
  -13.7354   -4.3618    0.7223 C   0  0  0  0  0  0  0  0  0  0  0  0
  -15.0220   -4.6640    0.9751 F   0  0  0  0  0  0  0  0  0  0  0  0
  -13.4393   -3.3887   -0.1913 C   0  0  0  0  0  0  0  0  0  0  0  0
  -12.0920   -3.0737   -0.4540 C   0  0  0  0  0  0  0  0  0  0  0  0
  -11.7544   -2.0706   -1.3929 C   0  0  0  0  0  0  0  0  0  0  0  0
  -10.4361   -1.7834   -1.6238 C   0  0  0  0  0  0  0  0  0  0  0  0
   -9.7920   -0.8175   -2.5066 C   0  0  0  0  0  0  0  0  0  0  0  0
  -10.4194   -0.0723   -3.4708 C   0  0  0  0  0  0  0  0  0  0  0  0
   -9.7576    0.7591   -4.3990 C   0  0  0  0  0  0  0  0  0  0  0  0
   -9.2835    1.4287   -5.2024 N   0  0  0  0  0  0  0  0  0  0  0  0
  -11.8111   -0.0894   -3.6954 C   0  0  0  0  0  0  0  0  0  0  0  0
  -12.9372   -0.0596   -3.9172 N   0  0  0  0  0  0  0  0  0  0  0  0
    5.5241   -1.2741   -0.5790 H   0  0  0  0  0  0  0  0  0  0  0  0
    6.8674    4.1418    2.3012 H   0  0  0  0  0  0  0  0  0  0  0  0
   10.1930    0.3470    1.8574 H   0  0  0  0  0  0  0  0  0  0  0  0
   11.1354    2.4931    4.3619 H   0  0  0  0  0  0  0  0  0  0  0  0
   12.9297    3.0852    2.7408 H   0  0  0  0  0  0  0  0  0  0  0  0
   11.7570    3.4457    0.4319 H   0  0  0  0  0  0  0  0  0  0  0  0
   10.0438    5.4614    0.6747 H   0  0  0  0  0  0  0  0  0  0  0  0
   10.1626    6.3447    3.1336 H   0  0  0  0  0  0  0  0  0  0  0  0
   12.7251    5.7214    2.8963 H   0  0  0  0  0  0  0  0  0  0  0  0
   12.1245    5.0271    4.4229 H   0  0  0  0  0  0  0  0  0  0  0  0
    9.4748    4.4547    4.6018 H   0  0  0  0  0  0  0  0  0  0  0  0
   -2.8477   -3.0469   -2.0942 H   0  0  0  0  0  0  0  0  0  0  0  0
   -1.4770   -2.4714   -1.1104 H   0  0  0  0  0  0  0  0  0  0  0  0
   -4.4151   -2.3582   -0.2806 H   0  0  0  0  0  0  0  0  0  0  0  0
   -3.1586   -3.4132    0.3657 H   0  0  0  0  0  0  0  0  0  0  0  0
   -3.0680   -1.6697    0.6324 H   0  0  0  0  0  0  0  0  0  0  0  0
    3.3861   -1.9506   -1.3235 H   0  0  0  0  0  0  0  0  0  0  0  0
   -0.5358   -2.2250   -2.9649 H   0  0  0  0  0  0  0  0  0  0  0  0
    0.9103   -2.9542   -2.2244 H   0  0  0  0  0  0  0  0  0  0  0  0
    0.8932   -0.7987   -4.4023 H   0  0  0  0  0  0  0  0  0  0  0  0
    1.2085   -2.5176   -4.6637 H   0  0  0  0  0  0  0  0  0  0  0  0
    2.3410   -1.5445   -3.7212 H   0  0  0  0  0  0  0  0  0  0  0  0
   -5.4722   -1.9227   -2.4097 H   0  0  0  0  0  0  0  0  0  0  0  0
   -7.9131    1.0494   -2.9961 H   0  0  0  0  0  0  0  0  0  0  0  0
   -8.9267   -3.9840    0.5100 H   0  0  0  0  0  0  0  0  0  0  0  0
  -10.6487   -5.3040    1.6972 H   0  0  0  0  0  0  0  0  0  0  0  0
  -13.0375   -5.8241    2.1271 H   0  0  0  0  0  0  0  0  0  0  0  0
  -14.2289   -2.8663   -0.7084 H   0  0  0  0  0  0  0  0  0  0  0  0
  -12.5504   -1.5480   -1.8985 H   0  0  0  0  0  0  0  0  0  0  0  0
  1  2  2  0  0  0  0
  2  3  1  0  0  0  0
  3  4  2  0  0  0  0
  3  5  1  0  0  0  0
  5  6  2  0  0  0  0
  6  7  1  0  0  0  0
  7  8  2  0  0  0  0
  8  9  1  0  0  0  0
  9 10  2  0  0  0  0
 10 11  1  0  0  0  0
 11 12  2  0  0  0  0
 12 13  1  0  0  0  0
 13 14  3  0  0  0  0
 12 15  1  0  0  0  0
 15 16  3  0  0  0  0
  8 17  1  0  0  0  0
 17 18  1  0  0  0  0
 18 19  1  0  0  0  0
 19 20  2  0  0  0  0
 20 21  1  0  0  0  0
 21 22  1  0  0  0  0
 21 23  1  0  0  0  0
  1 24  1  0  0  0  0
 24 25  1  0  0  0  0
 25 26  1  0  0  0  0
 26 27  1  0  0  0  0
 27 28  1  0  0  0  0
 28 29  1  0  0  0  0
 29 30  2  0  0  0  0
 30 31  1  0  0  0  0
 31 32  1  0  0  0  0
 29 33  1  0  0  0  0
 33 34  1  0  0  0  0
 34 35  2  0  0  0  0
 35 36  1  0  0  0  0
 36 37  1  0  0  0  0
 37 38  1  0  0  0  0
 36 39  1  0  0  0  0
 39 40  1  0  0  0  0
 40 41  1  0  0  0  0
 41 42  1  0  0  0  0
 42 43  1  0  0  0  0
 41 44  1  0  0  0  0
 44 45  1  0  0  0  0
 35 46  1  0  0  0  0
 46 47  2  0  0  0  0
 47 48  1  0  0  0  0
 47 49  1  0  0  0  0
 49 50  2  0  0  0  0
 50 51  1  0  0  0  0
 51 52  2  0  0  0  0
 51 53  1  0  0  0  0
 53 54  2  0  0  0  0
 54 55  1  0  0  0  0
 55 56  2  0  0  0  0
 56 57  1  0  0  0  0
 57 58  2  0  0  0  0
 58 59  1  0  0  0  0
 58 60  1  0  0  0  0
 60 61  2  0  0  0  0
 61 62  1  0  0  0  0
 62 63  2  0  0  0  0
 63 64  1  0  0  0  0
 64 65  2  0  0  0  0
 65 66  1  0  0  0  0
 66 67  3  0  0  0  0
 65 68  1  0  0  0  0
 68 69  3  0  0  0  0
 11  2  1  0  0  0  0
 23 17  1  0  0  0  0
 43 24  2  0  0  0  0
 64 50  1  0  0  0  0
 10  5  1  0  0  0  0
 22 18  1  0  0  0  0
 42 26  2  0  0  0  0
 63 53  1  0  0  0  0
 23  7  1  0  0  0  0
 40 27  2  0  0  0  0
 61 55  1  0  0  0  0
 32 28  2  0  0  0  0
 39 33  2  0  0  0  0
 48 34  1  0  0  0  0
  1 70  1  0  0  0  0
  6 71  1  0  0  0  0
  9 72  1  0  0  0  0
 17 73  1  0  0  0  0
 18 74  1  0  0  0  0
 19 75  1  0  0  0  0
 20 76  1  0  0  0  0
 21 77  1  0  0  0  0
 22 78  1  0  0  0  0
 22 79  1  0  0  0  0
 23 80  1  0  0  0  0
 37 81  1  0  0  0  0
 37 82  1  0  0  0  0
 38 83  1  0  0  0  0
 38 84  1  0  0  0  0
 38 85  1  0  0  0  0
 43 86  1  0  0  0  0
 44 87  1  0  0  0  0
 44 88  1  0  0  0  0
 45 89  1  0  0  0  0
 45 90  1  0  0  0  0
 45 91  1  0  0  0  0
 46 92  1  0  0  0  0
 49 93  1  0  0  0  0
 54 94  1  0  0  0  0
 56 95  1  0  0  0  0
 57 96  1  0  0  0  0
 60 97  1  0  0  0  0
 62 98  1  0  0  0  0
M  END
