
  xtb     02102223083D
 energy: -193.432285367117 gnorm: 0.000256333904 xtb: 6.4.1 (unknown)
120133  0     0  0            999 V2000
    1.1511    6.3928   -1.3624 C   0  0  0  0  0  0  0  0  0  0  0  0
    2.0249    6.4418   -2.4111 C   0  0  0  0  0  0  0  0  0  0  0  0
    2.8371    5.3341   -2.9709 C   0  0  0  0  0  0  0  0  0  0  0  0
    2.7220    4.1364   -2.8052 O   0  0  0  0  0  0  0  0  0  0  0  0
    3.8998    5.9815   -3.7658 C   0  0  0  0  0  0  0  0  0  0  0  0
    4.9536    5.3410   -4.4147 C   0  0  0  0  0  0  0  0  0  0  0  0
    5.8021    6.1937   -5.0779 C   0  0  0  0  0  0  0  0  0  0  0  0
    5.6217    7.5833   -5.0895 C   0  0  0  0  0  0  0  0  0  0  0  0
    4.5891    8.2276   -4.4511 C   0  0  0  0  0  0  0  0  0  0  0  0
    3.7091    7.3759   -3.7751 C   0  0  0  0  0  0  0  0  0  0  0  0
    2.5139    7.6796   -2.9955 C   0  0  0  0  0  0  0  0  0  0  0  0
    1.9143    8.9093   -2.9037 C   0  0  0  0  0  0  0  0  0  0  0  0
    2.4113   10.0848   -3.5026 C   0  0  0  0  0  0  0  0  0  0  0  0
    2.7606   11.0796   -3.9581 N   0  0  0  0  0  0  0  0  0  0  0  0
    0.6967    9.1738   -2.2414 C   0  0  0  0  0  0  0  0  0  0  0  0
   -0.2986    9.4750   -1.7529 N   0  0  0  0  0  0  0  0  0  0  0  0
    6.8413    7.8144   -5.9473 C   0  0  0  0  0  0  0  0  0  0  0  0
    6.5865    8.1149   -7.4394 C   0  0  0  0  0  0  0  0  0  0  0  0
    7.9133    7.8179   -8.1000 C   0  0  0  0  0  0  0  0  0  0  0  0
    8.0833    6.5019   -8.0903 C   0  0  0  0  0  0  0  0  0  0  0  0
    6.8743    5.8875   -7.4226 C   0  0  0  0  0  0  0  0  0  0  0  0
    5.7922    6.8765   -7.8746 C   0  0  0  0  0  0  0  0  0  0  0  0
    7.0412    6.2649   -5.9354 C   0  0  0  0  0  0  0  0  0  0  0  0
    0.5738    5.2657   -0.7018 C   0  0  0  0  0  0  0  0  0  0  0  0
    0.1866    5.4281    0.6528 C   0  0  0  0  0  0  0  0  0  0  0  0
   -0.3096    4.3921    1.3963 C   0  0  0  0  0  0  0  0  0  0  0  0
   -0.4683    3.1386    0.7923 C   0  0  0  0  0  0  0  0  0  0  0  0
   -0.8933    1.8624    1.2019 C   0  0  0  0  0  0  0  0  0  0  0  0
   -0.8071    1.0088    0.0928 C   0  0  0  0  0  0  0  0  0  0  0  0
   -0.3589    1.6890   -0.9958 N   0  0  0  0  0  0  0  0  0  0  0  0
   -0.1370    2.9864   -0.5969 C   0  0  0  0  0  0  0  0  0  0  0  0
    0.3660    4.0359   -1.3345 C   0  0  0  0  0  0  0  0  0  0  0  0
   -0.1645    1.1512   -2.3171 C   0  0  0  0  0  0  0  0  0  0  0  0
   -1.3517    1.4680   -3.2249 C   0  0  0  0  0  0  0  0  0  0  0  0
   -1.1913   -0.2756    0.5143 C   0  0  0  0  0  0  0  0  0  0  0  0
   -1.3784   -1.5061   -0.1461 C   0  0  0  0  0  0  0  0  0  0  0  0
   -1.8178   -2.6427    0.5882 C   0  0  0  0  0  0  0  0  0  0  0  0
   -1.9416   -3.6557   -0.2734 N   0  0  0  0  0  0  0  0  0  0  0  0
   -1.5967   -3.1399   -1.4307 N   0  0  0  0  0  0  0  0  0  0  0  0
   -1.6514   -3.9015   -2.6439 C   0  0  0  0  0  0  0  0  0  0  0  0
   -3.0267   -3.7822   -3.2952 C   0  0  0  0  0  0  0  0  0  0  0  0
   -1.2503   -1.8742   -1.4233 N   0  0  0  0  0  0  0  0  0  0  0  0
   -1.9364   -2.5691    1.9916 C   0  0  0  0  0  0  0  0  0  0  0  0
   -1.6914   -1.3382    2.6686 C   0  0  0  0  0  0  0  0  0  0  0  0
   -1.4605   -0.1663    1.9082 C   0  0  0  0  0  0  0  0  0  0  0  0
   -1.3144    1.1555    2.3096 N   0  0  0  0  0  0  0  0  0  0  0  0
   -2.0957    1.8020    3.3411 C   0  0  0  0  0  0  0  0  0  0  0  0
   -3.2379    2.6291    2.7501 C   0  0  0  0  0  0  0  0  0  0  0  0
   -1.6666   -1.5663    4.0344 N   0  0  0  0  0  0  0  0  0  0  0  0
   -1.0951   -0.7563    5.0857 C   0  0  0  0  0  0  0  0  0  0  0  0
   -2.1221   -0.3847    6.1559 C   0  0  0  0  0  0  0  0  0  0  0  0
   -1.8909   -2.9107    4.2287 C   0  0  0  0  0  0  0  0  0  0  0  0
   -2.0940   -3.5405    2.9919 C   0  0  0  0  0  0  0  0  0  0  0  0
   -2.2665   -4.8796    3.1605 N   0  0  0  0  0  0  0  0  0  0  0  0
   -2.5972   -5.8301    2.1301 C   0  0  0  0  0  0  0  0  0  0  0  0
   -4.1011   -6.0936    2.0782 C   0  0  0  0  0  0  0  0  0  0  0  0
   -2.1669   -5.1309    4.5086 C   0  0  0  0  0  0  0  0  0  0  0  0
   -1.9101   -3.9105    5.2220 C   0  0  0  0  0  0  0  0  0  0  0  0
   -1.7268   -3.9750    6.6085 C   0  0  0  0  0  0  0  0  0  0  0  0
   -1.8094   -5.1875    7.2389 C   0  0  0  0  0  0  0  0  0  0  0  0
   -2.0592   -6.3950    6.5376 C   0  0  0  0  0  0  0  0  0  0  0  0
   -2.2432   -6.3475    5.1526 C   0  0  0  0  0  0  0  0  0  0  0  0
   -2.0993   -7.5932    7.3177 C   0  0  0  0  0  0  0  0  0  0  0  0
   -2.1871   -8.9165    7.0154 C   0  0  0  0  0  0  0  0  0  0  0  0
   -2.1878  -10.0604    8.3730 S   0  0  0  0  0  0  0  0  0  0  0  0
   -2.2308  -11.4688    7.2936 C   0  0  0  0  0  0  0  0  0  0  0  0
   -2.2444  -12.6115    7.6545 O   0  0  0  0  0  0  0  0  0  0  0  0
   -2.2561  -11.0234    6.0032 N   0  0  0  0  0  0  0  0  0  0  0  0
   -2.2520  -11.9744    4.9045 C   0  0  0  0  0  0  0  0  0  0  0  0
   -0.8322  -12.4047    4.5584 C   0  0  0  0  0  0  0  0  0  0  0  0
   -2.2429   -9.6577    5.7599 C   0  0  0  0  0  0  0  0  0  0  0  0
   -2.2770   -9.2243    4.6253 O   0  0  0  0  0  0  0  0  0  0  0  0
    0.9038    7.3446   -0.9044 H   0  0  0  0  0  0  0  0  0  0  0  0
    5.0587    4.2680   -4.3734 H   0  0  0  0  0  0  0  0  0  0  0  0
    4.4701    9.2982   -4.4588 H   0  0  0  0  0  0  0  0  0  0  0  0
    7.6161    8.4430   -5.5125 H   0  0  0  0  0  0  0  0  0  0  0  0
    6.1467    9.0882   -7.6388 H   0  0  0  0  0  0  0  0  0  0  0  0
    8.5947    8.5736   -8.4443 H   0  0  0  0  0  0  0  0  0  0  0  0
    8.9351    5.9389   -8.4245 H   0  0  0  0  0  0  0  0  0  0  0  0
    6.6972    4.8313   -7.6076 H   0  0  0  0  0  0  0  0  0  0  0  0
    4.8399    6.7575   -7.3613 H   0  0  0  0  0  0  0  0  0  0  0  0
    5.6318    6.8477   -8.9511 H   0  0  0  0  0  0  0  0  0  0  0  0
    7.9497    5.8603   -5.4928 H   0  0  0  0  0  0  0  0  0  0  0  0
    0.3225    6.3967    1.1111 H   0  0  0  0  0  0  0  0  0  0  0  0
   -0.5670    4.5357    2.4354 H   0  0  0  0  0  0  0  0  0  0  0  0
    0.5884    3.9181   -2.3797 H   0  0  0  0  0  0  0  0  0  0  0  0
    0.7561    1.5696   -2.7336 H   0  0  0  0  0  0  0  0  0  0  0  0
   -0.0620    0.0680   -2.2202 H   0  0  0  0  0  0  0  0  0  0  0  0
   -2.2566    1.0200   -2.8215 H   0  0  0  0  0  0  0  0  0  0  0  0
   -1.1765    1.0643   -4.2181 H   0  0  0  0  0  0  0  0  0  0  0  0
   -1.4997    2.5426   -3.3041 H   0  0  0  0  0  0  0  0  0  0  0  0
   -0.8789   -3.5138   -3.3111 H   0  0  0  0  0  0  0  0  0  0  0  0
   -1.4388   -4.9418   -2.3896 H   0  0  0  0  0  0  0  0  0  0  0  0
   -3.0544   -4.3641   -4.2120 H   0  0  0  0  0  0  0  0  0  0  0  0
   -3.7939   -4.1534   -2.6200 H   0  0  0  0  0  0  0  0  0  0  0  0
   -3.2395   -2.7426   -3.5321 H   0  0  0  0  0  0  0  0  0  0  0  0
   -2.5275    1.0309    3.9728 H   0  0  0  0  0  0  0  0  0  0  0  0
   -1.4432    2.4450    3.9420 H   0  0  0  0  0  0  0  0  0  0  0  0
   -3.8817    1.9960    2.1430 H   0  0  0  0  0  0  0  0  0  0  0  0
   -3.8298    3.0601    3.5535 H   0  0  0  0  0  0  0  0  0  0  0  0
   -2.8578    3.4337    2.1271 H   0  0  0  0  0  0  0  0  0  0  0  0
   -0.2988   -1.3441    5.5589 H   0  0  0  0  0  0  0  0  0  0  0  0
   -0.6365    0.1314    4.6496 H   0  0  0  0  0  0  0  0  0  0  0  0
   -1.6274    0.1350    6.9722 H   0  0  0  0  0  0  0  0  0  0  0  0
   -2.5956   -1.2813    6.5455 H   0  0  0  0  0  0  0  0  0  0  0  0
   -2.9065    0.2586    5.7649 H   0  0  0  0  0  0  0  0  0  0  0  0
   -2.2615   -5.4107    1.1783 H   0  0  0  0  0  0  0  0  0  0  0  0
   -2.0623   -6.7629    2.3276 H   0  0  0  0  0  0  0  0  0  0  0  0
   -4.6362   -5.1702    1.8685 H   0  0  0  0  0  0  0  0  0  0  0  0
   -4.4505   -6.4934    3.0271 H   0  0  0  0  0  0  0  0  0  0  0  0
   -4.3233   -6.8117    1.2943 H   0  0  0  0  0  0  0  0  0  0  0  0
   -1.5099   -3.0857    7.1806 H   0  0  0  0  0  0  0  0  0  0  0  0
   -1.6655   -5.2347    8.3084 H   0  0  0  0  0  0  0  0  0  0  0  0
   -2.4276   -7.2520    4.6019 H   0  0  0  0  0  0  0  0  0  0  0  0
   -2.0293   -7.4071    8.3851 H   0  0  0  0  0  0  0  0  0  0  0  0
   -2.7201  -11.4738    4.0537 H   0  0  0  0  0  0  0  0  0  0  0  0
   -2.8488  -12.8364    5.2101 H   0  0  0  0  0  0  0  0  0  0  0  0
   -0.8540  -13.1076    3.7305 H   0  0  0  0  0  0  0  0  0  0  0  0
   -0.3675  -12.8872    5.4151 H   0  0  0  0  0  0  0  0  0  0  0  0
   -0.2371  -11.5411    4.2699 H   0  0  0  0  0  0  0  0  0  0  0  0
  1  2  2  0  0  0  0
  2  3  1  0  0  0  0
  3  4  2  0  0  0  0
  3  5  1  0  0  0  0
  5  6  2  0  0  0  0
  6  7  1  0  0  0  0
  7  8  2  0  0  0  0
  8  9  1  0  0  0  0
  9 10  2  0  0  0  0
 10 11  1  0  0  0  0
 11 12  2  0  0  0  0
 12 13  1  0  0  0  0
 13 14  3  0  0  0  0
 12 15  1  0  0  0  0
 15 16  3  0  0  0  0
  8 17  1  0  0  0  0
 17 18  1  0  0  0  0
 18 19  1  0  0  0  0
 19 20  2  0  0  0  0
 20 21  1  0  0  0  0
 21 22  1  0  0  0  0
 21 23  1  0  0  0  0
  1 24  1  0  0  0  0
 24 25  2  0  0  0  0
 25 26  1  0  0  0  0
 26 27  2  0  0  0  0
 27 28  1  0  0  0  0
 28 29  2  0  0  0  0
 29 30  1  0  0  0  0
 30 31  1  0  0  0  0
 31 32  2  0  0  0  0
 30 33  1  0  0  0  0
 33 34  1  0  0  0  0
 29 35  1  0  0  0  0
 35 36  1  0  0  0  0
 36 37  1  0  0  0  0
 37 38  2  0  0  0  0
 38 39  1  0  0  0  0
 39 40  1  0  0  0  0
 40 41  1  0  0  0  0
 39 42  1  0  0  0  0
 37 43  1  0  0  0  0
 43 44  2  0  0  0  0
 44 45  1  0  0  0  0
 45 46  1  0  0  0  0
 46 47  1  0  0  0  0
 47 48  1  0  0  0  0
 44 49  1  0  0  0  0
 49 50  1  0  0  0  0
 50 51  1  0  0  0  0
 49 52  1  0  0  0  0
 52 53  2  0  0  0  0
 53 54  1  0  0  0  0
 54 55  1  0  0  0  0
 55 56  1  0  0  0  0
 54 57  1  0  0  0  0
 57 58  2  0  0  0  0
 58 59  1  0  0  0  0
 59 60  2  0  0  0  0
 60 61  1  0  0  0  0
 61 62  2  0  0  0  0
 61 63  1  0  0  0  0
 63 64  2  0  0  0  0
 64 65  1  0  0  0  0
 65 66  1  0  0  0  0
 66 67  2  0  0  0  0
 66 68  1  0  0  0  0
 68 69  1  0  0  0  0
 69 70  1  0  0  0  0
 68 71  1  0  0  0  0
 71 72  2  0  0  0  0
 11  2  1  0  0  0  0
 23 17  1  0  0  0  0
 32 24  1  0  0  0  0
 45 35  2  0  0  0  0
 58 52  1  0  0  0  0
 71 64  1  0  0  0  0
 10  5  1  0  0  0  0
 22 18  1  0  0  0  0
 31 27  1  0  0  0  0
 42 36  2  0  0  0  0
 53 43  1  0  0  0  0
 62 57  1  0  0  0  0
 23  7  1  0  0  0  0
 46 28  1  0  0  0  0
  1 73  1  0  0  0  0
  6 74  1  0  0  0  0
  9 75  1  0  0  0  0
 17 76  1  0  0  0  0
 18 77  1  0  0  0  0
 19 78  1  0  0  0  0
 20 79  1  0  0  0  0
 21 80  1  0  0  0  0
 22 81  1  0  0  0  0
 22 82  1  0  0  0  0
 23 83  1  0  0  0  0
 25 84  1  0  0  0  0
 26 85  1  0  0  0  0
 32 86  1  0  0  0  0
 33 87  1  0  0  0  0
 33 88  1  0  0  0  0
 34 89  1  0  0  0  0
 34 90  1  0  0  0  0
 34 91  1  0  0  0  0
 40 92  1  0  0  0  0
 40 93  1  0  0  0  0
 41 94  1  0  0  0  0
 41 95  1  0  0  0  0
 41 96  1  0  0  0  0
 47 97  1  0  0  0  0
 47 98  1  0  0  0  0
 48 99  1  0  0  0  0
 48100  1  0  0  0  0
 48101  1  0  0  0  0
 50102  1  0  0  0  0
 50103  1  0  0  0  0
 51104  1  0  0  0  0
 51105  1  0  0  0  0
 51106  1  0  0  0  0
 55107  1  0  0  0  0
 55108  1  0  0  0  0
 56109  1  0  0  0  0
 56110  1  0  0  0  0
 56111  1  0  0  0  0
 59112  1  0  0  0  0
 60113  1  0  0  0  0
 62114  1  0  0  0  0
 63115  1  0  0  0  0
 69116  1  0  0  0  0
 69117  1  0  0  0  0
 70118  1  0  0  0  0
 70119  1  0  0  0  0
 70120  1  0  0  0  0
M  END
