130

C         -6.93970       -0.22170        0.72720
C         -7.29820       -0.27520       -0.58460
C         -8.61430       -0.85450       -0.96510
O         -9.55260       -1.06530       -0.23000
C         -8.50040       -1.16450       -2.40440
C         -9.43140       -1.82500       -3.20280
C         -9.03760       -1.98290       -4.51000
C         -7.80000       -1.53340       -4.99070
C         -6.87290       -0.87650       -4.21750
C         -7.26310       -0.69030       -2.88970
C         -6.58450        0.01700       -1.80740
C         -5.64340        1.00060       -1.97260
C         -5.28490        1.89320       -0.94180
N         -5.02220        2.67210       -0.14000
C         -5.01790        1.30360       -3.19690
N         -4.45450        1.57730       -4.15950
C         -8.07350       -2.02690       -6.38900
C         -8.46890       -0.97540       -7.45490
C         -9.10570        0.17120       -6.70900
C        -10.28070       -0.24450       -6.25540
C        -10.45950       -1.67940       -6.68610
C         -9.72190       -1.65100       -8.03440
C         -9.45610       -2.51890       -5.85620
C         -5.65970       -0.11920        1.31310
C         -5.41880        0.12110        2.66160
C         -6.46050        0.36880        3.66750
C         -6.61400       -0.57860        4.67600
C         -7.57830       -0.41820        5.65160
C         -8.39070        0.70230        5.63050
C         -8.22350        1.65610        4.64320
C         -7.26460        1.51190        3.64860
C         -7.04340        2.61670        2.65680
C         -5.84630        3.47280        3.07530
C         -4.05310        0.05940        2.96130
S         -3.15990        0.31770        4.44130
C         -1.69490        0.02530        3.57010
C         -0.31460       -0.02970        3.80500
C          0.41570        0.09210        5.00710
C          1.83560       -0.08810        4.97280
N          2.38850        0.01010        6.17180
S          1.21960        0.30980        7.25050
N         -0.03620        0.32220        6.23010
C          2.46490       -0.29560        3.72600
C          3.82410       -0.39070        3.40000
S          5.36390       -0.36260        4.18660
C          6.13140       -0.48070        2.61950
C          7.47080       -0.49460        2.22180
C          8.60480       -0.45780        3.15390
C          9.50530        0.61150        3.18800
C          9.30250        1.84360        2.35440
C          8.24170        2.74400        2.99120
C         10.55280        0.55780        4.09850
C         10.71490       -0.51840        4.95170
C          9.80810       -1.56390        4.92360
C          8.75440       -1.52810        4.03140
C          7.59620       -0.57580        0.83540
S          6.02650       -0.65740        0.03700
C          5.21910       -0.54460        1.55560
C          3.89880       -0.49020        2.00550
N          2.64170       -0.48190        1.46350
C          1.73280       -0.36270        2.50320
C          0.31330       -0.31480        2.55630
N         -0.67990       -0.45870        1.60030
C         -1.88610       -0.25610        2.21250
C         -3.23890       -0.23920        1.86090
S         -4.17440       -0.46340        0.42910
C         -0.64570       -1.06680        0.28950
C         -0.17750       -2.51850        0.36050
C          2.49440       -0.21800        0.04840
C          2.04280        1.21710       -0.20910
C          8.81180       -0.73930        0.14660
C          9.06270       -0.72860       -1.19510
C         10.26370       -1.43200       -1.71570
O         11.21920       -1.80150       -1.07450
C          9.99320       -1.62400       -3.15870
C         10.70350       -2.33530       -4.11190
Cl        12.16740       -3.13430       -3.70810
C         10.20770       -2.39450       -5.41330
C          9.02640       -1.75280       -5.74040
C          8.30790       -1.02610       -4.79780
C          8.79770       -0.96370       -3.50620
C          8.29480       -0.26530       -2.32340
C          7.45790        0.82150       -2.34080
C          7.28520        1.66550       -1.22440
N          7.17810        2.40420       -0.35200
C          6.76310        1.26920       -3.48020
N          6.14680        1.65660       -4.36810
H         -7.75150       -0.36410        1.43590
H        -10.37140       -2.16240       -2.79490
H         -5.92080       -0.53780       -4.59260
H         -7.38220       -2.77260       -6.77670
H         -7.67380       -0.71410       -8.14790
H         -8.62540        1.11780       -6.54410
H        -10.97940        0.28610       -5.63540
H        -11.47780       -2.05900       -6.68050
H         -9.53050       -2.64130       -8.44570
H        -10.22660       -1.03530       -8.77730
H         -9.67120       -3.58490       -5.90120
H         -5.97670       -1.45120        4.67970
H         -7.69350       -1.16360        6.42380
H         -9.14880        0.83710        6.38740
H         -8.84880        2.53730        4.64090
H         -6.85600        2.21930        1.65910
H         -7.93530        3.24370        2.60720
H         -5.68460        4.26400        2.34900
H         -6.01680        3.91640        4.05390
H         -4.94510        2.86670        3.12410
H          8.98290        1.59020        1.34350
H         10.24350        2.39150        2.28190
H          7.29580        2.21450        3.07650
H          8.08540        3.62490        2.37510
H          8.55200        3.05600        3.98610
H         11.25320        1.37970        4.13650
H         11.54360       -0.53750        5.64360
H          9.92000       -2.40350        5.59260
H          8.04320       -2.34070        3.99630
H         -1.66910       -1.03820       -0.09250
H         -0.03610       -0.47580       -0.39350
H         -0.13290       -2.94360       -0.63850
H          0.80480       -2.59400        0.82120
H         -0.87500       -3.10460        0.95470
H          1.82460       -0.94400       -0.41080
H          3.48030       -0.36750       -0.39860
H          1.92530        1.38260       -1.27650
H          2.78940        1.91310        0.16630
H          1.09910        1.43030        0.28790
H          9.65550       -1.01600        0.77340
H         10.75460       -2.94740       -6.16030
H          8.65450       -1.81700       -6.75160
H          7.38770       -0.53730       -5.07380
