107

C         -2.60860       -1.89880       -4.55170
C         -3.12720       -1.53610       -5.76790
C         -3.30910       -0.16890       -6.27570
O         -3.20720        0.87520       -5.65910
C         -3.62780       -0.30200       -7.70850
C         -3.80060        0.73140       -8.62640
C         -4.06040        0.30300       -9.90620
C         -4.14060       -1.05350      -10.24830
C         -3.97430       -2.08230       -9.35170
C         -3.71170       -1.66820       -8.04220
C         -3.47150       -2.45600       -6.83490
C         -3.61440       -3.81700       -6.73720
C         -3.47030       -4.57200       -5.55570
N         -3.38920       -5.25890       -4.63750
C         -3.97620       -4.66180       -7.80710
N         -4.26090       -5.41340       -8.62720
C         -4.42080       -0.75350      -11.69970
C         -5.88450       -0.90300      -12.16550
C         -5.93860       -0.10330      -13.44720
C         -5.86210        1.18150      -13.12460
C         -5.75560        1.27200      -11.61930
C         -6.61160        0.06290      -11.22090
C         -4.33140        0.75910      -11.31830
C         -2.21940       -1.12480       -3.44750
S         -2.46130        0.62100       -3.32200
C         -1.75450        0.59450       -1.76910
C         -1.37790        1.50080       -0.75870
C         -1.61180        2.88020       -0.55310
C         -1.14450        3.50090        0.66050
N         -1.49700        4.77390        0.74230
S         -2.33450        5.16370       -0.58670
N         -2.28190        3.72490       -1.32000
C         -0.33660        2.75450        1.54990
C          0.41710        3.09530        2.68270
S          0.71170        4.46840        3.69220
C          1.88670        3.52170        4.58720
C          2.71710        3.82930        5.65370
C          2.77550        5.19100        6.26390
C          3.87690        6.03040        5.60980
C          3.52080        2.72860        6.01160
S          3.19260        1.31080        5.00890
C          2.02270        2.20290        4.11510
C          1.17610        1.96580        3.03200
N          0.89350        0.92870        2.17960
C         -0.04400        1.38850        1.27940
C         -0.69480        0.73700        0.21520
N         -0.72050       -0.61340       -0.12050
C         -1.34520       -0.68960       -1.36250
C         -1.58960       -1.67680       -2.31360
C         -1.17300       -3.11250       -2.19640
C         -2.29690       -4.02350       -1.69590
C         -1.00600       -1.61140        0.89960
C         -2.48360       -1.58640        1.29190
C          1.85650       -0.13130        1.96120
C          3.16550        0.42290        1.40090
C          4.48040        2.78920        7.02260
C          5.36060        1.84030        7.49270
C          5.44420        0.44820        7.05470
O          4.79570       -0.10760        6.18510
C          6.48520       -0.18090        7.89460
C          6.92220       -1.48840        7.88080
C          7.91910       -1.83380        8.78360
Br         8.56480       -3.62090        8.81350
C          8.45590       -0.90560        9.66490
C          8.00840        0.40770        9.66870
C          7.01370        0.77790        8.77590
C          6.34250        2.05570        8.53510
C          6.63940        3.23140        9.17790
C          6.03150        4.48070        8.93730
N          5.59480        5.53420        8.79440
C          7.62620        3.35790       10.17780
N          8.41250        3.53140       10.99620
H         -2.44350       -2.95950       -4.41640
H         -3.72220        1.76280       -8.32030
H         -4.02870       -3.12030       -9.63390
H         -3.70390       -1.15430      -12.41390
H         -6.24510       -1.92690      -12.21090
H         -5.96910       -0.54210      -14.42720
H         -5.81590        2.03040      -13.78140
H         -5.99970        2.23000      -11.16820
H         -6.53800       -0.20560      -10.16870
H         -7.65820        0.19260      -11.49120
H         -3.55400        1.36700      -11.77770
H          2.95280        5.13500        7.33860
H          1.81240        5.67890        6.10060
H          3.69680        6.12380        4.54140
H          4.85140        5.57270        5.76150
H          3.89270        7.02270        6.05060
H         -0.83130       -3.47580       -3.16710
H         -0.32120       -3.17260       -1.51600
H         -2.65160       -3.70860       -0.71830
H         -1.93350       -5.04490       -1.62020
H         -3.13530       -4.01700       -2.38680
H         -0.41120       -1.40160        1.78780
H         -0.73270       -2.59460        0.51500
H         -3.11730       -1.74060        0.42170
H         -2.68680       -2.36820        2.01870
H         -2.73800       -0.62470        1.73310
H          2.04410       -0.63040        2.91660
H          1.44940       -0.84400        1.24660
H          3.62970        1.10860        2.10390
H          3.85460       -0.39550        1.21370
H          2.98190        0.94790        0.46560
H          4.53300        3.75590        7.50440
H          6.50080       -2.20550        7.19360
H          9.22850       -1.20940       10.35430
H          8.43890        1.10950       10.36360
