
  xtb     02102223303D
 energy: -210.610522488221 gnorm: 0.000818035051 xtb: 6.4.1 (unknown)
129143  0     0  0            999 V2000
    2.1833   -2.6123    6.9401 C   0  0  0  0  0  0  0  0  0  0  0  0
    1.2076   -3.2844    7.6147 C   0  0  0  0  0  0  0  0  0  0  0  0
   -0.0968   -3.7597    7.0901 C   0  0  0  0  0  0  0  0  0  0  0  0
   -0.7160   -3.3795    6.1180 O   0  0  0  0  0  0  0  0  0  0  0  0
   -0.5000   -4.8647    7.9849 C   0  0  0  0  0  0  0  0  0  0  0  0
   -1.5893   -5.7171    7.8145 C   0  0  0  0  0  0  0  0  0  0  0  0
   -1.6992   -6.6849    8.7837 C   0  0  0  0  0  0  0  0  0  0  0  0
   -0.7911   -6.8021    9.8447 C   0  0  0  0  0  0  0  0  0  0  0  0
    0.2829   -5.9649   10.0293 C   0  0  0  0  0  0  0  0  0  0  0  0
    0.4096   -4.9700    9.0547 C   0  0  0  0  0  0  0  0  0  0  0  0
    1.4194   -3.9304    8.8999 C   0  0  0  0  0  0  0  0  0  0  0  0
    2.3503   -3.5669    9.8370 C   0  0  0  0  0  0  0  0  0  0  0  0
    3.2382   -2.4783    9.7023 C   0  0  0  0  0  0  0  0  0  0  0  0
    3.9736   -1.5964    9.6801 N   0  0  0  0  0  0  0  0  0  0  0  0
    2.5038   -4.1960   11.0891 C   0  0  0  0  0  0  0  0  0  0  0  0
    2.6791   -4.6685   12.1211 N   0  0  0  0  0  0  0  0  0  0  0  0
   -1.4973   -8.0037   10.4221 C   0  0  0  0  0  0  0  0  0  0  0  0
   -2.3795   -7.7571   11.6637 C   0  0  0  0  0  0  0  0  0  0  0  0
   -3.2919   -8.9616   11.7035 C   0  0  0  0  0  0  0  0  0  0  0  0
   -4.1548   -8.8474   10.7020 C   0  0  0  0  0  0  0  0  0  0  0  0
   -3.8399   -7.5637    9.9682 C   0  0  0  0  0  0  0  0  0  0  0  0
   -3.3605   -6.6995   11.1416 C   0  0  0  0  0  0  0  0  0  0  0  0
   -2.5128   -7.8699    9.2422 C   0  0  0  0  0  0  0  0  0  0  0  0
    2.1333   -1.9681    5.6640 C   0  0  0  0  0  0  0  0  0  0  0  0
    3.3311   -1.9335    4.9073 C   0  0  0  0  0  0  0  0  0  0  0  0
    3.3774   -1.4056    3.6457 C   0  0  0  0  0  0  0  0  0  0  0  0
    2.2164   -0.8408    3.1051 C   0  0  0  0  0  0  0  0  0  0  0  0
    1.8624   -0.2237    1.8919 C   0  0  0  0  0  0  0  0  0  0  0  0
    0.5157    0.1554    1.9837 C   0  0  0  0  0  0  0  0  0  0  0  0
    0.0048   -0.2018    3.1930 N   0  0  0  0  0  0  0  0  0  0  0  0
    1.0174   -0.8134    3.8949 C   0  0  0  0  0  0  0  0  0  0  0  0
    0.9760   -1.3721    5.1553 C   0  0  0  0  0  0  0  0  0  0  0  0
   -1.3373    0.0393    3.6551 C   0  0  0  0  0  0  0  0  0  0  0  0
   -1.4045    1.2778    4.5467 C   0  0  0  0  0  0  0  0  0  0  0  0
    0.1651    0.7719    0.7701 C   0  0  0  0  0  0  0  0  0  0  0  0
   -0.9794    1.4546    0.3104 C   0  0  0  0  0  0  0  0  0  0  0  0
   -0.9739    2.0556   -0.9799 C   0  0  0  0  0  0  0  0  0  0  0  0
   -2.1425    2.6827   -1.1372 N   0  0  0  0  0  0  0  0  0  0  0  0
   -2.7816    2.4629   -0.0109 N   0  0  0  0  0  0  0  0  0  0  0  0
   -4.1112    2.9506    0.2113 C   0  0  0  0  0  0  0  0  0  0  0  0
   -5.1485    1.9493   -0.2896 C   0  0  0  0  0  0  0  0  0  0  0  0
   -2.1518    1.7379    0.8833 N   0  0  0  0  0  0  0  0  0  0  0  0
    0.1127    1.8382   -1.8526 C   0  0  0  0  0  0  0  0  0  0  0  0
    1.2374    1.0791   -1.4158 C   0  0  0  0  0  0  0  0  0  0  0  0
    1.3211    0.6911   -0.0571 C   0  0  0  0  0  0  0  0  0  0  0  0
    2.3642    0.1123    0.6523 N   0  0  0  0  0  0  0  0  0  0  0  0
    3.7629    0.4380    0.4841 C   0  0  0  0  0  0  0  0  0  0  0  0
    4.2359    1.4507    1.5275 C   0  0  0  0  0  0  0  0  0  0  0  0
    2.0620    0.8173   -2.4971 N   0  0  0  0  0  0  0  0  0  0  0  0
    3.0683   -0.2104   -2.6405 C   0  0  0  0  0  0  0  0  0  0  0  0
    4.4355    0.3602   -3.0189 C   0  0  0  0  0  0  0  0  0  0  0  0
    1.4841    1.4021   -3.6015 C   0  0  0  0  0  0  0  0  0  0  0  0
    0.3088    2.0694   -3.2227 C   0  0  0  0  0  0  0  0  0  0  0  0
   -0.2927    2.6299   -4.3064 N   0  0  0  0  0  0  0  0  0  0  0  0
   -1.4357    3.5065   -4.2825 C   0  0  0  0  0  0  0  0  0  0  0  0
   -1.0211    4.9716   -4.4082 C   0  0  0  0  0  0  0  0  0  0  0  0
    0.4919    2.3369   -5.3972 C   0  0  0  0  0  0  0  0  0  0  0  0
    1.6126    1.5297   -4.9988 C   0  0  0  0  0  0  0  0  0  0  0  0
    2.4772    1.0453   -5.9888 C   0  0  0  0  0  0  0  0  0  0  0  0
    2.2603    1.3947   -7.2942 C   0  0  0  0  0  0  0  0  0  0  0  0
    1.2055    2.2589   -7.6769 C   0  0  0  0  0  0  0  0  0  0  0  0
    0.2946    2.6990   -6.7121 C   0  0  0  0  0  0  0  0  0  0  0  0
    1.0946    2.6071   -9.0577 C   0  0  0  0  0  0  0  0  0  0  0  0
    0.5736    3.7357   -9.6226 C   0  0  0  0  0  0  0  0  0  0  0  0
    0.2877    5.0228   -8.9473 C   0  0  0  0  0  0  0  0  0  0  0  0
    0.2233    5.2717   -7.7600 O   0  0  0  0  0  0  0  0  0  0  0  0
    0.1571    6.0147  -10.0369 C   0  0  0  0  0  0  0  0  0  0  0  0
   -0.0361    7.3755   -9.9134 C   0  0  0  0  0  0  0  0  0  0  0  0
   -0.1190    8.1339  -11.0819 C   0  0  0  0  0  0  0  0  0  0  0  0
   -0.3009    9.4729  -11.1211 O   0  0  0  0  0  0  0  0  0  0  0  0
   -0.3988   10.1799   -9.9056 C   0  0  0  0  0  0  0  0  0  0  0  0
   -0.0091    7.5000  -12.3279 C   0  0  0  0  0  0  0  0  0  0  0  0
    0.1802    6.1377  -12.4409 C   0  0  0  0  0  0  0  0  0  0  0  0
    0.2680    5.3762  -11.2809 C   0  0  0  0  0  0  0  0  0  0  0  0
    0.4701    3.9536  -11.0578 C   0  0  0  0  0  0  0  0  0  0  0  0
    0.4790    2.9844  -12.0275 C   0  0  0  0  0  0  0  0  0  0  0  0
    0.3559    3.2512  -13.4063 C   0  0  0  0  0  0  0  0  0  0  0  0
    0.2721    3.4055  -14.5413 N   0  0  0  0  0  0  0  0  0  0  0  0
    0.5642    1.5971  -11.7889 C   0  0  0  0  0  0  0  0  0  0  0  0
    0.6073    0.4539  -11.6829 N   0  0  0  0  0  0  0  0  0  0  0  0
    3.1736   -2.6373    7.3835 H   0  0  0  0  0  0  0  0  0  0  0  0
   -2.2587   -5.5998    6.9767 H   0  0  0  0  0  0  0  0  0  0  0  0
    0.9822   -6.0724   10.8418 H   0  0  0  0  0  0  0  0  0  0  0  0
   -0.9024   -8.9122   10.4960 H   0  0  0  0  0  0  0  0  0  0  0  0
   -1.8312   -7.5272   12.5731 H   0  0  0  0  0  0  0  0  0  0  0  0
   -3.1835   -9.7739   12.3981 H   0  0  0  0  0  0  0  0  0  0  0  0
   -4.9109   -9.5452   10.3929 H   0  0  0  0  0  0  0  0  0  0  0  0
   -4.6235   -7.1581    9.3338 H   0  0  0  0  0  0  0  0  0  0  0  0
   -4.1583   -6.4914   11.8526 H   0  0  0  0  0  0  0  0  0  0  0  0
   -2.8876   -5.7663   10.8412 H   0  0  0  0  0  0  0  0  0  0  0  0
   -2.5964   -8.6905    8.5317 H   0  0  0  0  0  0  0  0  0  0  0  0
    4.2203   -2.3724    5.3355 H   0  0  0  0  0  0  0  0  0  0  0  0
    4.2946   -1.4246    3.0757 H   0  0  0  0  0  0  0  0  0  0  0  0
    0.0791   -1.3366    5.7476 H   0  0  0  0  0  0  0  0  0  0  0  0
   -1.9657    0.1933    2.7750 H   0  0  0  0  0  0  0  0  0  0  0  0
   -1.6834   -0.8428    4.2012 H   0  0  0  0  0  0  0  0  0  0  0  0
   -1.0941    2.1556    3.9849 H   0  0  0  0  0  0  0  0  0  0  0  0
   -2.4227    1.4291    4.8938 H   0  0  0  0  0  0  0  0  0  0  0  0
   -0.7524    1.1665    5.4099 H   0  0  0  0  0  0  0  0  0  0  0  0
   -4.2251    3.1131    1.2850 H   0  0  0  0  0  0  0  0  0  0  0  0
   -4.2081    3.8982   -0.3228 H   0  0  0  0  0  0  0  0  0  0  0  0
   -6.1489    2.3373   -0.1208 H   0  0  0  0  0  0  0  0  0  0  0  0
   -5.0148    1.7727   -1.3541 H   0  0  0  0  0  0  0  0  0  0  0  0
   -5.0440    1.0050    0.2390 H   0  0  0  0  0  0  0  0  0  0  0  0
    3.8931    0.8794   -0.4998 H   0  0  0  0  0  0  0  0  0  0  0  0
    4.3588   -0.4784    0.5558 H   0  0  0  0  0  0  0  0  0  0  0  0
    4.1306    1.0550    2.5336 H   0  0  0  0  0  0  0  0  0  0  0  0
    5.2818    1.6912    1.3551 H   0  0  0  0  0  0  0  0  0  0  0  0
    3.6505    2.3648    1.4524 H   0  0  0  0  0  0  0  0  0  0  0  0
    2.7407   -0.8855   -3.4410 H   0  0  0  0  0  0  0  0  0  0  0  0
    3.1227   -0.7914   -1.7192 H   0  0  0  0  0  0  0  0  0  0  0  0
    4.8498    0.9866   -2.2330 H   0  0  0  0  0  0  0  0  0  0  0  0
    4.3520    0.9685   -3.9146 H   0  0  0  0  0  0  0  0  0  0  0  0
    5.1296   -0.4539   -3.2100 H   0  0  0  0  0  0  0  0  0  0  0  0
   -2.1057    3.2351   -5.1043 H   0  0  0  0  0  0  0  0  0  0  0  0
   -1.9497    3.3399   -3.3321 H   0  0  0  0  0  0  0  0  0  0  0  0
   -0.4993    5.1459   -5.3461 H   0  0  0  0  0  0  0  0  0  0  0  0
   -0.3635    5.2443   -3.5861 H   0  0  0  0  0  0  0  0  0  0  0  0
   -1.9019    5.6070   -4.3738 H   0  0  0  0  0  0  0  0  0  0  0  0
    3.2954    0.3881   -5.7365 H   0  0  0  0  0  0  0  0  0  0  0  0
    2.9245    1.0261   -8.0622 H   0  0  0  0  0  0  0  0  0  0  0  0
   -0.5645    3.2775   -7.0023 H   0  0  0  0  0  0  0  0  0  0  0  0
    1.5475    1.8922   -9.7361 H   0  0  0  0  0  0  0  0  0  0  0  0
   -0.1165    7.8076   -8.9287 H   0  0  0  0  0  0  0  0  0  0  0  0
   -1.2680    9.8577   -9.3244 H   0  0  0  0  0  0  0  0  0  0  0  0
    0.5066   10.0657   -9.3021 H   0  0  0  0  0  0  0  0  0  0  0  0
   -0.5180   11.2256  -10.1833 H   0  0  0  0  0  0  0  0  0  0  0  0
   -0.0747    8.1178  -13.2095 H   0  0  0  0  0  0  0  0  0  0  0  0
    0.2665    5.6896  -13.4171 H   0  0  0  0  0  0  0  0  0  0  0  0
  1  2  2  0  0  0  0
  2  3  1  0  0  0  0
  3  4  2  0  0  0  0
  3  5  1  0  0  0  0
  5  6  2  0  0  0  0
  6  7  1  0  0  0  0
  7  8  2  0  0  0  0
  8  9  1  0  0  0  0
  9 10  2  0  0  0  0
 10 11  1  0  0  0  0
 11 12  2  0  0  0  0
 12 13  1  0  0  0  0
 13 14  3  0  0  0  0
 12 15  1  0  0  0  0
 15 16  3  0  0  0  0
  8 17  1  0  0  0  0
 17 18  1  0  0  0  0
 18 19  1  0  0  0  0
 19 20  2  0  0  0  0
 20 21  1  0  0  0  0
 21 22  1  0  0  0  0
 21 23  1  0  0  0  0
  1 24  1  0  0  0  0
 24 25  2  0  0  0  0
 25 26  1  0  0  0  0
 26 27  2  0  0  0  0
 27 28  1  0  0  0  0
 28 29  2  0  0  0  0
 29 30  1  0  0  0  0
 30 31  1  0  0  0  0
 31 32  2  0  0  0  0
 30 33  1  0  0  0  0
 33 34  1  0  0  0  0
 29 35  1  0  0  0  0
 35 36  1  0  0  0  0
 36 37  1  0  0  0  0
 37 38  2  0  0  0  0
 38 39  1  0  0  0  0
 39 40  1  0  0  0  0
 40 41  1  0  0  0  0
 39 42  1  0  0  0  0
 37 43  1  0  0  0  0
 43 44  2  0  0  0  0
 44 45  1  0  0  0  0
 45 46  1  0  0  0  0
 46 47  1  0  0  0  0
 47 48  1  0  0  0  0
 44 49  1  0  0  0  0
 49 50  1  0  0  0  0
 50 51  1  0  0  0  0
 49 52  1  0  0  0  0
 52 53  2  0  0  0  0
 53 54  1  0  0  0  0
 54 55  1  0  0  0  0
 55 56  1  0  0  0  0
 54 57  1  0  0  0  0
 57 58  2  0  0  0  0
 58 59  1  0  0  0  0
 59 60  2  0  0  0  0
 60 61  1  0  0  0  0
 61 62  2  0  0  0  0
 61 63  1  0  0  0  0
 63 64  2  0  0  0  0
 64 65  1  0  0  0  0
 65 66  2  0  0  0  0
 65 67  1  0  0  0  0
 67 68  2  0  0  0  0
 68 69  1  0  0  0  0
 69 70  1  0  0  0  0
 70 71  1  0  0  0  0
 69 72  2  0  0  0  0
 72 73  1  0  0  0  0
 73 74  2  0  0  0  0
 74 75  1  0  0  0  0
 75 76  2  0  0  0  0
 76 77  1  0  0  0  0
 77 78  3  0  0  0  0
 76 79  1  0  0  0  0
 79 80  3  0  0  0  0
 11  2  1  0  0  0  0
 23 17  1  0  0  0  0
 32 24  1  0  0  0  0
 45 35  2  0  0  0  0
 58 52  1  0  0  0  0
 75 64  1  0  0  0  0
 10  5  1  0  0  0  0
 22 18  1  0  0  0  0
 31 27  1  0  0  0  0
 42 36  2  0  0  0  0
 53 43  1  0  0  0  0
 62 57  1  0  0  0  0
 74 67  1  0  0  0  0
 23  7  1  0  0  0  0
 46 28  1  0  0  0  0
  1 81  1  0  0  0  0
  6 82  1  0  0  0  0
  9 83  1  0  0  0  0
 17 84  1  0  0  0  0
 18 85  1  0  0  0  0
 19 86  1  0  0  0  0
 20 87  1  0  0  0  0
 21 88  1  0  0  0  0
 22 89  1  0  0  0  0
 22 90  1  0  0  0  0
 23 91  1  0  0  0  0
 25 92  1  0  0  0  0
 26 93  1  0  0  0  0
 32 94  1  0  0  0  0
 33 95  1  0  0  0  0
 33 96  1  0  0  0  0
 34 97  1  0  0  0  0
 34 98  1  0  0  0  0
 34 99  1  0  0  0  0
 40100  1  0  0  0  0
 40101  1  0  0  0  0
 41102  1  0  0  0  0
 41103  1  0  0  0  0
 41104  1  0  0  0  0
 47105  1  0  0  0  0
 47106  1  0  0  0  0
 48107  1  0  0  0  0
 48108  1  0  0  0  0
 48109  1  0  0  0  0
 50110  1  0  0  0  0
 50111  1  0  0  0  0
 51112  1  0  0  0  0
 51113  1  0  0  0  0
 51114  1  0  0  0  0
 55115  1  0  0  0  0
 55116  1  0  0  0  0
 56117  1  0  0  0  0
 56118  1  0  0  0  0
 56119  1  0  0  0  0
 59120  1  0  0  0  0
 60121  1  0  0  0  0
 62122  1  0  0  0  0
 63123  1  0  0  0  0
 68124  1  0  0  0  0
 71125  1  0  0  0  0
 71126  1  0  0  0  0
 71127  1  0  0  0  0
 72128  1  0  0  0  0
 73129  1  0  0  0  0
M  END
