104

C         -2.34070        1.29850       -6.55380
C         -3.58260        1.61320       -6.09810
C         -4.77150        1.41450       -6.96920
O         -4.76930        1.23000       -8.16560
C         -5.92840        1.42790       -6.05210
C         -7.25810        1.15660       -6.36600
C         -8.11250        1.22260       -5.29150
C         -7.67960        1.52290       -3.99240
C         -6.37310        1.79950       -3.66750
C         -5.49130        1.75060       -4.74930
C         -4.06040        2.03230       -4.79910
C         -3.36570        2.80580       -3.90540
C         -2.07390        3.30450       -4.17380
N         -1.04490        3.76680       -4.38830
C         -3.88440        3.26310       -2.67920
N         -4.24300        3.63630       -1.65420
C         -9.06920        1.41040       -3.41760
C         -9.81840        2.72500       -3.08870
C         -9.25010        3.78060       -4.00470
C         -9.65840        3.50870       -5.23700
C        -10.51030        2.26490       -5.17650
C        -11.15550        2.44580       -3.79320
C         -9.55290        1.08710       -4.86650
C         -1.17260        1.00400       -5.81530
C          0.13110        1.01630       -6.29170
C          0.53690        1.50420       -7.64080
C          0.60660        3.03340       -7.65170
C          1.03970        0.62510       -5.30240
C          0.45190        0.27340       -4.08040
S         -1.26270        0.44360       -4.14610
C          1.40970       -0.10170       -3.13400
C          2.71070       -0.01710       -3.64770
S          2.78200        0.49510       -5.29570
C          3.58820       -0.31200       -2.59500
C          4.99470       -0.21500       -2.49890
N          5.86820        0.07630       -3.44970
S          7.34060        0.16620       -2.78500
N          6.92230       -0.16420       -1.25740
C          5.61410       -0.36020       -1.21270
C          4.81480       -0.72650       -0.10660
C          5.14180       -1.00360        1.22900
S          6.51990       -0.97090        2.27270
C          5.51310       -1.55510        3.57930
C          5.77110       -1.85210        4.90850
C          4.64110       -2.29600        5.58070
S          3.22950       -2.34250        4.51010
C          4.17200       -1.76450        3.19510
C          3.96620       -1.44060        1.85480
N          2.92210       -1.42660        0.96330
C          1.80200       -2.31380        1.19670
C          2.24200       -3.77740        1.16650
C          3.41610       -0.96050       -0.24290
C          2.78110       -0.61680       -1.46210
N          1.45250       -0.46640       -1.81430
C          0.28710       -0.28670       -0.97550
C         -0.74560       -1.39560       -1.17680
C          4.40970       -2.72110        6.89880
C          5.22320       -2.76690        8.00230
C          6.60500       -2.26390        8.14970
O          7.35050       -1.81040        7.30640
C          6.92940       -2.40810        9.58590
C          8.09090       -2.03950       10.23350
C          8.14330       -2.27070       11.59950
F          9.25210       -1.92900       12.27660
C          7.08850       -2.84110       12.29680
C          5.92940       -3.20980       11.63120
C          5.84780       -2.99470       10.26230
C          4.78890       -3.27380        9.29410
C          3.62990       -3.94880        9.57810
C          3.28530       -4.42300       10.86220
N          2.93570       -4.83380       11.87570
C          2.62140       -4.30950        8.65900
N          1.75640       -4.66140        7.98980
H         -2.26210        1.17510       -7.63000
H         -7.55300        0.92240       -7.37690
H         -6.04520        2.02500       -2.66570
H         -9.20850        0.64910       -2.65260
H         -9.85070        2.97390       -2.03140
H         -8.58380        4.55830       -3.68050
H         -9.40140        4.01470       -6.14920
H        -11.17400        2.09610       -6.02040
H        -11.65970        1.55150       -3.42910
H        -11.83710        3.29400       -3.75420
H        -10.01590        0.11880       -5.04680
H          1.51930        1.09280       -7.88060
H         -0.17710        1.16690       -8.39480
H          0.91240        3.38610       -8.63300
H          1.32470        3.38280       -6.91440
H         -0.36390        3.45990       -7.40970
H          6.72800       -1.75280        5.38630
H          1.37790       -2.07350        2.17640
H          1.04940       -2.16220        0.43270
H          2.69190       -4.01630        0.20490
H          2.96600       -3.98410        1.94970
H          1.37910       -4.41940        1.31920
H         -0.17390        0.66970       -1.24810
H          0.60690       -0.21100        0.06430
H         -1.54700       -1.28430       -0.45200
H         -1.17400       -1.33190       -2.17330
H         -0.30540       -2.38440       -1.06670
H          3.39120       -3.05780        7.05430
H          8.91600       -1.59300        9.70200
H          7.18340       -2.99290       13.36040
H          5.11720       -3.64910       12.18570
