89

C         -1.06150        3.46860       -2.94060
C         -0.33200        3.16020       -4.05380
C          0.02960        4.25800       -4.99100
O         -0.42970        5.37840       -5.00220
C          1.09070        3.70630       -5.85590
C          1.83150        4.38310       -6.82140
C          2.76980        3.60410       -7.45550
C          2.97010        2.25270       -7.14410
C          2.24390        1.57050       -6.19680
C          1.27400        2.34150       -5.55230
C          0.29000        1.95500       -4.54150
C         -0.12830        0.66750       -4.30850
C          0.47220       -0.48060       -4.86040
N          0.93590       -1.45770       -5.24760
C         -1.26160        0.34380       -3.54170
N         -2.18550        0.01830       -2.94100
C          4.06640        2.09640       -8.16770
C          3.71340        1.37350       -9.49100
C          2.23310        1.57230       -9.70510
C          2.03580        2.84910      -10.00520
C          3.37890        3.53670       -9.99940
C          4.27200        2.39000      -10.49940
C          3.83710        3.59980       -8.52090
C         -1.23240        2.77230       -1.72860
Se        -2.62760        3.33090       -0.54440
C         -2.02950        2.00060        0.57540
C         -2.34150        1.40440        1.80800
C         -3.43050        1.56070        2.69340
C         -3.57000        0.65800        3.80570
N         -4.68300        0.87440        4.48910
S         -5.48010        2.10500        3.80450
N         -4.43780        2.41370        2.60340
C         -2.53140       -0.26400        4.07290
C         -2.29650       -1.17610        5.11730
S         -3.09950       -1.79840        6.51800
C         -1.69610       -2.78240        6.85890
C         -1.41530       -3.70130        7.88750
C         -2.39610       -3.98390        8.97890
C         -3.42910       -5.02000        8.53060
C         -0.16000       -4.25190        7.72950
S          0.68380       -3.61440        6.31990
C         -0.66870       -2.61730        5.92970
C         -1.01210       -1.70030        4.92950
N         -0.44540       -1.16910        3.79850
C         -1.38010       -0.31390        3.24300
C         -1.36700        0.40100        2.02780
N         -0.51440        0.33440        0.93850
C         -0.91920        1.31160        0.05100
C         -0.48450        1.72810       -1.20340
C          0.06160       -0.89460        0.42320
C         -0.99220       -1.72750       -0.30500
C          0.99370       -1.04540        3.68300
C          1.58110       -0.28110        4.86930
C          0.52840       -5.21920        8.52500
C          0.02810       -6.17510        9.38260
C          1.01970       -6.95730        9.98120
C          2.28970       -6.61220        9.58390
C          3.49120       -7.19420        9.98570
N          4.47770       -7.67710       10.32160
S          2.26590       -5.29430        8.45200
H         -1.52420        4.45300       -2.98090
H          1.65120        5.42630       -7.02830
H          2.41010        0.53200       -5.96130
H          5.04230        1.80650       -7.78290
H          4.07460        0.35070       -9.55710
H          1.49920        0.80060       -9.56350
H          1.10320        3.35790      -10.16480
H          3.43570        4.48360      -10.52980
H          4.06510        2.11500      -11.53250
H          5.33680        2.58360      -10.37630
H          4.66450        4.29130       -8.37260
H         -1.87460       -4.32600        9.87350
H         -2.91470       -3.05280        9.21880
H         -2.94520       -5.94840        8.23450
H         -3.99070       -4.64210        7.67990
H         -4.12510       -5.23010        9.33880
H          0.38060        1.32830       -1.70400
H          0.87110       -0.62280       -0.25880
H          0.47370       -1.48680        1.23800
H         -1.77250       -2.03120        0.39000
H         -1.45070       -1.15850       -1.11110
H         -0.53200       -2.61790       -0.72510
H          1.22880       -0.49500        2.77340
H          1.43130       -2.04770        3.63320
H          1.42210       -0.81900        5.79960
H          2.65020       -0.15260        4.72500
H          1.11800        0.70030        4.94920
H         -1.01950       -6.33470        9.55160
H          0.82310       -7.75550       10.67480
