133

C          2.66220       -6.18280       -1.85370
C          3.05780       -6.21700       -3.15690
C          3.01200       -7.49910       -3.90620
O          2.90520       -8.61070       -3.43730
C          3.05470       -7.11610       -5.33200
C          2.90710       -7.95340       -6.43610
C          2.96460       -7.30190       -7.64480
C          3.15600       -5.91770       -7.75450
C          3.31360       -5.08000       -6.67620
C          3.25660       -5.72360       -5.43740
C          3.42040       -5.17770       -4.09290
C          4.06320       -4.00680       -3.78060
C          4.44170       -3.03020       -4.72030
N          4.74000       -2.18120       -5.43400
C          4.48660       -3.69340       -2.47220
N          4.89140       -3.43110       -1.43020
C          3.09280       -5.94700       -9.26130
C          1.77390       -5.47090       -9.90620
C          1.82210       -6.05250      -11.30070
C          1.64260       -7.36310      -11.19750
C          1.46960       -7.68930       -9.73150
C          0.75270       -6.41700       -9.26130
C          2.88130       -7.49020       -9.13960
C          2.19460       -5.09120       -1.09190
C          2.00480       -5.06170        0.28500
C          2.35000       -6.16520        1.22970
C          1.12740       -7.04890        1.49140
C          1.43180       -3.85540        0.69850
S          0.97250       -3.24190        2.27220
C          0.45080       -1.77880        1.51810
C         -0.13030       -0.55250        1.86820
C         -0.57490       -0.11880        3.14000
N         -0.35350       -0.83520        4.23850
C         -0.84800       -0.40330        5.38780
C         -0.40560       -1.12980        6.55220
S          0.09550       -2.77820        6.33320
C          0.55840       -2.91980        7.99200
C          1.13170       -4.17470        8.55380
C          2.48800       -4.49740        7.92520
C          0.34860       -1.73070        8.63140
C         -0.19340       -0.70690        7.83640
F          0.63220       -1.54990        9.93540
C         -1.72030        0.72600        5.41750
C         -2.56560        1.09280        6.53170
C         -3.07900        2.34050        6.76130
C         -3.95590        2.35040        7.85970
F         -4.56220        3.47300        8.28760
C         -4.14680        1.14180        8.46580
C         -5.02660        0.81380        9.62170
C         -6.20510       -0.06340        9.19610
S         -3.20540       -0.06580        7.66010
N         -1.84800        1.49520        4.34740
C         -1.24530        1.12490        3.22020
C         -1.29570        1.92580        2.05340
C         -1.79520        3.22580        1.90490
S         -2.55020        4.45210        2.86040
C         -2.54390        5.50260        1.45600
C         -2.99300        6.80410        1.25820
C         -3.58520        7.62340        2.35890
C         -2.51740        8.49980        3.01900
C         -2.75810        7.23320       -0.05550
S         -1.98850        5.98610       -1.03390
C         -1.97980        4.91290        0.31430
C         -1.55890        3.60510        0.58150
N         -0.94160        2.58590       -0.09090
C         -0.53100        2.80830       -1.45710
C         -1.68780        2.60210       -2.43490
C         -0.78400        1.52630        0.78090
C         -0.25380        0.21320        0.66950
N          0.19750       -0.56590       -0.37920
C          0.62830       -1.75950        0.13180
C          1.17260       -2.95410       -0.34310
S          1.62190       -3.61360       -1.86860
C          0.27960       -0.36030       -1.80580
C          1.69140        0.03980       -2.23540
C         -3.09880        8.51460       -0.51890
C         -2.91740        9.13110       -1.72950
C         -3.37900       10.45880       -1.85490
N         -3.76770       11.53610       -1.92520
C         -2.29010        8.55460       -2.91870
O         -1.88680        7.41210       -3.01860
O         -2.20360        9.45140       -3.90490
C         -1.63400        9.01550       -5.13710
C         -2.65790        8.28660       -5.99570
H          2.60350       -7.15330       -1.37110
H          2.76640       -9.01560       -6.31180
H          3.45920       -4.01590       -6.76740
H          3.97680       -5.58120       -9.77990
H          1.58830       -4.40320       -9.82750
H          2.03140       -5.47750      -12.18350
H          1.67160       -8.10160      -11.97700
H          1.00580       -8.64280       -9.49390
H          0.68120       -6.32220       -8.17930
H         -0.23780       -6.31610       -9.70210
H          3.62440       -8.15360       -9.57800
H          2.67780       -5.72120        2.17170
H          3.16650       -6.76600        0.82940
H          0.31930       -6.45810        1.91610
H          1.38390       -7.83980        2.19100
H          0.77700       -7.50310        0.56730
H          0.44400       -5.00390        8.36940
H          1.24140       -4.05150        9.63320
H          2.38280       -4.62190        6.85000
H          2.88790       -5.41540        8.34770
H          3.19400       -3.69210        8.11350
H         -0.38260        0.28610        8.19920
H         -2.83150        3.20180        6.17040
H         -5.39470        1.74860       10.04970
H         -4.44560        0.28930       10.38460
H         -5.84440       -0.99440        8.76450
H         -6.81230        0.45080        8.45470
H         -6.82830       -0.29510       10.05580
H         -4.39760        8.24850        1.98460
H         -3.99740        6.94170        3.10560
H         -1.71970        7.87940        3.42050
H         -2.08670        9.19270        2.29960
H         -2.95520        9.07090        3.83330
H         -0.20140        3.84990       -1.52820
H          0.32100        2.17660       -1.69300
H         -1.32480        2.67290       -3.45630
H         -2.16300        1.63310       -2.29220
H         -2.43970        3.37220       -2.28520
H         -0.46280        0.36810       -2.11920
H          0.02730       -1.31440       -2.28110
H          2.03270        0.92620       -1.70450
H          1.71310        0.23720       -3.30340
H          2.39040       -0.76500       -2.02170
H         -3.58810        9.13160        0.22770
H         -1.29120        9.93030       -5.62400
H         -0.78130        8.36160       -4.92430
H         -2.21480        8.03430       -6.95480
H         -3.52630        8.92010       -6.15950
H         -2.97490        7.37100       -5.50190
