134

C          0.19040       -0.45560       -7.42850
C         -1.04070       -0.85140       -7.89140
C         -2.19110       -1.23140       -7.06950
O         -2.28300       -1.19180       -5.85260
C         -3.24000       -1.67590       -8.00200
C         -4.50300       -2.16090       -7.67310
C         -5.26820       -2.50930       -8.75990
C         -4.80850       -2.38580      -10.07730
C         -3.56340       -1.90940      -10.41450
C         -2.76890       -1.54590       -9.32390
C         -1.40520       -1.01550       -9.28310
C         -0.63530       -0.73180      -10.38340
C         -1.05710       -0.90830      -11.71780
N         -1.32610       -1.01830      -12.82900
C          0.67900       -0.21980      -10.37930
N          1.74910        0.18480      -10.49290
C         -6.09520       -2.91430      -10.66030
C         -7.08280       -1.89220      -11.27520
C         -6.83130       -0.57920      -10.57630
C         -7.26700       -0.69450       -9.32900
C         -7.82060       -2.08800       -9.16160
C         -8.37880       -2.32880      -10.57340
C         -6.60790       -3.05080       -9.19190
C          0.65890       -0.28310       -6.12190
C          1.99570        0.06270       -5.83810
C          3.05470        0.14350       -6.83870
C          3.89590        1.25410       -6.87130
C          4.86950        1.36120       -7.84290
C          5.04230        0.36350       -8.79520
C          6.03590        0.52700       -9.90530
C          5.37980        1.26780      -11.07330
C          4.23080       -0.76250       -8.73260
C          3.25060       -0.87650       -7.76860
C          2.18160        0.31140       -4.48070
S          3.59060        0.74040       -3.52930
C          2.61070        0.68430       -2.10390
C          2.73380        0.88320       -0.71820
C          3.78390        1.35280        0.10410
C          3.53410        1.57750        1.50510
N          4.58570        2.08490        2.12790
S          5.78680        2.25850        1.05690
N          5.01260        1.69500       -0.24800
C          2.29110        1.18930        2.05580
C          1.79430        1.14090        3.37140
S          2.27070        1.59910        4.97060
C          0.77340        0.94140        5.58460
C          0.23380        0.84350        6.88290
C          0.96010        1.22290        8.09120
C          0.96260        0.38990        9.20770
C          1.66460        0.74360       10.34190
C          2.37910        1.93570       10.39700
C          3.17300        2.29680       11.61900
C          4.59220        1.73340       11.51700
C          2.38100        2.75850        9.27730
C          1.68790        2.40880        8.13560
C         -1.01420        0.24860        6.86580
S         -1.48290       -0.27030        5.24690
C         -0.03140        0.38670        4.58710
C          0.54890        0.50460        3.31920
N          0.24130        0.16960        2.02330
C          1.28820        0.61350        1.23480
C          1.45260        0.61320       -0.16630
N          0.56180        0.32810       -1.18140
C          1.27170        0.35590       -2.35740
C          1.01790        0.14060       -3.71380
S         -0.33510       -0.34430       -4.66750
C         -0.86280        0.59780       -1.18260
C         -1.17130        1.93500       -1.85520
C         -0.61830       -0.96390        1.74510
C         -0.08640       -2.23740        2.40220
C         -1.93590       -0.06280        7.91360
C         -2.28770        0.66460        9.00060
C         -1.86490        2.05960        9.16020
O         -1.20230        2.66990        8.34810
N         -2.29110        2.71690       10.32580
C         -1.59090        3.94390       10.69870
C         -0.56870        3.66410       11.79170
C         -3.38520        2.37920       11.07420
O         -3.72490        3.00760       12.04570
C         -4.15250        1.17160       10.53760
C         -5.05640        0.68150       11.55310
N         -5.75870        0.27050       12.35430
C         -3.15590        0.08480       10.09290
C         -3.89280       -1.19880        9.71640
H          0.94100       -0.24200       -8.17970
H         -4.81420       -2.24300       -6.64330
H         -3.22670       -1.82600      -11.43400
H         -6.01110       -3.82030      -11.25730
H         -7.08560       -1.86480      -12.36150
H         -6.32550        0.25300      -11.02990
H         -7.19770        0.02230       -8.53170
H         -8.49640       -2.23890       -8.32370
H         -8.64610       -3.36750      -10.76280
H         -9.22340       -1.68280      -10.80830
H         -6.85950       -4.04630       -8.83070
H          3.75970        2.04570       -6.14940
H          5.50140        2.23730       -7.86880
H          6.37840       -0.45210      -10.24570
H          6.90230        1.09230       -9.55530
H          6.07000        1.34780      -11.91000
H          5.08520        2.26870      -10.76690
H          4.48820        0.73820      -11.39920
H          4.36360       -1.55620       -9.45290
H          2.64440       -1.77000       -7.71810
H          0.42370       -0.54660        9.17670
H          1.66130        0.08520       11.19980
H          3.22380        3.38260       11.72010
H          2.68920        1.89260       12.51080
H          4.56390        0.64960       11.42980
H          5.16930        1.99610       12.40040
H          5.09560        2.13350       10.64000
H          2.93100        3.68810        9.30290
H          1.68100        3.06940        7.28310
H         -1.37240       -0.20970       -1.71750
H         -1.21760        0.64260       -0.15460
H         -0.89500        1.91610       -2.90530
H         -0.62790        2.73850       -1.36230
H         -2.23620        2.13750       -1.78410
H         -1.62200       -0.74270        2.12210
H         -0.65880       -1.12650        0.67010
H         -0.07870       -2.14580        3.48450
H          0.92660       -2.43990        2.06090
H         -0.72080       -3.07670        2.13140
H         -2.43380       -1.01360        7.76590
H         -1.10300        4.32120        9.79900
H         -2.33410        4.66230       11.05080
H         -0.03800        4.57960       12.03690
H         -1.06750        3.29990       12.68650
H          0.15130        2.92210       11.45300
H         -4.75230        1.49850        9.67710
H         -2.50410       -0.13490       10.95210
H         -3.19180       -2.00770        9.52720
H         -4.51260       -1.04710        8.83480
H         -4.53710       -1.50320       10.53830
