
  xtb     02022208063D
 energy: -199.849913219165 gnorm: 0.000206439531 xtb: 6.4.1 (unknown)
111124  0     0  0            999 V2000
    5.5009   -0.3525    4.8036 C   0  0  0  0  0  0  0  0  0  0  0  0
    5.1230   -1.3744    5.6130 C   0  0  0  0  0  0  0  0  0  0  0  0
    5.8818   -1.6811    6.8576 C   0  0  0  0  0  0  0  0  0  0  0  0
    6.9716   -1.2529    7.1620 O   0  0  0  0  0  0  0  0  0  0  0  0
    4.9990   -2.5642    7.6437 C   0  0  0  0  0  0  0  0  0  0  0  0
    5.2173   -3.0447    8.9336 C   0  0  0  0  0  0  0  0  0  0  0  0
    4.2124   -3.8520    9.4099 C   0  0  0  0  0  0  0  0  0  0  0  0
    3.0670   -4.1603    8.6622 C   0  0  0  0  0  0  0  0  0  0  0  0
    2.8376   -3.6973    7.3894 C   0  0  0  0  0  0  0  0  0  0  0  0
    3.8510   -2.8786    6.8847 C   0  0  0  0  0  0  0  0  0  0  0  0
    3.9841   -2.2718    5.5647 C   0  0  0  0  0  0  0  0  0  0  0  0
    3.3310   -2.6917    4.4358 C   0  0  0  0  0  0  0  0  0  0  0  0
    2.2631   -3.6114    4.4258 C   0  0  0  0  0  0  0  0  0  0  0  0
    1.3702   -4.3288    4.3455 N   0  0  0  0  0  0  0  0  0  0  0  0
    3.6988   -2.3213    3.1249 C   0  0  0  0  0  0  0  0  0  0  0  0
    3.9894   -2.1058    2.0352 N   0  0  0  0  0  0  0  0  0  0  0  0
    2.4821   -5.0136    9.7585 C   0  0  0  0  0  0  0  0  0  0  0  0
    1.3382   -4.4116   10.6110 C   0  0  0  0  0  0  0  0  0  0  0  0
    1.5195   -2.9144   10.5742 C   0  0  0  0  0  0  0  0  0  0  0  0
    2.6017   -2.6203   11.2824 C   0  0  0  0  0  0  0  0  0  0  0  0
    3.1716   -3.9131   11.8116 C   0  0  0  0  0  0  0  0  0  0  0  0
    1.8767   -4.7155   12.0181 C   0  0  0  0  0  0  0  0  0  0  0  0
    3.7561   -4.6695   10.5928 C   0  0  0  0  0  0  0  0  0  0  0  0
    4.7129    0.2822    3.8059 C   0  0  0  0  0  0  0  0  0  0  0  0
    5.1466    0.8042    2.6062 C   0  0  0  0  0  0  0  0  0  0  0  0
    4.0849    1.2207    1.8041 C   0  0  0  0  0  0  0  0  0  0  0  0
    3.9624    1.7369    0.1506 S   0  0  0  0  0  0  0  0  0  0  0  0
    2.2386    1.7496    0.3010 C   0  0  0  0  0  0  0  0  0  0  0  0
    1.1449    1.8794   -0.6094 C   0  0  0  0  0  0  0  0  0  0  0  0
   -0.0422    1.6725    0.1362 C   0  0  0  0  0  0  0  0  0  0  0  0
    0.2713    1.4019    1.5984 C   0  0  0  0  0  0  0  0  0  0  0  0
   -0.1427   -0.0117    2.0600 C   0  0  0  0  0  0  0  0  0  0  0  0
   -1.6378   -0.2845    2.1469 C   0  0  0  0  0  0  0  0  0  0  0  0
   -0.3224    2.5404    2.4517 C   0  0  0  0  0  0  0  0  0  0  0  0
   -0.0024    2.4579    3.9379 C   0  0  0  0  0  0  0  0  0  0  0  0
    1.7754    1.4402    1.5687 C   0  0  0  0  0  0  0  0  0  0  0  0
    2.8265    1.1039    2.4175 C   0  0  0  0  0  0  0  0  0  0  0  0
    2.9703    0.4364    4.0003 S   0  0  0  0  0  0  0  0  0  0  0  0
   -1.2668    1.7334   -0.4866 C   0  0  0  0  0  0  0  0  0  0  0  0
   -1.2752    1.9008   -1.8694 C   0  0  0  0  0  0  0  0  0  0  0  0
   -2.3526    1.8497   -2.8049 C   0  0  0  0  0  0  0  0  0  0  0  0
   -1.8759    1.9420   -4.1037 C   0  0  0  0  0  0  0  0  0  0  0  0
   -0.3893    2.1612   -4.1034 C   0  0  0  0  0  0  0  0  0  0  0  0
   -0.0863    2.0559   -2.6196 C   0  0  0  0  0  0  0  0  0  0  0  0
    1.1343    2.0829   -1.9873 C   0  0  0  0  0  0  0  0  0  0  0  0
    0.3379    1.0866   -4.9268 C   0  0  0  0  0  0  0  0  0  0  0  0
    0.0877   -0.3236   -4.4049 C   0  0  0  0  0  0  0  0  0  0  0  0
   -0.0181    3.5860   -4.5726 C   0  0  0  0  0  0  0  0  0  0  0  0
   -0.4787    3.9348   -5.9813 C   0  0  0  0  0  0  0  0  0  0  0  0
   -2.8826    1.7127   -5.0385 C   0  0  0  0  0  0  0  0  0  0  0  0
   -4.1356    1.4840   -4.4236 C   0  0  0  0  0  0  0  0  0  0  0  0
   -4.0539    1.5570   -2.6835 S   0  0  0  0  0  0  0  0  0  0  0  0
   -5.1421    1.1917   -5.3185 C   0  0  0  0  0  0  0  0  0  0  0  0
   -4.6852    1.1521   -6.6404 C   0  0  0  0  0  0  0  0  0  0  0  0
   -2.9676    1.5271   -6.7487 S   0  0  0  0  0  0  0  0  0  0  0  0
   -5.5332    0.8151   -7.7019 C   0  0  0  0  0  0  0  0  0  0  0  0
   -5.2555    0.5936   -9.0281 C   0  0  0  0  0  0  0  0  0  0  0  0
   -3.9321    0.6356   -9.6504 C   0  0  0  0  0  0  0  0  0  0  0  0
   -2.8933    1.0373   -9.1641 O   0  0  0  0  0  0  0  0  0  0  0  0
   -4.1042    0.0547  -11.0015 C   0  0  0  0  0  0  0  0  0  0  0  0
   -3.1342   -0.2494  -11.9398 C   0  0  0  0  0  0  0  0  0  0  0  0
   -1.5016    0.1872  -11.7073 Cl  0  0  0  0  0  0  0  0  0  0  0  0
   -3.5244   -0.9445  -13.0936 C   0  0  0  0  0  0  0  0  0  0  0  0
   -2.3677   -1.3176  -14.2960 Cl  0  0  0  0  0  0  0  0  0  0  0  0
   -4.8427   -1.3723  -13.2392 C   0  0  0  0  0  0  0  0  0  0  0  0
   -5.2719   -2.3082  -14.6049 Cl  0  0  0  0  0  0  0  0  0  0  0  0
   -5.8214   -1.0651  -12.2791 C   0  0  0  0  0  0  0  0  0  0  0  0
   -7.3720   -1.7795  -12.4421 Cl  0  0  0  0  0  0  0  0  0  0  0  0
   -5.4603   -0.2834  -11.1894 C   0  0  0  0  0  0  0  0  0  0  0  0
   -6.2200    0.2256  -10.0487 C   0  0  0  0  0  0  0  0  0  0  0  0
   -7.5606    0.5073  -10.0194 C   0  0  0  0  0  0  0  0  0  0  0  0
   -8.4293    0.5128  -11.1327 C   0  0  0  0  0  0  0  0  0  0  0  0
   -9.1883    0.6533  -11.9818 N   0  0  0  0  0  0  0  0  0  0  0  0
   -8.2460    1.0096   -8.8909 C   0  0  0  0  0  0  0  0  0  0  0  0
   -8.8805    1.4012   -8.0176 N   0  0  0  0  0  0  0  0  0  0  0  0
    6.4986    0.0435    4.9650 H   0  0  0  0  0  0  0  0  0  0  0  0
    6.1144   -2.7890    9.4755 H   0  0  0  0  0  0  0  0  0  0  0  0
    1.9510   -3.9346    6.8247 H   0  0  0  0  0  0  0  0  0  0  0  0
    2.3056   -6.0567    9.5039 H   0  0  0  0  0  0  0  0  0  0  0  0
    0.3473   -4.7821   10.3625 H   0  0  0  0  0  0  0  0  0  0  0  0
    0.8950   -2.2493   10.0071 H   0  0  0  0  0  0  0  0  0  0  0  0
    3.0618   -1.6600   11.4251 H   0  0  0  0  0  0  0  0  0  0  0  0
    3.8484   -3.8288   12.6576 H   0  0  0  0  0  0  0  0  0  0  0  0
    1.2483   -4.3052   12.8071 H   0  0  0  0  0  0  0  0  0  0  0  0
    2.0472   -5.7761   12.1975 H   0  0  0  0  0  0  0  0  0  0  0  0
    4.4092   -5.4886   10.8872 H   0  0  0  0  0  0  0  0  0  0  0  0
    6.1774    0.7988    2.3030 H   0  0  0  0  0  0  0  0  0  0  0  0
    0.3079   -0.1794    3.0409 H   0  0  0  0  0  0  0  0  0  0  0  0
    0.3091   -0.7297    1.3704 H   0  0  0  0  0  0  0  0  0  0  0  0
   -2.1386    0.4360    2.7878 H   0  0  0  0  0  0  0  0  0  0  0  0
   -2.0981   -0.2653    1.1635 H   0  0  0  0  0  0  0  0  0  0  0  0
   -1.7918   -1.2754    2.5683 H   0  0  0  0  0  0  0  0  0  0  0  0
    0.0634    3.4836    2.0552 H   0  0  0  0  0  0  0  0  0  0  0  0
   -1.4040    2.5470    2.3106 H   0  0  0  0  0  0  0  0  0  0  0  0
   -0.4098    1.5543    4.3822 H   0  0  0  0  0  0  0  0  0  0  0  0
    1.0708    2.4726    4.1073 H   0  0  0  0  0  0  0  0  0  0  0  0
   -0.4370    3.3135    4.4502 H   0  0  0  0  0  0  0  0  0  0  0  0
   -2.1970    1.6305    0.0489 H   0  0  0  0  0  0  0  0  0  0  0  0
    2.0597    2.2161   -2.5263 H   0  0  0  0  0  0  0  0  0  0  0  0
   -0.0071    1.1485   -5.9598 H   0  0  0  0  0  0  0  0  0  0  0  0
    1.4087    1.2962   -4.9093 H   0  0  0  0  0  0  0  0  0  0  0  0
    0.4360   -0.4270   -3.3796 H   0  0  0  0  0  0  0  0  0  0  0  0
   -0.9731   -0.5629   -4.4325 H   0  0  0  0  0  0  0  0  0  0  0  0
    0.6155   -1.0463   -5.0221 H   0  0  0  0  0  0  0  0  0  0  0  0
   -0.4574    4.2982   -3.8690 H   0  0  0  0  0  0  0  0  0  0  0  0
    1.0673    3.6856   -4.5089 H   0  0  0  0  0  0  0  0  0  0  0  0
   -1.5623    3.9120   -6.0536 H   0  0  0  0  0  0  0  0  0  0  0  0
   -0.1438    4.9388   -6.2318 H   0  0  0  0  0  0  0  0  0  0  0  0
   -0.0701    3.2484   -6.7167 H   0  0  0  0  0  0  0  0  0  0  0  0
   -6.1648    0.9928   -5.0532 H   0  0  0  0  0  0  0  0  0  0  0  0
   -6.5590    0.6578   -7.3904 H   0  0  0  0  0  0  0  0  0  0  0  0
  1  2  2  0  0  0  0
  2  3  1  0  0  0  0
  3  4  2  0  0  0  0
  3  5  1  0  0  0  0
  5  6  2  0  0  0  0
  6  7  1  0  0  0  0
  7  8  2  0  0  0  0
  8  9  1  0  0  0  0
  9 10  2  0  0  0  0
 10 11  1  0  0  0  0
 11 12  2  0  0  0  0
 12 13  1  0  0  0  0
 13 14  3  0  0  0  0
 12 15  1  0  0  0  0
 15 16  3  0  0  0  0
  8 17  1  0  0  0  0
 17 18  1  0  0  0  0
 18 19  1  0  0  0  0
 19 20  2  0  0  0  0
 20 21  1  0  0  0  0
 21 22  1  0  0  0  0
 21 23  1  0  0  0  0
  1 24  1  0  0  0  0
 24 25  2  0  0  0  0
 25 26  1  0  0  0  0
 26 27  1  0  0  0  0
 27 28  1  0  0  0  0
 28 29  1  0  0  0  0
 29 30  2  0  0  0  0
 30 31  1  0  0  0  0
 31 32  1  0  0  0  0
 32 33  1  0  0  0  0
 31 34  1  0  0  0  0
 34 35  1  0  0  0  0
 31 36  1  0  0  0  0
 36 37  1  0  0  0  0
 37 38  1  0  0  0  0
 30 39  1  0  0  0  0
 39 40  2  0  0  0  0
 40 41  1  0  0  0  0
 41 42  2  0  0  0  0
 42 43  1  0  0  0  0
 43 44  1  0  0  0  0
 44 45  2  0  0  0  0
 43 46  1  0  0  0  0
 46 47  1  0  0  0  0
 43 48  1  0  0  0  0
 48 49  1  0  0  0  0
 42 50  1  0  0  0  0
 50 51  2  0  0  0  0
 51 52  1  0  0  0  0
 51 53  1  0  0  0  0
 53 54  2  0  0  0  0
 54 55  1  0  0  0  0
 54 56  1  0  0  0  0
 56 57  2  0  0  0  0
 57 58  1  0  0  0  0
 58 59  2  0  0  0  0
 58 60  1  0  0  0  0
 60 61  2  0  0  0  0
 61 62  1  0  0  0  0
 61 63  1  0  0  0  0
 63 64  1  0  0  0  0
 63 65  2  0  0  0  0
 65 66  1  0  0  0  0
 65 67  1  0  0  0  0
 67 68  1  0  0  0  0
 67 69  2  0  0  0  0
 69 70  1  0  0  0  0
 70 71  2  0  0  0  0
 71 72  1  0  0  0  0
 72 73  3  0  0  0  0
 71 74  1  0  0  0  0
 74 75  3  0  0  0  0
 11  2  1  0  0  0  0
 23 17  1  0  0  0  0
 38 24  1  0  0  0  0
 44 40  1  0  0  0  0
 55 50  1  0  0  0  0
 70 57  1  0  0  0  0
 10  5  1  0  0  0  0
 22 18  1  0  0  0  0
 37 26  2  0  0  0  0
 52 41  1  0  0  0  0
 69 60  1  0  0  0  0
 23  7  1  0  0  0  0
 36 28  2  0  0  0  0
 45 29  1  0  0  0  0
  1 76  1  0  0  0  0
  6 77  1  0  0  0  0
  9 78  1  0  0  0  0
 17 79  1  0  0  0  0
 18 80  1  0  0  0  0
 19 81  1  0  0  0  0
 20 82  1  0  0  0  0
 21 83  1  0  0  0  0
 22 84  1  0  0  0  0
 22 85  1  0  0  0  0
 23 86  1  0  0  0  0
 25 87  1  0  0  0  0
 32 88  1  0  0  0  0
 32 89  1  0  0  0  0
 33 90  1  0  0  0  0
 33 91  1  0  0  0  0
 33 92  1  0  0  0  0
 34 93  1  0  0  0  0
 34 94  1  0  0  0  0
 35 95  1  0  0  0  0
 35 96  1  0  0  0  0
 35 97  1  0  0  0  0
 39 98  1  0  0  0  0
 45 99  1  0  0  0  0
 46100  1  0  0  0  0
 46101  1  0  0  0  0
 47102  1  0  0  0  0
 47103  1  0  0  0  0
 47104  1  0  0  0  0
 48105  1  0  0  0  0
 48106  1  0  0  0  0
 49107  1  0  0  0  0
 49108  1  0  0  0  0
 49109  1  0  0  0  0
 53110  1  0  0  0  0
 56111  1  0  0  0  0
M  END
