
  xtb     02112200523D
 energy: -288.076883990254 gnorm: 0.000939872170 xtb: 6.4.1 (unknown)
184207  0     0  0            999 V2000
   -0.1225    2.4621   -8.2251 C   0  0  0  0  0  0  0  0  0  0  0  0
   -0.6115    3.7291   -8.4250 C   0  0  0  0  0  0  0  0  0  0  0  0
   -1.1203    4.6304   -7.3857 C   0  0  0  0  0  0  0  0  0  0  0  0
   -1.2007    4.4180   -6.1874 O   0  0  0  0  0  0  0  0  0  0  0  0
   -1.5274    5.8684   -8.0731 C   0  0  0  0  0  0  0  0  0  0  0  0
   -2.0558    7.0169   -7.4880 C   0  0  0  0  0  0  0  0  0  0  0  0
   -2.3265    8.0255   -8.3813 C   0  0  0  0  0  0  0  0  0  0  0  0
   -2.0865    7.9001   -9.7556 C   0  0  0  0  0  0  0  0  0  0  0  0
   -1.5667    6.7722  -10.3453 C   0  0  0  0  0  0  0  0  0  0  0  0
   -1.2858    5.7321   -9.4543 C   0  0  0  0  0  0  0  0  0  0  0  0
   -0.7174    4.4065   -9.7006 C   0  0  0  0  0  0  0  0  0  0  0  0
   -0.3487    3.9242  -10.9319 C   0  0  0  0  0  0  0  0  0  0  0  0
   -0.4965    4.6292  -12.1441 C   0  0  0  0  0  0  0  0  0  0  0  0
   -0.5863    5.1334  -13.1724 N   0  0  0  0  0  0  0  0  0  0  0  0
    0.2314    2.6652  -11.1899 C   0  0  0  0  0  0  0  0  0  0  0  0
    0.7150    1.6683  -11.4969 N   0  0  0  0  0  0  0  0  0  0  0  0
   -2.5846    9.2926  -10.0520 C   0  0  0  0  0  0  0  0  0  0  0  0
   -3.9985    9.4057  -10.6598 C   0  0  0  0  0  0  0  0  0  0  0  0
   -4.3917   10.8408  -10.3937 C   0  0  0  0  0  0  0  0  0  0  0  0
   -4.6198   10.9617   -9.0922 C   0  0  0  0  0  0  0  0  0  0  0  0
   -4.3853    9.6101   -8.4567 C   0  0  0  0  0  0  0  0  0  0  0  0
   -4.8506    8.6974   -9.5987 C   0  0  0  0  0  0  0  0  0  0  0  0
   -2.8534    9.4330   -8.5193 C   0  0  0  0  0  0  0  0  0  0  0  0
    0.0500    1.7302   -7.0433 C   0  0  0  0  0  0  0  0  0  0  0  0
   -0.3243    2.2441   -5.4184 S   0  0  0  0  0  0  0  0  0  0  0  0
    0.2581    0.7463   -4.7812 C   0  0  0  0  0  0  0  0  0  0  0  0
    0.2845    0.4329   -3.3910 C   0  0  0  0  0  0  0  0  0  0  0  0
    0.9260   -0.8219   -3.0739 C   0  0  0  0  0  0  0  0  0  0  0  0
    1.4526   -1.7210   -4.0097 C   0  0  0  0  0  0  0  0  0  0  0  0
    1.2651   -1.4985   -5.4980 C   0  0  0  0  0  0  0  0  0  0  0  0
    0.7191   -0.1165   -5.7753 C   0  0  0  0  0  0  0  0  0  0  0  0
    0.5933    0.4439   -7.0358 C   0  0  0  0  0  0  0  0  0  0  0  0
    2.5755   -1.5995   -6.2626 C   0  0  0  0  0  0  0  0  0  0  0  0
    2.6075   -1.9911   -7.5958 C   0  0  0  0  0  0  0  0  0  0  0  0
    3.7991   -2.0120   -8.2954 C   0  0  0  0  0  0  0  0  0  0  0  0
    4.9905   -1.6356   -7.6894 C   0  0  0  0  0  0  0  0  0  0  0  0
    6.2744   -1.6213   -8.4677 C   0  0  0  0  0  0  0  0  0  0  0  0
    6.4452   -0.2848   -9.1925 C   0  0  0  0  0  0  0  0  0  0  0  0
    4.9521   -1.2239   -6.3644 C   0  0  0  0  0  0  0  0  0  0  0  0
    3.7618   -1.2006   -5.6610 C   0  0  0  0  0  0  0  0  0  0  0  0
    0.2423   -2.5576   -5.9064 C   0  0  0  0  0  0  0  0  0  0  0  0
   -1.1168   -2.2833   -5.8285 C   0  0  0  0  0  0  0  0  0  0  0  0
   -2.0531   -3.2557   -6.1277 C   0  0  0  0  0  0  0  0  0  0  0  0
   -1.6616   -4.5316   -6.5073 C   0  0  0  0  0  0  0  0  0  0  0  0
   -2.6767   -5.6019   -6.7870 C   0  0  0  0  0  0  0  0  0  0  0  0
   -2.9733   -6.4002   -5.5157 C   0  0  0  0  0  0  0  0  0  0  0  0
   -0.3023   -4.8083   -6.5688 C   0  0  0  0  0  0  0  0  0  0  0  0
    0.6367   -3.8401   -6.2684 C   0  0  0  0  0  0  0  0  0  0  0  0
    2.0840   -2.8617   -3.5260 C   0  0  0  0  0  0  0  0  0  0  0  0
    2.2036   -3.1686   -2.1726 C   0  0  0  0  0  0  0  0  0  0  0  0
    1.6729   -2.3289   -1.1984 C   0  0  0  0  0  0  0  0  0  0  0  0
    1.7011   -2.5389    0.2538 C   0  0  0  0  0  0  0  0  0  0  0  0
    1.0972   -1.5738    1.1025 C   0  0  0  0  0  0  0  0  0  0  0  0
    0.5159   -0.4551    0.5325 C   0  0  0  0  0  0  0  0  0  0  0  0
   -0.1285    0.6235    1.1479 C   0  0  0  0  0  0  0  0  0  0  0  0
   -0.5452    1.4769    0.1355 N   0  0  0  0  0  0  0  0  0  0  0  0
   -0.1554    0.9564   -1.0908 C   0  0  0  0  0  0  0  0  0  0  0  0
   -0.2489    1.3077   -2.4379 C   0  0  0  0  0  0  0  0  0  0  0  0
    0.4969   -0.2539   -0.8311 C   0  0  0  0  0  0  0  0  0  0  0  0
    1.0505   -1.1624   -1.7157 C   0  0  0  0  0  0  0  0  0  0  0  0
   -1.1713    2.7586    0.3350 C   0  0  0  0  0  0  0  0  0  0  0  0
   -0.1338    3.8697    0.4913 C   0  0  0  0  0  0  0  0  0  0  0  0
   -0.2140    0.5540    2.5389 C   0  0  0  0  0  0  0  0  0  0  0  0
    0.3490   -0.5524    3.1846 C   0  0  0  0  0  0  0  0  0  0  0  0
    0.2281   -0.7285    4.5937 C   0  0  0  0  0  0  0  0  0  0  0  0
    0.7717   -1.8105    5.2841 C   0  0  0  0  0  0  0  0  0  0  0  0
    1.6785   -2.8370    4.6436 C   0  0  0  0  0  0  0  0  0  0  0  0
    3.0746   -2.4916    5.1621 C   0  0  0  0  0  0  0  0  0  0  0  0
    3.9532   -1.7321    4.4016 C   0  0  0  0  0  0  0  0  0  0  0  0
    5.1928   -1.3759    4.9019 C   0  0  0  0  0  0  0  0  0  0  0  0
    5.5884   -1.7594    6.1751 C   0  0  0  0  0  0  0  0  0  0  0  0
    6.9158   -1.3345    6.7334 C   0  0  0  0  0  0  0  0  0  0  0  0
    6.7802   -0.0055    7.4793 C   0  0  0  0  0  0  0  0  0  0  0  0
    4.7007   -2.5048    6.9402 C   0  0  0  0  0  0  0  0  0  0  0  0
    3.4620   -2.8625    6.4448 C   0  0  0  0  0  0  0  0  0  0  0  0
    1.2381   -4.2438    5.0164 C   0  0  0  0  0  0  0  0  0  0  0  0
    2.1487   -5.2780    5.1935 C   0  0  0  0  0  0  0  0  0  0  0  0
    1.7126   -6.5578    5.4820 C   0  0  0  0  0  0  0  0  0  0  0  0
    0.3588   -6.8451    5.5930 C   0  0  0  0  0  0  0  0  0  0  0  0
   -0.1037   -8.2248    5.9626 C   0  0  0  0  0  0  0  0  0  0  0  0
   -0.0889   -8.4033    7.4822 C   0  0  0  0  0  0  0  0  0  0  0  0
   -0.5495   -5.8142    5.3948 C   0  0  0  0  0  0  0  0  0  0  0  0
   -0.1177   -4.5343    5.1024 C   0  0  0  0  0  0  0  0  0  0  0  0
    1.6363   -2.7271    3.1321 C   0  0  0  0  0  0  0  0  0  0  0  0
    1.0326   -1.6286    2.5055 C   0  0  0  0  0  0  0  0  0  0  0  0
    2.2359   -3.6843    2.3218 C   0  0  0  0  0  0  0  0  0  0  0  0
    2.2714   -3.6121    0.9305 C   0  0  0  0  0  0  0  0  0  0  0  0
    0.4214   -1.7889    6.6246 C   0  0  0  0  0  0  0  0  0  0  0  0
   -0.3860   -0.7109    6.9921 C   0  0  0  0  0  0  0  0  0  0  0  0
   -0.7042    0.3104    5.6134 S   0  0  0  0  0  0  0  0  0  0  0  0
   -0.8590   -0.5406    8.2999 C   0  0  0  0  0  0  0  0  0  0  0  0
   -1.6852    0.4188    8.8299 C   0  0  0  0  0  0  0  0  0  0  0  0
   -2.2953    1.5319    8.0946 C   0  0  0  0  0  0  0  0  0  0  0  0
   -2.1338    1.8308    6.9233 O   0  0  0  0  0  0  0  0  0  0  0  0
   -3.1619    2.2374    9.0543 C   0  0  0  0  0  0  0  0  0  0  0  0
   -3.9636    3.3467    8.7993 C   0  0  0  0  0  0  0  0  0  0  0  0
   -4.6783    3.7821    9.8891 C   0  0  0  0  0  0  0  0  0  0  0  0
   -4.5962    3.1618   11.1423 C   0  0  0  0  0  0  0  0  0  0  0  0
   -3.8033    2.0704   11.4082 C   0  0  0  0  0  0  0  0  0  0  0  0
   -3.0717    1.6071   10.3113 C   0  0  0  0  0  0  0  0  0  0  0  0
   -2.1416    0.4827   10.2031 C   0  0  0  0  0  0  0  0  0  0  0  0
   -1.7751   -0.3399   11.2391 C   0  0  0  0  0  0  0  0  0  0  0  0
   -0.8576   -1.4078   11.1640 C   0  0  0  0  0  0  0  0  0  0  0  0
   -0.1209   -2.2893   11.2031 N   0  0  0  0  0  0  0  0  0  0  0  0
   -2.2636   -0.2320   12.5575 C   0  0  0  0  0  0  0  0  0  0  0  0
   -2.6113   -0.2116   13.6522 N   0  0  0  0  0  0  0  0  0  0  0  0
   -5.5900    4.1099   11.7654 C   0  0  0  0  0  0  0  0  0  0  0  0
   -7.0338    3.5958   11.9886 C   0  0  0  0  0  0  0  0  0  0  0  0
   -7.2710    2.5206   10.9574 C   0  0  0  0  0  0  0  0  0  0  0  0
   -7.3489    3.1078    9.7708 C   0  0  0  0  0  0  0  0  0  0  0  0
   -7.1654    4.5909    9.9783 C   0  0  0  0  0  0  0  0  0  0  0  0
   -7.8228    4.7544   11.3579 C   0  0  0  0  0  0  0  0  0  0  0  0
   -5.6813    4.8013   10.3686 C   0  0  0  0  0  0  0  0  0  0  0  0
    0.2003    1.9190   -9.1049 H   0  0  0  0  0  0  0  0  0  0  0  0
   -2.2166    7.0712   -6.4226 H   0  0  0  0  0  0  0  0  0  0  0  0
   -1.3850    6.6979  -11.4041 H   0  0  0  0  0  0  0  0  0  0  0  0
   -1.8659    9.9639  -10.5183 H   0  0  0  0  0  0  0  0  0  0  0  0
   -4.0821    9.0565  -11.6852 H   0  0  0  0  0  0  0  0  0  0  0  0
   -4.4075   11.6077  -11.1457 H   0  0  0  0  0  0  0  0  0  0  0  0
   -4.8642   11.8502   -8.5399 H   0  0  0  0  0  0  0  0  0  0  0  0
   -4.8237    9.4487   -7.4754 H   0  0  0  0  0  0  0  0  0  0  0  0
   -5.9171    8.7947   -9.7951 H   0  0  0  0  0  0  0  0  0  0  0  0
   -4.6004    7.6477   -9.4573 H   0  0  0  0  0  0  0  0  0  0  0  0
   -2.3135   10.1982   -7.9642 H   0  0  0  0  0  0  0  0  0  0  0  0
    0.8887   -0.0445   -7.9472 H   0  0  0  0  0  0  0  0  0  0  0  0
    1.6967   -2.2924   -8.0931 H   0  0  0  0  0  0  0  0  0  0  0  0
    3.8024   -2.3253   -9.3297 H   0  0  0  0  0  0  0  0  0  0  0  0
    7.1189   -1.7764   -7.7931 H   0  0  0  0  0  0  0  0  0  0  0  0
    6.2703   -2.4294   -9.2022 H   0  0  0  0  0  0  0  0  0  0  0  0
    6.4673    0.5336   -8.4762 H   0  0  0  0  0  0  0  0  0  0  0  0
    5.6169   -0.1167   -9.8771 H   0  0  0  0  0  0  0  0  0  0  0  0
    7.3728   -0.2753   -9.7602 H   0  0  0  0  0  0  0  0  0  0  0  0
    5.8650   -0.9156   -5.8747 H   0  0  0  0  0  0  0  0  0  0  0  0
    3.7561   -0.8698   -4.6322 H   0  0  0  0  0  0  0  0  0  0  0  0
   -1.4540   -1.3018   -5.5291 H   0  0  0  0  0  0  0  0  0  0  0  0
   -3.1053   -3.0167   -6.0645 H   0  0  0  0  0  0  0  0  0  0  0  0
   -3.6009   -5.1500   -7.1524 H   0  0  0  0  0  0  0  0  0  0  0  0
   -2.2992   -6.2786   -7.5564 H   0  0  0  0  0  0  0  0  0  0  0  0
   -3.3628   -5.7446   -4.7400 H   0  0  0  0  0  0  0  0  0  0  0  0
   -3.7074   -7.1772   -5.7160 H   0  0  0  0  0  0  0  0  0  0  0  0
   -2.0649   -6.8676   -5.1420 H   0  0  0  0  0  0  0  0  0  0  0  0
    0.0278   -5.7964   -6.8571 H   0  0  0  0  0  0  0  0  0  0  0  0
    1.6858   -4.0884   -6.3300 H   0  0  0  0  0  0  0  0  0  0  0  0
    2.5101   -3.5525   -4.2384 H   0  0  0  0  0  0  0  0  0  0  0  0
    2.7126   -4.0797   -1.8958 H   0  0  0  0  0  0  0  0  0  0  0  0
   -0.7090    2.2238   -2.7785 H   0  0  0  0  0  0  0  0  0  0  0  0
   -1.8139    2.9660   -0.5250 H   0  0  0  0  0  0  0  0  0  0  0  0
   -1.7954    2.7012    1.2310 H   0  0  0  0  0  0  0  0  0  0  0  0
    0.4874    3.9334   -0.3991 H   0  0  0  0  0  0  0  0  0  0  0  0
   -0.6295    4.8248    0.6405 H   0  0  0  0  0  0  0  0  0  0  0  0
    0.5059    3.6700    1.3480 H   0  0  0  0  0  0  0  0  0  0  0  0
   -0.7031    1.3076    3.1386 H   0  0  0  0  0  0  0  0  0  0  0  0
    3.6756   -1.4146    3.4074 H   0  0  0  0  0  0  0  0  0  0  0  0
    5.8627   -0.7899    4.2885 H   0  0  0  0  0  0  0  0  0  0  0  0
    7.2890   -2.0959    7.4213 H   0  0  0  0  0  0  0  0  0  0  0  0
    7.6392   -1.2206    5.9234 H   0  0  0  0  0  0  0  0  0  0  0  0
    7.7406    0.3033    7.8857 H   0  0  0  0  0  0  0  0  0  0  0  0
    6.0709   -0.1023    8.2982 H   0  0  0  0  0  0  0  0  0  0  0  0
    6.4211    0.7704    6.8067 H   0  0  0  0  0  0  0  0  0  0  0  0
    4.9823   -2.8110    7.9376 H   0  0  0  0  0  0  0  0  0  0  0  0
    2.7982   -3.4489    7.0620 H   0  0  0  0  0  0  0  0  0  0  0  0
    3.2091   -5.0849    5.1152 H   0  0  0  0  0  0  0  0  0  0  0  0
    2.4378   -7.3473    5.6205 H   0  0  0  0  0  0  0  0  0  0  0  0
    0.5524   -8.9697    5.5070 H   0  0  0  0  0  0  0  0  0  0  0  0
   -1.1169   -8.3883    5.5901 H   0  0  0  0  0  0  0  0  0  0  0  0
   -0.7443   -7.6751    7.9547 H   0  0  0  0  0  0  0  0  0  0  0  0
    0.9168   -8.2595    7.8707 H   0  0  0  0  0  0  0  0  0  0  0  0
   -0.4263   -9.4013    7.7521 H   0  0  0  0  0  0  0  0  0  0  0  0
   -1.6091   -6.0153    5.4652 H   0  0  0  0  0  0  0  0  0  0  0  0
   -0.8446   -3.7514    4.9390 H   0  0  0  0  0  0  0  0  0  0  0  0
    2.7054   -4.5346    2.7944 H   0  0  0  0  0  0  0  0  0  0  0  0
    2.7598   -4.4078    0.3881 H   0  0  0  0  0  0  0  0  0  0  0  0
    0.7134   -2.5371    7.3399 H   0  0  0  0  0  0  0  0  0  0  0  0
   -0.5152   -1.3153    8.9746 H   0  0  0  0  0  0  0  0  0  0  0  0
   -3.9945    3.7938    7.8179 H   0  0  0  0  0  0  0  0  0  0  0  0
   -3.7528    1.6079   12.3795 H   0  0  0  0  0  0  0  0  0  0  0  0
   -5.2260    4.7002   12.6040 H   0  0  0  0  0  0  0  0  0  0  0  0
   -7.2652    3.3332   13.0174 H   0  0  0  0  0  0  0  0  0  0  0  0
   -7.2988    1.4706   11.1828 H   0  0  0  0  0  0  0  0  0  0  0  0
   -7.4545    2.6463    8.8064 H   0  0  0  0  0  0  0  0  0  0  0  0
   -7.5174    5.2351    9.1766 H   0  0  0  0  0  0  0  0  0  0  0  0
   -8.8962    4.5714   11.3375 H   0  0  0  0  0  0  0  0  0  0  0  0
   -7.6228    5.7191   11.8224 H   0  0  0  0  0  0  0  0  0  0  0  0
   -5.3767    5.8437   10.2952 H   0  0  0  0  0  0  0  0  0  0  0  0
  1  2  2  0  0  0  0
  2  3  1  0  0  0  0
  3  4  2  0  0  0  0
  3  5  1  0  0  0  0
  5  6  2  0  0  0  0
  6  7  1  0  0  0  0
  7  8  2  0  0  0  0
  8  9  1  0  0  0  0
  9 10  2  0  0  0  0
 10 11  1  0  0  0  0
 11 12  2  0  0  0  0
 12 13  1  0  0  0  0
 13 14  3  0  0  0  0
 12 15  1  0  0  0  0
 15 16  3  0  0  0  0
  8 17  1  0  0  0  0
 17 18  1  0  0  0  0
 18 19  1  0  0  0  0
 19 20  2  0  0  0  0
 20 21  1  0  0  0  0
 21 22  1  0  0  0  0
 21 23  1  0  0  0  0
  1 24  1  0  0  0  0
 24 25  1  0  0  0  0
 25 26  1  0  0  0  0
 26 27  1  0  0  0  0
 27 28  2  0  0  0  0
 28 29  1  0  0  0  0
 29 30  1  0  0  0  0
 30 31  1  0  0  0  0
 31 32  1  0  0  0  0
 30 33  1  0  0  0  0
 33 34  2  0  0  0  0
 34 35  1  0  0  0  0
 35 36  2  0  0  0  0
 36 37  1  0  0  0  0
 37 38  1  0  0  0  0
 36 39  1  0  0  0  0
 39 40  2  0  0  0  0
 30 41  1  0  0  0  0
 41 42  2  0  0  0  0
 42 43  1  0  0  0  0
 43 44  2  0  0  0  0
 44 45  1  0  0  0  0
 45 46  1  0  0  0  0
 44 47  1  0  0  0  0
 47 48  2  0  0  0  0
 29 49  2  0  0  0  0
 49 50  1  0  0  0  0
 50 51  2  0  0  0  0
 51 52  1  0  0  0  0
 52 53  1  0  0  0  0
 53 54  2  0  0  0  0
 54 55  1  0  0  0  0
 55 56  1  0  0  0  0
 56 57  1  0  0  0  0
 57 58  2  0  0  0  0
 57 59  1  0  0  0  0
 59 60  2  0  0  0  0
 56 61  1  0  0  0  0
 61 62  1  0  0  0  0
 55 63  2  0  0  0  0
 63 64  1  0  0  0  0
 64 65  1  0  0  0  0
 65 66  2  0  0  0  0
 66 67  1  0  0  0  0
 67 68  1  0  0  0  0
 68 69  2  0  0  0  0
 69 70  1  0  0  0  0
 70 71  2  0  0  0  0
 71 72  1  0  0  0  0
 72 73  1  0  0  0  0
 71 74  1  0  0  0  0
 74 75  2  0  0  0  0
 67 76  1  0  0  0  0
 76 77  2  0  0  0  0
 77 78  1  0  0  0  0
 78 79  2  0  0  0  0
 79 80  1  0  0  0  0
 80 81  1  0  0  0  0
 79 82  1  0  0  0  0
 82 83  2  0  0  0  0
 67 84  1  0  0  0  0
 84 85  1  0  0  0  0
 84 86  2  0  0  0  0
 86 87  1  0  0  0  0
 66 88  1  0  0  0  0
 88 89  2  0  0  0  0
 89 90  1  0  0  0  0
 89 91  1  0  0  0  0
 91 92  2  0  0  0  0
 92 93  1  0  0  0  0
 93 94  2  0  0  0  0
 93 95  1  0  0  0  0
 95 96  2  0  0  0  0
 96 97  1  0  0  0  0
 97 98  2  0  0  0  0
 98 99  1  0  0  0  0
 99100  2  0  0  0  0
100101  1  0  0  0  0
101102  2  0  0  0  0
102103  1  0  0  0  0
103104  3  0  0  0  0
102105  1  0  0  0  0
105106  3  0  0  0  0
 98107  1  0  0  0  0
107108  1  0  0  0  0
108109  1  0  0  0  0
109110  2  0  0  0  0
110111  1  0  0  0  0
111112  1  0  0  0  0
111113  1  0  0  0  0
 11  2  1  0  0  0  0
 23 17  1  0  0  0  0
 32 24  2  0  0  0  0
 40 33  1  0  0  0  0
 48 41  1  0  0  0  0
 60 51  1  0  0  0  0
 85 64  2  0  0  0  0
101 92  1  0  0  0  0
113107  1  0  0  0  0
 10  5  1  0  0  0  0
 22 18  1  0  0  0  0
 31 26  2  0  0  0  0
 87 52  2  0  0  0  0
100 95  1  0  0  0  0
112108  1  0  0  0  0
 23  7  1  0  0  0  0
 58 27  1  0  0  0  0
 90 65  1  0  0  0  0
113 97  1  0  0  0  0
 60 28  1  0  0  0  0
 75 68  1  0  0  0  0
 83 76  1  0  0  0  0
 85 53  1  0  0  0  0
 59 54  1  0  0  0  0
  1114  1  0  0  0  0
  6115  1  0  0  0  0
  9116  1  0  0  0  0
 17117  1  0  0  0  0
 18118  1  0  0  0  0
 19119  1  0  0  0  0
 20120  1  0  0  0  0
 21121  1  0  0  0  0
 22122  1  0  0  0  0
 22123  1  0  0  0  0
 23124  1  0  0  0  0
 32125  1  0  0  0  0
 34126  1  0  0  0  0
 35127  1  0  0  0  0
 37128  1  0  0  0  0
 37129  1  0  0  0  0
 38130  1  0  0  0  0
 38131  1  0  0  0  0
 38132  1  0  0  0  0
 39133  1  0  0  0  0
 40134  1  0  0  0  0
 42135  1  0  0  0  0
 43136  1  0  0  0  0
 45137  1  0  0  0  0
 45138  1  0  0  0  0
 46139  1  0  0  0  0
 46140  1  0  0  0  0
 46141  1  0  0  0  0
 47142  1  0  0  0  0
 48143  1  0  0  0  0
 49144  1  0  0  0  0
 50145  1  0  0  0  0
 58146  1  0  0  0  0
 61147  1  0  0  0  0
 61148  1  0  0  0  0
 62149  1  0  0  0  0
 62150  1  0  0  0  0
 62151  1  0  0  0  0
 63152  1  0  0  0  0
 69153  1  0  0  0  0
 70154  1  0  0  0  0
 72155  1  0  0  0  0
 72156  1  0  0  0  0
 73157  1  0  0  0  0
 73158  1  0  0  0  0
 73159  1  0  0  0  0
 74160  1  0  0  0  0
 75161  1  0  0  0  0
 77162  1  0  0  0  0
 78163  1  0  0  0  0
 80164  1  0  0  0  0
 80165  1  0  0  0  0
 81166  1  0  0  0  0
 81167  1  0  0  0  0
 81168  1  0  0  0  0
 82169  1  0  0  0  0
 83170  1  0  0  0  0
 86171  1  0  0  0  0
 87172  1  0  0  0  0
 88173  1  0  0  0  0
 91174  1  0  0  0  0
 96175  1  0  0  0  0
 99176  1  0  0  0  0
107177  1  0  0  0  0
108178  1  0  0  0  0
109179  1  0  0  0  0
110180  1  0  0  0  0
111181  1  0  0  0  0
112182  1  0  0  0  0
112183  1  0  0  0  0
113184  1  0  0  0  0
M  END
