
  xtb     02022200583D
 energy: -224.115667215482 gnorm: 0.000865653161 xtb: 6.4.1 (unknown)
127143  0     0  0            999 V2000
    2.0734   -3.3687    5.3760 C   0  0  0  0  0  0  0  0  0  0  0  0
    1.8199   -2.5680    6.4591 C   0  0  0  0  0  0  0  0  0  0  0  0
    1.0419   -1.3267    6.4511 C   0  0  0  0  0  0  0  0  0  0  0  0
    0.5680   -0.7532    5.4831 O   0  0  0  0  0  0  0  0  0  0  0  0
    0.9291   -0.9007    7.8555 C   0  0  0  0  0  0  0  0  0  0  0  0
    0.2520    0.2149    8.3415 C   0  0  0  0  0  0  0  0  0  0  0  0
    0.3185    0.3583    9.7065 C   0  0  0  0  0  0  0  0  0  0  0  0
    1.0044   -0.5453   10.5287 C   0  0  0  0  0  0  0  0  0  0  0  0
    1.6736   -1.6520   10.0618 C   0  0  0  0  0  0  0  0  0  0  0  0
    1.6242   -1.8140    8.6747 C   0  0  0  0  0  0  0  0  0  0  0  0
    2.2180   -2.8451    7.8241 C   0  0  0  0  0  0  0  0  0  0  0  0
    3.0368   -3.8586    8.2531 C   0  0  0  0  0  0  0  0  0  0  0  0
    3.6775   -4.8085    7.4291 C   0  0  0  0  0  0  0  0  0  0  0  0
    4.2567   -5.6093    6.8427 N   0  0  0  0  0  0  0  0  0  0  0  0
    3.3865   -4.0834    9.6009 C   0  0  0  0  0  0  0  0  0  0  0  0
    3.7150   -4.3303   10.6733 N   0  0  0  0  0  0  0  0  0  0  0  0
    0.6666    0.2182   11.7845 C   0  0  0  0  0  0  0  0  0  0  0  0
    1.7756    1.0992   12.4112 C   0  0  0  0  0  0  0  0  0  0  0  0
    2.6997    1.4917   11.2854 C   0  0  0  0  0  0  0  0  0  0  0  0
    2.0499    2.3475   10.5078 C   0  0  0  0  0  0  0  0  0  0  0  0
    0.6741    2.5485   11.0936 C   0  0  0  0  0  0  0  0  0  0  0  0
    0.9947    2.4109   12.5905 C   0  0  0  0  0  0  0  0  0  0  0  0
   -0.0981    1.2249   10.8683 C   0  0  0  0  0  0  0  0  0  0  0  0
    1.7536   -3.1970    4.0236 C   0  0  0  0  0  0  0  0  0  0  0  0
    2.0936   -4.1626    3.0606 C   0  0  0  0  0  0  0  0  0  0  0  0
    2.6889   -5.4613    3.4100 C   0  0  0  0  0  0  0  0  0  0  0  0
    1.8987   -6.3870    4.0861 C   0  0  0  0  0  0  0  0  0  0  0  0
    2.4089   -7.6199    4.4419 C   0  0  0  0  0  0  0  0  0  0  0  0
    3.7203   -7.9328    4.1300 C   0  0  0  0  0  0  0  0  0  0  0  0
    4.5088   -7.0123    3.4655 C   0  0  0  0  0  0  0  0  0  0  0  0
    4.0128   -5.7703    3.0933 C   0  0  0  0  0  0  0  0  0  0  0  0
    4.9203   -4.7591    2.4531 C   0  0  0  0  0  0  0  0  0  0  0  0
    5.4604   -3.7880    3.5058 C   0  0  0  0  0  0  0  0  0  0  0  0
    1.7378   -3.7559    1.7802 C   0  0  0  0  0  0  0  0  0  0  0  0
    1.8538   -4.5233    0.2071 S   0  0  0  0  0  0  0  0  0  0  0  0
    1.0658   -3.1470   -0.4885 C   0  0  0  0  0  0  0  0  0  0  0  0
    0.5781   -2.7165   -1.7335 C   0  0  0  0  0  0  0  0  0  0  0  0
    0.4404   -3.3531   -2.9897 C   0  0  0  0  0  0  0  0  0  0  0  0
   -0.3187   -2.7040   -4.0276 C   0  0  0  0  0  0  0  0  0  0  0  0
   -0.4379   -3.4572   -5.1085 N   0  0  0  0  0  0  0  0  0  0  0  0
    0.3415   -4.8533   -4.8550 S   0  0  0  0  0  0  0  0  0  0  0  0
    0.8588   -4.5548   -3.3511 N   0  0  0  0  0  0  0  0  0  0  0  0
   -0.7743   -1.3799   -3.8255 C   0  0  0  0  0  0  0  0  0  0  0  0
   -1.4317   -0.4496   -4.6469 C   0  0  0  0  0  0  0  0  0  0  0  0
   -2.1924   -0.3839   -6.2003 S   0  0  0  0  0  0  0  0  0  0  0  0
   -2.5839    1.2979   -5.9009 C   0  0  0  0  0  0  0  0  0  0  0  0
   -3.2644    2.2527   -6.6449 C   0  0  0  0  0  0  0  0  0  0  0  0
   -3.8996    1.9863   -7.9441 C   0  0  0  0  0  0  0  0  0  0  0  0
   -3.4304    2.5495   -9.1332 C   0  0  0  0  0  0  0  0  0  0  0  0
   -2.1729    3.3713   -9.1715 C   0  0  0  0  0  0  0  0  0  0  0  0
   -0.9507    2.4535   -9.2494 C   0  0  0  0  0  0  0  0  0  0  0  0
   -4.1030    2.2598  -10.3124 C   0  0  0  0  0  0  0  0  0  0  0  0
   -5.2129    1.4360  -10.3232 C   0  0  0  0  0  0  0  0  0  0  0  0
   -5.6608    0.8658   -9.1442 C   0  0  0  0  0  0  0  0  0  0  0  0
   -5.0028    1.1379   -7.9609 C   0  0  0  0  0  0  0  0  0  0  0  0
   -3.3369    3.4825   -5.9672 C   0  0  0  0  0  0  0  0  0  0  0  0
   -2.5219    3.4325   -4.4057 S   0  0  0  0  0  0  0  0  0  0  0  0
   -2.1183    1.7757   -4.6625 C   0  0  0  0  0  0  0  0  0  0  0  0
   -1.4704    0.7670   -3.9474 C   0  0  0  0  0  0  0  0  0  0  0  0
   -0.8814    0.6196   -2.7156 N   0  0  0  0  0  0  0  0  0  0  0  0
   -0.4919   -0.7000   -2.6100 C   0  0  0  0  0  0  0  0  0  0  0  0
    0.0242   -1.4259   -1.5160 C   0  0  0  0  0  0  0  0  0  0  0  0
    0.1149   -1.1033   -0.1768 N   0  0  0  0  0  0  0  0  0  0  0  0
    0.7487   -2.1498    0.4454 C   0  0  0  0  0  0  0  0  0  0  0  0
    1.1244   -2.4914    1.7466 C   0  0  0  0  0  0  0  0  0  0  0  0
    0.9790   -1.7851    3.3136 S   0  0  0  0  0  0  0  0  0  0  0  0
   -0.7907   -0.2594    0.5779 C   0  0  0  0  0  0  0  0  0  0  0  0
   -1.9437   -1.0754    1.1612 C   0  0  0  0  0  0  0  0  0  0  0  0
   -0.2737    1.7512   -2.0428 C   0  0  0  0  0  0  0  0  0  0  0  0
    0.7348    2.4567   -2.9487 C   0  0  0  0  0  0  0  0  0  0  0  0
   -4.0316    4.5760   -6.4965 C   0  0  0  0  0  0  0  0  0  0  0  0
   -4.2252    5.8386   -5.9979 C   0  0  0  0  0  0  0  0  0  0  0  0
   -3.7302    6.3618   -4.7137 C   0  0  0  0  0  0  0  0  0  0  0  0
   -3.0424    5.7857   -3.8910 O   0  0  0  0  0  0  0  0  0  0  0  0
   -4.2461    7.7382   -4.6271 C   0  0  0  0  0  0  0  0  0  0  0  0
   -4.1964    8.8105   -3.7243 C   0  0  0  0  0  0  0  0  0  0  0  0
   -4.8986    9.8799   -4.2094 C   0  0  0  0  0  0  0  0  0  0  0  0
   -5.1020   11.3868   -3.4419 Cl  0  0  0  0  0  0  0  0  0  0  0  0
   -5.6276    9.5972   -5.7718 S   0  0  0  0  0  0  0  0  0  0  0  0
   -4.9778    8.0094   -5.7719 C   0  0  0  0  0  0  0  0  0  0  0  0
   -4.9890    6.8806   -6.6641 C   0  0  0  0  0  0  0  0  0  0  0  0
   -5.6021    6.8660   -7.8927 C   0  0  0  0  0  0  0  0  0  0  0  0
   -6.3067    7.9990   -8.3506 C   0  0  0  0  0  0  0  0  0  0  0  0
   -6.8833    8.9162   -8.7290 N   0  0  0  0  0  0  0  0  0  0  0  0
   -5.5996    5.8019   -8.8135 C   0  0  0  0  0  0  0  0  0  0  0  0
   -5.6339    4.9831   -9.6189 N   0  0  0  0  0  0  0  0  0  0  0  0
    2.5989   -4.2973    5.5664 H   0  0  0  0  0  0  0  0  0  0  0  0
   -0.2665    0.8836    7.6722 H   0  0  0  0  0  0  0  0  0  0  0  0
    2.1919   -2.3391   10.7092 H   0  0  0  0  0  0  0  0  0  0  0  0
    0.0951   -0.3248   12.5346 H   0  0  0  0  0  0  0  0  0  0  0  0
    2.2471    0.6718   13.2919 H   0  0  0  0  0  0  0  0  0  0  0  0
    3.6797    1.0755   11.1427 H   0  0  0  0  0  0  0  0  0  0  0  0
    2.3787    2.7893    9.5854 H   0  0  0  0  0  0  0  0  0  0  0  0
    0.1423    3.4414   10.7755 H   0  0  0  0  0  0  0  0  0  0  0  0
    0.1093    2.3069   13.2162 H   0  0  0  0  0  0  0  0  0  0  0  0
    1.6160    3.2233   12.9643 H   0  0  0  0  0  0  0  0  0  0  0  0
   -1.1699    1.3387   11.0193 H   0  0  0  0  0  0  0  0  0  0  0  0
    0.8759   -6.1301    4.3250 H   0  0  0  0  0  0  0  0  0  0  0  0
    1.7866   -8.3295    4.9660 H   0  0  0  0  0  0  0  0  0  0  0  0
    4.1305   -8.8904    4.4123 H   0  0  0  0  0  0  0  0  0  0  0  0
    5.5360   -7.2551    3.2354 H   0  0  0  0  0  0  0  0  0  0  0  0
    4.3892   -4.1994    1.6816 H   0  0  0  0  0  0  0  0  0  0  0  0
    5.7574   -5.2752    1.9800 H   0  0  0  0  0  0  0  0  0  0  0  0
    5.9405   -4.3374    4.3123 H   0  0  0  0  0  0  0  0  0  0  0  0
    4.6538   -3.1959    3.9326 H   0  0  0  0  0  0  0  0  0  0  0  0
    6.1866   -3.1115    3.0608 H   0  0  0  0  0  0  0  0  0  0  0  0
   -2.0905    4.0014   -8.2843 H   0  0  0  0  0  0  0  0  0  0  0  0
   -2.1942    4.0226  -10.0469 H   0  0  0  0  0  0  0  0  0  0  0  0
   -0.9047    1.8067   -8.3759 H   0  0  0  0  0  0  0  0  0  0  0  0
   -0.0365    3.0407   -9.2953 H   0  0  0  0  0  0  0  0  0  0  0  0
   -1.0060    1.8252  -10.1352 H   0  0  0  0  0  0  0  0  0  0  0  0
   -3.7511    2.6961  -11.2353 H   0  0  0  0  0  0  0  0  0  0  0  0
   -5.7265    1.2361  -11.2513 H   0  0  0  0  0  0  0  0  0  0  0  0
   -6.5216    0.2141   -9.1434 H   0  0  0  0  0  0  0  0  0  0  0  0
   -5.3475    0.7057   -7.0323 H   0  0  0  0  0  0  0  0  0  0  0  0
   -0.2254    0.2129    1.3867 H   0  0  0  0  0  0  0  0  0  0  0  0
   -1.2058    0.5055   -0.0742 H   0  0  0  0  0  0  0  0  0  0  0  0
   -1.5775   -1.8195    1.8626 H   0  0  0  0  0  0  0  0  0  0  0  0
   -2.4883   -1.5797    0.3654 H   0  0  0  0  0  0  0  0  0  0  0  0
   -2.6251   -0.4136    1.6878 H   0  0  0  0  0  0  0  0  0  0  0  0
    0.2519    1.3939   -1.1584 H   0  0  0  0  0  0  0  0  0  0  0  0
   -1.0598    2.4547   -1.7507 H   0  0  0  0  0  0  0  0  0  0  0  0
    0.2442    2.8946   -3.8127 H   0  0  0  0  0  0  0  0  0  0  0  0
    1.4908    1.7529   -3.2912 H   0  0  0  0  0  0  0  0  0  0  0  0
    1.2233    3.2518   -2.3928 H   0  0  0  0  0  0  0  0  0  0  0  0
   -4.4884    4.3603   -7.4562 H   0  0  0  0  0  0  0  0  0  0  0  0
   -3.6809    8.8023   -2.7826 H   0  0  0  0  0  0  0  0  0  0  0  0
  1  2  2  0  0  0  0
  2  3  1  0  0  0  0
  3  4  2  0  0  0  0
  3  5  1  0  0  0  0
  5  6  2  0  0  0  0
  6  7  1  0  0  0  0
  7  8  2  0  0  0  0
  8  9  1  0  0  0  0
  9 10  2  0  0  0  0
 10 11  1  0  0  0  0
 11 12  2  0  0  0  0
 12 13  1  0  0  0  0
 13 14  3  0  0  0  0
 12 15  1  0  0  0  0
 15 16  3  0  0  0  0
  8 17  1  0  0  0  0
 17 18  1  0  0  0  0
 18 19  1  0  0  0  0
 19 20  2  0  0  0  0
 20 21  1  0  0  0  0
 21 22  1  0  0  0  0
 21 23  1  0  0  0  0
  1 24  1  0  0  0  0
 24 25  2  0  0  0  0
 25 26  1  0  0  0  0
 26 27  2  0  0  0  0
 27 28  1  0  0  0  0
 28 29  2  0  0  0  0
 29 30  1  0  0  0  0
 30 31  2  0  0  0  0
 31 32  1  0  0  0  0
 32 33  1  0  0  0  0
 25 34  1  0  0  0  0
 34 35  1  0  0  0  0
 35 36  1  0  0  0  0
 36 37  1  0  0  0  0
 37 38  1  0  0  0  0
 38 39  1  0  0  0  0
 39 40  2  0  0  0  0
 40 41  1  0  0  0  0
 41 42  1  0  0  0  0
 39 43  1  0  0  0  0
 43 44  1  0  0  0  0
 44 45  1  0  0  0  0
 45 46  1  0  0  0  0
 46 47  1  0  0  0  0
 47 48  1  0  0  0  0
 48 49  2  0  0  0  0
 49 50  1  0  0  0  0
 50 51  1  0  0  0  0
 49 52  1  0  0  0  0
 52 53  2  0  0  0  0
 53 54  1  0  0  0  0
 54 55  2  0  0  0  0
 47 56  2  0  0  0  0
 56 57  1  0  0  0  0
 57 58  1  0  0  0  0
 58 59  1  0  0  0  0
 59 60  1  0  0  0  0
 60 61  1  0  0  0  0
 61 62  1  0  0  0  0
 62 63  1  0  0  0  0
 63 64  1  0  0  0  0
 64 65  1  0  0  0  0
 65 66  1  0  0  0  0
 63 67  1  0  0  0  0
 67 68  1  0  0  0  0
 60 69  1  0  0  0  0
 69 70  1  0  0  0  0
 56 71  1  0  0  0  0
 71 72  2  0  0  0  0
 72 73  1  0  0  0  0
 73 74  2  0  0  0  0
 73 75  1  0  0  0  0
 75 76  1  0  0  0  0
 76 77  2  0  0  0  0
 77 78  1  0  0  0  0
 77 79  1  0  0  0  0
 79 80  1  0  0  0  0
 80 81  1  0  0  0  0
 81 82  2  0  0  0  0
 82 83  1  0  0  0  0
 83 84  3  0  0  0  0
 82 85  1  0  0  0  0
 85 86  3  0  0  0  0
 11  2  1  0  0  0  0
 23 17  1  0  0  0  0
 66 24  1  0  0  0  0
 81 72  1  0  0  0  0
 10  5  1  0  0  0  0
 22 18  1  0  0  0  0
 31 26  1  0  0  0  0
 65 34  2  0  0  0  0
 80 75  2  0  0  0  0
 23  7  1  0  0  0  0
 64 36  2  0  0  0  0
 62 37  2  0  0  0  0
 42 38  2  0  0  0  0
 61 43  2  0  0  0  0
 59 44  2  0  0  0  0
 58 46  2  0  0  0  0
 55 48  1  0  0  0  0
  1 87  1  0  0  0  0
  6 88  1  0  0  0  0
  9 89  1  0  0  0  0
 17 90  1  0  0  0  0
 18 91  1  0  0  0  0
 19 92  1  0  0  0  0
 20 93  1  0  0  0  0
 21 94  1  0  0  0  0
 22 95  1  0  0  0  0
 22 96  1  0  0  0  0
 23 97  1  0  0  0  0
 27 98  1  0  0  0  0
 28 99  1  0  0  0  0
 29100  1  0  0  0  0
 30101  1  0  0  0  0
 32102  1  0  0  0  0
 32103  1  0  0  0  0
 33104  1  0  0  0  0
 33105  1  0  0  0  0
 33106  1  0  0  0  0
 50107  1  0  0  0  0
 50108  1  0  0  0  0
 51109  1  0  0  0  0
 51110  1  0  0  0  0
 51111  1  0  0  0  0
 52112  1  0  0  0  0
 53113  1  0  0  0  0
 54114  1  0  0  0  0
 55115  1  0  0  0  0
 67116  1  0  0  0  0
 67117  1  0  0  0  0
 68118  1  0  0  0  0
 68119  1  0  0  0  0
 68120  1  0  0  0  0
 69121  1  0  0  0  0
 69122  1  0  0  0  0
 70123  1  0  0  0  0
 70124  1  0  0  0  0
 70125  1  0  0  0  0
 71126  1  0  0  0  0
 76127  1  0  0  0  0
M  END
