128

C          6.82310       -2.20550       -3.36610
C          7.82640       -1.54830       -2.71460
C          7.73250       -0.77420       -1.45200
O          6.74960       -0.32430       -0.89910
C          9.11340       -0.69050       -0.93490
C          9.51020       -0.14010        0.28150
C         10.86260       -0.21040        0.51240
C         11.75670       -0.79250       -0.39620
C         11.37850       -1.33990       -1.59880
C         10.00600       -1.27130       -1.85600
C          9.23800       -1.73820       -3.00450
C          9.76240       -2.19170       -4.18690
C         11.14110       -2.33620       -4.44270
N         12.24690       -2.48500       -4.71480
C          9.00500       -2.52410       -5.33020
N          8.46740       -2.79000       -6.31000
C         12.95160       -0.51870        0.48270
C         13.87340        0.66500        0.09900
C         13.01750        1.64480       -0.66470
C         12.17150        2.19810        0.19390
C         12.43970        1.60180        1.55360
C         13.95750        1.37980        1.45710
C         11.95560        0.13190        1.49360
C          5.40770       -2.10850       -3.19230
C          4.62810       -3.25150       -3.50070
C          3.27400       -3.28190       -3.30430
C          2.63340       -2.13690       -2.81540
C          1.31760       -1.78160       -2.46680
C          1.33880       -0.45000       -2.02900
N          2.60170        0.05030       -2.09060
C          3.41140       -0.95680       -2.56110
C          4.77620       -0.94100       -2.75360
C          3.00430        1.39100       -1.75490
C          3.09960        2.26860       -3.00170
C          0.03030       -0.10670       -1.65020
C         -0.58060        1.09050       -1.22730
C         -1.97640        1.11280       -0.95380
N         -2.30310        2.36600       -0.62790
N         -1.16990        3.02480       -0.70050
C         -1.10100        4.43810       -0.47090
C         -1.14430        5.20230       -1.79140
N         -0.11290        2.32820       -1.04750
C         -2.71230       -0.09030       -0.96660
C         -2.08590       -1.31230       -1.35360
C         -0.75240       -1.28310       -1.83010
N          0.03880       -2.28970       -2.36910
C         -0.41750       -3.31070       -3.28630
C         -0.08380       -2.95840       -4.73630
N         -2.95080       -2.36500       -1.10460
C         -2.66840       -3.77650       -0.98020
C         -3.46580       -4.61750       -1.97790
C         -4.10010       -1.83290       -0.56590
C         -3.98860       -0.43580       -0.49850
N         -5.10450        0.10590        0.05990
C         -5.28870        1.49250        0.40480
C         -4.99330        1.74730        1.88150
C         -5.92210       -0.94120        0.41690
C         -5.32440       -2.19080        0.03230
C         -6.01040       -3.37970        0.31100
C         -7.21870       -3.31950        0.95130
C         -7.78450       -2.09260        1.37500
C         -7.13570       -0.89280        1.06770
C         -9.01810       -2.13600        2.09420
C         -9.47390       -1.28000        3.05580
C         -8.66790       -0.29770        3.82440
O         -7.54090        0.10030        3.60840
C         -9.49730        0.06170        4.98960
C         -9.18550        0.89130        6.04950
C        -10.13350        1.07350        7.04330
C        -11.37120        0.43530        6.98940
C        -12.36350        0.62650        8.09260
C        -11.67700       -0.40110        5.91700
C        -10.74120       -0.58640        4.91410
C        -10.77530       -1.38200        3.69090
C        -11.87290       -2.03420        3.19240
C        -13.12390       -2.08330        3.84030
N        -14.16330       -2.16550        4.32210
C        -11.92170       -2.70530        1.95240
N        -12.05460       -3.25080        0.95030
H          7.13100       -2.97200       -4.06970
H          8.78730        0.29220        0.95570
H         12.07520       -1.79380       -2.28380
H         13.51260       -1.39180        0.81040
H         14.80790        0.37450       -0.37350
H         13.07450        1.78700       -1.72790
H         11.37980        2.89550       -0.00860
H         12.06930        2.16470        2.40660
H         14.35560        0.75260        2.25370
H         14.51760        2.31250        1.40860
H         11.86700       -0.31620        2.48170
H          5.13370       -4.13150       -3.87040
H          2.70860       -4.17730       -3.51700
H          5.34720       -0.04580       -2.58390
H          3.96960        1.34870       -1.24270
H          2.25080        1.80270       -1.07970
H          3.80850        1.85070       -3.71290
H          2.12550        2.33840       -3.48010
H          3.42550        3.26800       -2.72800
H         -1.95260        4.70490        0.15760
H         -0.16730        4.64770        0.05590
H         -1.07960        6.27030       -1.60430
H         -0.30950        4.90390       -2.42100
H         -2.07300        4.99370       -2.31710
H          0.04300       -4.26870       -3.02070
H         -1.49710       -3.38990       -3.19780
H          0.98970       -2.88710       -4.88580
H         -0.53420       -2.00430       -5.00170
H         -0.47760       -3.72600       -5.39760
H         -2.95250       -4.08080        0.03470
H         -1.59610       -3.94230       -1.08690
H         -3.18810       -4.40460       -3.00710
H         -4.52730       -4.41090       -1.87520
H         -3.29280       -5.67320       -1.78680
H         -6.31770        1.78130        0.17030
H         -4.59990        2.07370       -0.21290
H         -5.65800        1.16630        2.51560
H         -5.12710        2.80210        2.10550
H         -3.96500        1.47270        2.10450
H         -5.59360       -4.33700        0.03760
H         -7.74770       -4.23320        1.17930
H         -7.59140        0.04940        1.31720
H         -9.63110       -3.00630        1.88600
H         -8.22470        1.38140        6.08890
H         -9.91340        1.72110        7.87960
H        -12.14170       -0.06020        8.91040
H        -13.37350        0.42300        7.74660
H        -12.31720        1.63950        8.48570
H        -12.63440       -0.89620        5.88810
