
  xtb     02022207583D
 energy: -229.746066588798 gnorm: 0.000180947907 xtb: 6.4.1 (unknown)
130146  0     0  0            999 V2000
    0.0635    3.1663   -5.2123 C   0  0  0  0  0  0  0  0  0  0  0  0
    1.2165    3.8135   -5.5456 C   0  0  0  0  0  0  0  0  0  0  0  0
    2.2945    4.1521   -4.5853 C   0  0  0  0  0  0  0  0  0  0  0  0
    2.2398    4.1587   -3.3741 O   0  0  0  0  0  0  0  0  0  0  0  0
    3.5000    4.3538   -5.4121 C   0  0  0  0  0  0  0  0  0  0  0  0
    4.7971    4.5663   -4.9523 C   0  0  0  0  0  0  0  0  0  0  0  0
    5.7385    4.6461   -5.9503 C   0  0  0  0  0  0  0  0  0  0  0  0
    5.4170    4.5255   -7.3092 C   0  0  0  0  0  0  0  0  0  0  0  0
    4.1398    4.3282   -7.7783 C   0  0  0  0  0  0  0  0  0  0  0  0
    3.1685    4.2392   -6.7777 C   0  0  0  0  0  0  0  0  0  0  0  0
    1.7351    3.9956   -6.8841 C   0  0  0  0  0  0  0  0  0  0  0  0
    0.9792    4.0314   -8.0261 C   0  0  0  0  0  0  0  0  0  0  0  0
   -0.4269    3.9168   -8.0269 C   0  0  0  0  0  0  0  0  0  0  0  0
   -1.5727    3.8609   -8.0786 N   0  0  0  0  0  0  0  0  0  0  0  0
    1.4982    4.2465   -9.3184 C   0  0  0  0  0  0  0  0  0  0  0  0
    1.8663    4.4105  -10.3934 N   0  0  0  0  0  0  0  0  0  0  0  0
    6.8554    4.6561   -7.7426 C   0  0  0  0  0  0  0  0  0  0  0  0
    7.6011    3.3615   -8.1526 C   0  0  0  0  0  0  0  0  0  0  0  0
    6.9339    2.2276   -7.4143 C   0  0  0  0  0  0  0  0  0  0  0  0
    7.2382    2.3465   -6.1288 C   0  0  0  0  0  0  0  0  0  0  0  0
    8.1169    3.5634   -5.9748 C   0  0  0  0  0  0  0  0  0  0  0  0
    8.8770    3.5184   -7.3099 C   0  0  0  0  0  0  0  0  0  0  0  0
    7.2129    4.7954   -6.2293 C   0  0  0  0  0  0  0  0  0  0  0  0
   -0.4483    3.0382   -3.8974 C   0  0  0  0  0  0  0  0  0  0  0  0
   -0.4767    3.9557   -2.8541 C   0  0  0  0  0  0  0  0  0  0  0  0
   -0.1584    5.3705   -3.0045 C   0  0  0  0  0  0  0  0  0  0  0  0
    0.5111    6.0543   -1.9923 C   0  0  0  0  0  0  0  0  0  0  0  0
    0.8326    7.3874   -2.1481 C   0  0  0  0  0  0  0  0  0  0  0  0
    0.4907    8.0765   -3.3051 C   0  0  0  0  0  0  0  0  0  0  0  0
    0.8057    9.5366   -3.4506 C   0  0  0  0  0  0  0  0  0  0  0  0
   -0.3373   10.3863   -2.8906 C   0  0  0  0  0  0  0  0  0  0  0  0
   -0.1986    7.3961   -4.3029 C   0  0  0  0  0  0  0  0  0  0  0  0
   -0.5198    6.0619   -4.1598 C   0  0  0  0  0  0  0  0  0  0  0  0
   -0.9407    3.3577   -1.6683 C   0  0  0  0  0  0  0  0  0  0  0  0
   -1.1570    3.9547   -0.0394 S   0  0  0  0  0  0  0  0  0  0  0  0
   -1.6276    2.3662    0.4589 C   0  0  0  0  0  0  0  0  0  0  0  0
   -1.9706    1.6723    1.6289 C   0  0  0  0  0  0  0  0  0  0  0  0
   -2.1933    2.1254    2.9480 C   0  0  0  0  0  0  0  0  0  0  0  0
   -2.5586    1.1738    3.9564 C   0  0  0  0  0  0  0  0  0  0  0  0
   -2.7750    1.7403    5.1328 N   0  0  0  0  0  0  0  0  0  0  0  0
   -2.5361    3.3347    4.9850 S   0  0  0  0  0  0  0  0  0  0  0  0
   -2.1464    3.3631    3.4150 N   0  0  0  0  0  0  0  0  0  0  0  0
   -2.5709   -0.1994    3.6241 C   0  0  0  0  0  0  0  0  0  0  0  0
   -2.6641   -1.3363    4.4382 C   0  0  0  0  0  0  0  0  0  0  0  0
   -2.8398   -1.7409    6.1097 S   0  0  0  0  0  0  0  0  0  0  0  0
   -2.5415   -3.4185    5.7111 C   0  0  0  0  0  0  0  0  0  0  0  0
   -2.4172   -4.5740    6.4914 C   0  0  0  0  0  0  0  0  0  0  0  0
   -2.5774   -4.5908    7.9432 C   0  0  0  0  0  0  0  0  0  0  0  0
   -1.9239   -3.6382    8.7216 C   0  0  0  0  0  0  0  0  0  0  0  0
   -2.0763   -3.6386   10.0935 C   0  0  0  0  0  0  0  0  0  0  0  0
   -2.8891   -4.5742   10.7226 C   0  0  0  0  0  0  0  0  0  0  0  0
   -3.0886   -4.5402   12.2090 C   0  0  0  0  0  0  0  0  0  0  0  0
   -4.2643   -3.6277   12.5661 C   0  0  0  0  0  0  0  0  0  0  0  0
   -3.5559   -5.5091    9.9388 C   0  0  0  0  0  0  0  0  0  0  0  0
   -3.4019   -5.5247    8.5672 C   0  0  0  0  0  0  0  0  0  0  0  0
   -2.0542   -5.6770    5.7123 C   0  0  0  0  0  0  0  0  0  0  0  0
   -2.0239   -5.2850    3.9920 S   0  0  0  0  0  0  0  0  0  0  0  0
   -2.3588   -3.6311    4.3370 C   0  0  0  0  0  0  0  0  0  0  0  0
   -2.4331   -2.4441    3.6115 C   0  0  0  0  0  0  0  0  0  0  0  0
   -2.2504   -2.0384    2.3175 N   0  0  0  0  0  0  0  0  0  0  0  0
   -2.3147   -0.6558    2.2973 C   0  0  0  0  0  0  0  0  0  0  0  0
   -2.1269    0.3021    1.2676 C   0  0  0  0  0  0  0  0  0  0  0  0
   -1.9529    0.1912   -0.1029 N   0  0  0  0  0  0  0  0  0  0  0  0
   -1.6409    1.4332   -0.5828 C   0  0  0  0  0  0  0  0  0  0  0  0
   -1.2719    2.0048   -1.8047 C   0  0  0  0  0  0  0  0  0  0  0  0
   -1.0828    1.4638   -3.4307 S   0  0  0  0  0  0  0  0  0  0  0  0
   -2.3914   -0.8393   -1.0188 C   0  0  0  0  0  0  0  0  0  0  0  0
   -3.8634   -1.1851   -0.8121 C   0  0  0  0  0  0  0  0  0  0  0  0
   -1.6776   -2.9636    1.3646 C   0  0  0  0  0  0  0  0  0  0  0  0
   -0.1957   -2.6838    1.1312 C   0  0  0  0  0  0  0  0  0  0  0  0
   -1.6890   -6.9537    6.1673 C   0  0  0  0  0  0  0  0  0  0  0  0
   -0.9668   -7.9114    5.5047 C   0  0  0  0  0  0  0  0  0  0  0  0
   -1.0872   -9.3329    5.9052 C   0  0  0  0  0  0  0  0  0  0  0  0
   -1.6132   -9.7636    6.9056 O   0  0  0  0  0  0  0  0  0  0  0  0
   -0.4798  -10.0973    4.7899 C   0  0  0  0  0  0  0  0  0  0  0  0
   -0.4152  -11.4656    4.5756 C   0  0  0  0  0  0  0  0  0  0  0  0
   -1.0643  -12.5724    5.7107 Cl  0  0  0  0  0  0  0  0  0  0  0  0
    0.1910  -11.9384    3.4135 C   0  0  0  0  0  0  0  0  0  0  0  0
    0.7124  -11.0376    2.5003 C   0  0  0  0  0  0  0  0  0  0  0  0
    1.5111  -11.7074    0.9172 Br  0  0  0  0  0  0  0  0  0  0  0  0
    0.6717   -9.6611    2.6969 C   0  0  0  0  0  0  0  0  0  0  0  0
    0.0716   -9.2013    3.8535 C   0  0  0  0  0  0  0  0  0  0  0  0
   -0.0904   -7.8388    4.3649 C   0  0  0  0  0  0  0  0  0  0  0  0
    0.6946   -6.7711    4.0049 C   0  0  0  0  0  0  0  0  0  0  0  0
    0.7612   -5.5756    4.7509 C   0  0  0  0  0  0  0  0  0  0  0  0
    0.8899   -4.6099    5.3589 N   0  0  0  0  0  0  0  0  0  0  0  0
    1.5689   -6.7626    2.9025 C   0  0  0  0  0  0  0  0  0  0  0  0
    2.2637   -6.6791    1.9918 N   0  0  0  0  0  0  0  0  0  0  0  0
   -0.4600    2.6054   -5.9794 H   0  0  0  0  0  0  0  0  0  0  0  0
    5.0040    4.6462   -3.8966 H   0  0  0  0  0  0  0  0  0  0  0  0
    3.9032    4.2277   -8.8249 H   0  0  0  0  0  0  0  0  0  0  0  0
    7.0835    5.4919   -8.4009 H   0  0  0  0  0  0  0  0  0  0  0  0
    7.7215    3.2307   -9.2246 H   0  0  0  0  0  0  0  0  0  0  0  0
    6.2833    1.5104   -7.8797 H   0  0  0  0  0  0  0  0  0  0  0  0
    6.8922    1.7491   -5.3057 H   0  0  0  0  0  0  0  0  0  0  0  0
    8.7073    3.6166   -5.0638 H   0  0  0  0  0  0  0  0  0  0  0  0
    9.5409    2.6588   -7.3873 H   0  0  0  0  0  0  0  0  0  0  0  0
    9.4303    4.4314   -7.5255 H   0  0  0  0  0  0  0  0  0  0  0  0
    7.6729    5.7241   -5.8973 H   0  0  0  0  0  0  0  0  0  0  0  0
    0.8115    5.5269   -1.1009 H   0  0  0  0  0  0  0  0  0  0  0  0
    1.3649    7.9015   -1.3607 H   0  0  0  0  0  0  0  0  0  0  0  0
    0.9530    9.7813   -4.5045 H   0  0  0  0  0  0  0  0  0  0  0  0
    1.7259    9.7721   -2.9121 H   0  0  0  0  0  0  0  0  0  0  0  0
   -1.2612   10.1760   -3.4245 H   0  0  0  0  0  0  0  0  0  0  0  0
   -0.4928   10.1635   -1.8375 H   0  0  0  0  0  0  0  0  0  0  0  0
   -0.1095   11.4447   -2.9929 H   0  0  0  0  0  0  0  0  0  0  0  0
   -0.4873    7.9193   -5.2036 H   0  0  0  0  0  0  0  0  0  0  0  0
   -1.0699    5.5544   -4.9399 H   0  0  0  0  0  0  0  0  0  0  0  0
   -1.2761   -2.9170    8.2472 H   0  0  0  0  0  0  0  0  0  0  0  0
   -1.5537   -2.9025   10.6869 H   0  0  0  0  0  0  0  0  0  0  0  0
   -2.1846   -4.1690   12.6955 H   0  0  0  0  0  0  0  0  0  0  0  0
   -3.2889   -5.5473   12.5795 H   0  0  0  0  0  0  0  0  0  0  0  0
   -5.1790   -3.9892   12.1017 H   0  0  0  0  0  0  0  0  0  0  0  0
   -4.4089   -3.5996   13.6433 H   0  0  0  0  0  0  0  0  0  0  0  0
   -4.0787   -2.6158   12.2131 H   0  0  0  0  0  0  0  0  0  0  0  0
   -4.2024   -6.2353   10.4099 H   0  0  0  0  0  0  0  0  0  0  0  0
   -3.9481   -6.2427    7.9726 H   0  0  0  0  0  0  0  0  0  0  0  0
   -1.7536   -1.7215   -0.9438 H   0  0  0  0  0  0  0  0  0  0  0  0
   -2.2568   -0.4354   -2.0253 H   0  0  0  0  0  0  0  0  0  0  0  0
   -4.4792   -0.3061   -0.9880 H   0  0  0  0  0  0  0  0  0  0  0  0
   -4.1618   -1.9614   -1.5115 H   0  0  0  0  0  0  0  0  0  0  0  0
   -4.0517   -1.5326    0.2009 H   0  0  0  0  0  0  0  0  0  0  0  0
   -2.2438   -2.9532    0.4341 H   0  0  0  0  0  0  0  0  0  0  0  0
   -1.7903   -3.9615    1.7954 H   0  0  0  0  0  0  0  0  0  0  0  0
   -0.0401   -1.6792    0.7452 H   0  0  0  0  0  0  0  0  0  0  0  0
    0.3510   -2.7785    2.0669 H   0  0  0  0  0  0  0  0  0  0  0  0
    0.2102   -3.4013    0.4234 H   0  0  0  0  0  0  0  0  0  0  0  0
   -2.0632   -7.2500    7.1408 H   0  0  0  0  0  0  0  0  0  0  0  0
    0.2493  -12.9995    3.2307 H   0  0  0  0  0  0  0  0  0  0  0  0
    1.0879   -8.9923    1.9611 H   0  0  0  0  0  0  0  0  0  0  0  0
  1  2  2  0  0  0  0
  2  3  1  0  0  0  0
  3  4  2  0  0  0  0
  3  5  1  0  0  0  0
  5  6  2  0  0  0  0
  6  7  1  0  0  0  0
  7  8  2  0  0  0  0
  8  9  1  0  0  0  0
  9 10  2  0  0  0  0
 10 11  1  0  0  0  0
 11 12  2  0  0  0  0
 12 13  1  0  0  0  0
 13 14  3  0  0  0  0
 12 15  1  0  0  0  0
 15 16  3  0  0  0  0
  8 17  1  0  0  0  0
 17 18  1  0  0  0  0
 18 19  1  0  0  0  0
 19 20  2  0  0  0  0
 20 21  1  0  0  0  0
 21 22  1  0  0  0  0
 21 23  1  0  0  0  0
  1 24  1  0  0  0  0
 24 25  2  0  0  0  0
 25 26  1  0  0  0  0
 26 27  2  0  0  0  0
 27 28  1  0  0  0  0
 28 29  2  0  0  0  0
 29 30  1  0  0  0  0
 30 31  1  0  0  0  0
 29 32  1  0  0  0  0
 32 33  2  0  0  0  0
 25 34  1  0  0  0  0
 34 35  1  0  0  0  0
 35 36  1  0  0  0  0
 36 37  1  0  0  0  0
 37 38  1  0  0  0  0
 38 39  1  0  0  0  0
 39 40  2  0  0  0  0
 40 41  1  0  0  0  0
 41 42  1  0  0  0  0
 39 43  1  0  0  0  0
 43 44  1  0  0  0  0
 44 45  1  0  0  0  0
 45 46  1  0  0  0  0
 46 47  1  0  0  0  0
 47 48  1  0  0  0  0
 48 49  2  0  0  0  0
 49 50  1  0  0  0  0
 50 51  2  0  0  0  0
 51 52  1  0  0  0  0
 52 53  1  0  0  0  0
 51 54  1  0  0  0  0
 54 55  2  0  0  0  0
 47 56  2  0  0  0  0
 56 57  1  0  0  0  0
 57 58  1  0  0  0  0
 58 59  1  0  0  0  0
 59 60  1  0  0  0  0
 60 61  1  0  0  0  0
 61 62  1  0  0  0  0
 62 63  1  0  0  0  0
 63 64  1  0  0  0  0
 64 65  1  0  0  0  0
 65 66  1  0  0  0  0
 63 67  1  0  0  0  0
 67 68  1  0  0  0  0
 60 69  1  0  0  0  0
 69 70  1  0  0  0  0
 56 71  1  0  0  0  0
 71 72  2  0  0  0  0
 72 73  1  0  0  0  0
 73 74  2  0  0  0  0
 73 75  1  0  0  0  0
 75 76  2  0  0  0  0
 76 77  1  0  0  0  0
 76 78  1  0  0  0  0
 78 79  2  0  0  0  0
 79 80  1  0  0  0  0
 79 81  1  0  0  0  0
 81 82  2  0  0  0  0
 82 83  1  0  0  0  0
 83 84  2  0  0  0  0
 84 85  1  0  0  0  0
 85 86  3  0  0  0  0
 84 87  1  0  0  0  0
 87 88  3  0  0  0  0
 11  2  1  0  0  0  0
 23 17  1  0  0  0  0
 66 24  1  0  0  0  0
 83 72  1  0  0  0  0
 10  5  1  0  0  0  0
 22 18  1  0  0  0  0
 33 26  1  0  0  0  0
 65 34  2  0  0  0  0
 82 75  1  0  0  0  0
 23  7  1  0  0  0  0
 64 36  2  0  0  0  0
 62 37  2  0  0  0  0
 42 38  2  0  0  0  0
 61 43  2  0  0  0  0
 59 44  2  0  0  0  0
 58 46  2  0  0  0  0
 55 48  1  0  0  0  0
  1 89  1  0  0  0  0
  6 90  1  0  0  0  0
  9 91  1  0  0  0  0
 17 92  1  0  0  0  0
 18 93  1  0  0  0  0
 19 94  1  0  0  0  0
 20 95  1  0  0  0  0
 21 96  1  0  0  0  0
 22 97  1  0  0  0  0
 22 98  1  0  0  0  0
 23 99  1  0  0  0  0
 27100  1  0  0  0  0
 28101  1  0  0  0  0
 30102  1  0  0  0  0
 30103  1  0  0  0  0
 31104  1  0  0  0  0
 31105  1  0  0  0  0
 31106  1  0  0  0  0
 32107  1  0  0  0  0
 33108  1  0  0  0  0
 49109  1  0  0  0  0
 50110  1  0  0  0  0
 52111  1  0  0  0  0
 52112  1  0  0  0  0
 53113  1  0  0  0  0
 53114  1  0  0  0  0
 53115  1  0  0  0  0
 54116  1  0  0  0  0
 55117  1  0  0  0  0
 67118  1  0  0  0  0
 67119  1  0  0  0  0
 68120  1  0  0  0  0
 68121  1  0  0  0  0
 68122  1  0  0  0  0
 69123  1  0  0  0  0
 69124  1  0  0  0  0
 70125  1  0  0  0  0
 70126  1  0  0  0  0
 70127  1  0  0  0  0
 71128  1  0  0  0  0
 78129  1  0  0  0  0
 81130  1  0  0  0  0
M  END
