104

C         -1.25330       -4.50110       -4.30750
C         -2.55350       -4.60430       -3.88450
C         -3.17260       -3.85390       -2.78800
O         -2.62880       -3.07690       -2.02000
C         -4.59790       -4.21810       -2.78720
C         -5.58750       -3.72700       -1.93940
C         -6.83690       -4.24580       -2.17980
C         -7.08450       -5.18050       -3.19390
C         -6.11650       -5.67270       -4.03730
C         -4.83570       -5.16350       -3.80580
C         -3.57150       -5.44630       -4.48400
C         -3.39880       -6.36920       -5.48410
C         -2.17850       -6.67520       -6.12140
N         -1.22710       -6.98730       -6.68610
C         -4.42860       -7.17300       -6.01680
N         -5.21040       -7.86040       -6.50140
C         -8.55340       -5.26790       -2.86420
C         -9.04250       -6.51010       -2.07920
C         -7.86130       -7.00500       -1.28180
C         -7.62440       -6.12340       -0.31960
C         -8.64140       -5.01640       -0.44880
C         -9.84700       -5.81550       -0.96880
C         -8.27650       -4.22910       -1.73200
C         -0.19100       -3.72380       -3.82760
C          1.07590       -3.70770       -4.43490
C          1.46230       -4.44810       -5.67360
C          1.03010       -3.67820       -6.92470
C          1.94400       -2.85130       -3.76890
C          1.37670       -2.22220       -2.64890
S         -0.27080       -2.66820       -2.41630
C          2.29530       -1.37180       -2.02890
C          3.54260       -1.36340       -2.67130
S          3.61520       -2.40010       -4.05440
C          4.37430       -0.49220       -1.94950
C          5.75380       -0.18530       -2.02150
N          6.65050       -0.63240       -2.88540
S          8.10440       -0.05850       -2.46750
N          7.64830        0.78930       -1.16700
C          6.34120        0.65730       -1.01230
C          5.50190        1.28430       -0.06070
C          5.72710        2.25080        0.93060
S          7.05010        3.09490        1.66120
C          5.90580        3.96180        2.66680
C          6.03760        4.92340        3.64550
C          4.80780        5.31970        4.18660
S          3.46280        4.45960        3.43920
C          4.56110        3.60050        2.42840
C          4.47130        2.62270        1.44010
N          3.47930        1.90750        0.81480
C          2.14130        2.45610        0.70610
C          2.16020        3.82240        0.02180
C          4.09730        1.05880       -0.07990
C          3.56980        0.04820       -0.90940
N          2.31480       -0.52580       -0.94900
C          1.43390       -0.75880        0.17920
C          1.61780       -2.16870        0.73960
C          4.71980        6.28230        5.19500
C          3.62320        6.78140        5.86180
C          2.23690        6.36870        5.64940
O          1.80560        5.56310        4.84270
C          1.43140        7.13090        6.62490
C          0.07030        7.08700        6.83830
C         -0.46440        7.89960        7.82990
Br        -2.32750        7.86400        8.14950
C          0.36580        8.73170        8.58140
Br        -0.36910        9.83140        9.93340
C          1.73870        8.77440        8.36080
C          2.27740        7.96780        7.37290
C          3.65310        7.78390        6.90650
C          4.74080        8.46840        7.38520
C          6.07100        8.32110        6.93930
N          7.17700        8.26470        6.63400
C          4.67290        9.44290        8.40350
N          4.68070       10.24420        9.22540
H         -0.98580       -5.10150       -5.16600
H         -5.35290       -3.00310       -1.17460
H         -6.32700       -6.38860       -4.81390
H         -9.23830       -4.98380       -3.66060
H         -9.55820       -7.25130       -2.68350
H         -7.30150       -7.88850       -1.52710
H         -6.82670       -6.12310        0.39990
H         -8.79270       -4.39810        0.43230
H        -10.23790       -6.51510       -0.23160
H        -10.65390       -5.18820       -1.34490
H         -8.78320       -3.26740       -1.78660
H          1.02020       -5.44540       -5.69010
H          2.54870       -4.55600       -5.68060
H          1.48580       -2.69080       -6.93750
H         -0.05080       -3.56170       -6.95170
H          1.34110       -4.21770       -7.81470
H          6.97190        5.33950        3.97640
H          1.52620        1.78430        0.11120
H          1.72040        2.55150        1.71160
H          1.14120        4.17800       -0.10050
H          2.70840        4.54940        0.61380
H          2.62430        3.74560       -0.95930
H          1.66570       -0.04460        0.96710
H          0.39930       -0.62550       -0.15120
H          1.33140       -2.91950        0.00910
H          2.65630       -2.32970        1.02190
H          0.99310       -2.29070        1.61980
H          5.68510        6.67790        5.48610
H         -0.56030        6.43790        6.25080
H          2.34570        9.42980        8.96370
