92

C          2.89230        4.18510        1.98990
C          1.84230        4.94830        2.42190
C          0.42170        4.54190        2.53620
O         -0.13020        3.55670        2.08450
C         -0.21990        5.55920        3.38520
C         -1.54700        5.56140        3.81140
C         -1.87520        6.63060        4.60800
C         -0.95030        7.62290        4.96200
C          0.35870        7.63630        4.54220
C          0.71300        6.55820        3.72420
C          1.98460        6.23490        3.08460
C          3.08890        7.04490        3.05210
C          4.27110        6.78080        2.32720
N          5.25230        6.65720        1.74360
C          3.18220        8.29050        3.70810
N          3.32960        9.30590        4.22290
C         -1.95800        8.37540        5.79530
C         -1.85410        8.20430        7.32590
C         -3.21080        8.64030        7.83080
C         -4.08820        7.70490        7.49040
C         -3.33930        6.62080        6.74950
C         -1.99190        6.68410        7.48040
C         -2.98990        7.27260        5.39480
C          2.86550        2.93340        1.34080
S          4.32670        1.93390        1.45150
C          3.52620        0.66300        0.63140
C          3.71540       -0.67690        0.25680
C          4.74140       -1.61650        0.51260
C          4.53070       -2.99810        0.16700
N          5.53670       -3.76930        0.54640
S          6.65560       -2.84620        1.26190
N          5.89890       -1.42380        1.12430
C          3.36680       -3.36140       -0.54990
C          2.90480       -4.57190       -1.08840
C          1.73170       -4.28830       -1.81950
N          1.45300       -2.94300       -1.74130
C          0.71490       -2.27420       -2.79520
C          1.35100       -2.52400       -4.16230
C          2.41390       -2.37550       -0.92810
C          2.51300       -1.07760       -0.38810
N          1.60180       -0.03950       -0.36250
C          2.21950        1.02310        0.25170
C          1.85290        2.30870        0.63280
C          0.15660       -0.17100       -0.33260
C         -0.39790       -0.00570        1.08250
C          1.13670       -5.40150       -2.39300
C          1.84290       -6.56160       -2.09680
S          3.29230       -6.23460       -1.12260
C          1.60300       -7.90900       -2.41130
C          0.51520       -8.52850       -2.97150
C         -0.79360       -7.96240       -3.34380
O         -1.10870       -6.80170       -3.49790
C         -1.70030       -9.12880       -3.48540
C         -3.07160       -9.13640       -3.67180
Cl        -3.94680       -7.69550       -3.93200
C         -3.74030      -10.36800       -3.62840
Cl        -5.43080      -10.42970       -3.87860
C         -3.03770      -11.53640       -3.33750
Cl        -3.89060      -13.01140       -3.18940
C         -1.64610      -11.52240       -3.14850
Cl        -0.87700      -12.96350       -2.62610
C         -0.97010      -10.31810       -3.29320
C          0.44320       -9.96560       -3.19880
C          1.50660      -10.77100       -3.50230
C          2.85660      -10.35060       -3.47450
N          3.97430      -10.09040       -3.48230
C          1.42630      -12.06370       -4.06590
N          1.46780      -13.07110       -4.61340
H          3.88920        4.53340        2.23380
H         -2.22450        4.77560        3.51580
H          1.05680        8.40750        4.82170
H         -2.14930        9.40360        5.49440
H         -0.98770        8.67810        7.77890
H         -3.39590        9.57910        8.31870
H         -5.15230        7.70600        7.63670
H         -3.82550        5.65160        6.67700
H         -2.07520        6.38260        8.52320
H         -1.19860        6.11480        6.99940
H         -3.86860        7.56480        4.82290
H         -0.31600       -2.64180       -2.79280
H          0.72030       -1.20220       -2.60460
H          0.79850       -1.97890       -4.92260
H          2.38280       -2.17900       -4.16660
H          1.33600       -3.58060       -4.41370
H          0.91860        2.78240        0.40630
H         -0.10920       -1.16510       -0.68760
H         -0.28280        0.58200       -0.99460
H          0.09130       -0.70300        1.75960
H         -1.46310       -0.22040        1.07420
H         -0.25400        1.00360        1.45610
H          0.23380       -5.40760       -2.97390
H          2.40260       -8.56700       -2.09050
