104

C         -5.36550        1.67080        5.14430
C         -4.87210        2.86640        5.60980
C         -3.77980        3.61860        5.00810
O         -3.10580        3.29510        4.03450
C         -3.63220        4.85500        5.78550
C         -2.73110        5.89290        5.55650
C         -2.83310        6.92800        6.45460
C         -3.76270        6.93050        7.50270
C         -4.66030        5.91460        7.73630
C         -4.57430        4.84980        6.83520
C         -5.35080        3.61100        6.75860
C         -6.32670        3.23330        7.64410
C         -7.06560        2.03240        7.59310
N         -7.70950        1.08170        7.63100
C         -6.72940        3.99340        8.76250
N         -7.10820        4.55220        9.69120
C         -3.30340        8.27330        8.01360
C         -2.40100        8.26370        9.26590
C         -1.73630        9.62130        9.24140
C         -0.85830        9.62270        8.24660
C         -0.91440        8.26590        7.58210
C         -1.23020        7.38840        8.80020
C         -2.26890        8.27210        6.84250
C         -4.94440        0.86590        4.07810
C         -5.59400       -0.33630        3.78390
C         -5.04140       -1.06550        2.74870
S         -5.48700       -2.63010        2.08870
C         -4.13480       -2.53010        1.01600
C         -3.45240       -3.32850        0.08920
C         -3.62910       -4.68000       -0.28630
C         -2.61440       -5.32030       -1.07420
N         -2.86720       -6.60330       -1.27650
S         -4.26460       -6.97360       -0.54820
N         -4.59890       -5.51090        0.05970
C         -1.53530       -4.54840       -1.56120
C         -0.44090       -4.88020       -2.37260
C          0.25210       -3.69130       -2.63040
N         -0.36090       -2.64030       -1.99660
C         -0.13760       -1.31060       -2.51940
C         -0.68920       -1.17640       -3.93850
C         -1.44490       -3.14840       -1.30330
C         -2.33250       -2.56900       -0.36310
N         -2.32540       -1.36230        0.30610
C         -3.40930       -1.33780        1.14320
C         -3.90720       -0.49150        2.13620
Se        -3.47600        1.15200        2.90950
C         -1.28020       -0.37900        0.46870
C         -1.63940        0.95460       -0.18740
C          1.37990       -3.86870       -3.43230
C          1.53830       -5.22990       -3.76480
S          0.28260       -6.26770       -3.10880
C          2.65010       -5.52810       -4.52920
C          3.45420       -4.43370       -4.86120
Se         2.74010       -2.81930       -4.15740
C          4.63840       -4.60830       -5.58940
C          5.58080       -3.69680       -6.00110
C          5.51330       -2.25610       -5.78880
O          4.61540       -1.64630       -5.21260
C          6.71820       -1.68130       -6.39950
C          7.48250       -2.71150       -6.94820
C          8.69270       -2.42620       -7.59250
C          9.10760       -1.12130       -7.67290
C          8.35510       -0.05860       -7.12920
C          8.78940        1.28000       -7.21890
C          8.04140        2.29260       -6.68510
C          6.82660        2.01540       -6.03700
C          6.37210        0.73030       -5.92900
C          7.12160       -0.33410       -6.47030
C          6.80630       -3.98840       -6.71740
C          7.27550       -5.21670       -7.10370
C          6.63410       -6.45280       -6.87540
N          6.18560       -7.50070       -6.73240
C          8.48910       -5.43160       -7.79130
N          9.45930       -5.68920       -8.34850
H         -6.21650        1.25820        5.67440
H         -2.03430        5.85080        4.73410
H         -5.37380        5.93910        8.54260
H         -4.06010        9.05480        8.04090
H         -2.90360        7.98080       10.18670
H         -2.00390       10.43210        9.89310
H         -0.24610       10.43500        7.90110
H         -0.06180        7.98550        6.96940
H         -1.51110        6.36690        8.55080
H         -0.41420        7.37600        9.52090
H         -2.33820        9.05190        6.08630
H         -6.45310       -0.66590        4.34380
H          0.94560       -1.13180       -2.52850
H         -0.61770       -0.57390       -1.88740
H         -0.54930       -0.15760       -4.28850
H         -1.75130       -1.41250       -3.95540
H         -0.17170       -1.84730       -4.62110
H         -0.34170       -0.78670        0.09090
H         -1.15620       -0.20620        1.54670
H         -2.44430        1.43680        0.36720
H         -1.97470        0.82260       -1.21400
H         -0.77690        1.61490       -0.17690
H          2.89760       -6.52740       -4.84580
H          4.82390       -5.64450       -5.84880
H          9.29330       -3.21150       -8.02020
H         10.03950       -0.88770       -8.16710
H          9.72440        1.48970       -7.71800
H          8.38070        3.31530       -6.75850
H          6.25160        2.83030       -5.62280
H          5.44060        0.50670       -5.43340
