
  xtb     02022206093D
 energy: -174.849667734939 gnorm: 0.000161973739 xtb: 6.4.1 (unknown)
102114  0     0  0            999 V2000
    1.4611    5.3450    2.4824 C   0  0  0  0  0  0  0  0  0  0  0  0
    1.1494    6.0999    1.3891 C   0  0  0  0  0  0  0  0  0  0  0  0
    0.5926    5.5727    0.1242 C   0  0  0  0  0  0  0  0  0  0  0  0
    0.5678    4.4196   -0.2579 O   0  0  0  0  0  0  0  0  0  0  0  0
   -0.0159    6.7325   -0.5540 C   0  0  0  0  0  0  0  0  0  0  0  0
   -0.7374    6.7158   -1.7451 C   0  0  0  0  0  0  0  0  0  0  0  0
   -1.2122    7.9468   -2.1289 C   0  0  0  0  0  0  0  0  0  0  0  0
   -0.9900    9.1119   -1.3822 C   0  0  0  0  0  0  0  0  0  0  0  0
   -0.2746    9.1441   -0.2086 C   0  0  0  0  0  0  0  0  0  0  0  0
    0.2180    7.9013    0.1986 C   0  0  0  0  0  0  0  0  0  0  0  0
    1.0054    7.5423    1.3725 C   0  0  0  0  0  0  0  0  0  0  0  0
    1.6002    8.4082    2.2517 C   0  0  0  0  0  0  0  0  0  0  0  0
    2.4822    7.9992    3.2745 C   0  0  0  0  0  0  0  0  0  0  0  0
    3.2405    7.7296    4.0935 N   0  0  0  0  0  0  0  0  0  0  0  0
    1.4619    9.8101    2.2068 C   0  0  0  0  0  0  0  0  0  0  0  0
    1.3796   10.9552    2.2240 N   0  0  0  0  0  0  0  0  0  0  0  0
   -1.7751    9.9709   -2.3414 C   0  0  0  0  0  0  0  0  0  0  0  0
   -3.2092   10.3860   -1.9287 C   0  0  0  0  0  0  0  0  0  0  0  0
   -3.7119    9.3193   -0.9878 C   0  0  0  0  0  0  0  0  0  0  0  0
   -3.9185    8.2179   -1.6973 C   0  0  0  0  0  0  0  0  0  0  0  0
   -3.5588    8.5200   -3.1311 C   0  0  0  0  0  0  0  0  0  0  0  0
   -3.9697    9.9991   -3.2073 C   0  0  0  0  0  0  0  0  0  0  0  0
   -2.0182    8.6738   -3.1756 C   0  0  0  0  0  0  0  0  0  0  0  0
    1.6330    3.9373    2.5357 C   0  0  0  0  0  0  0  0  0  0  0  0
    0.8188    3.1367    3.8878 S   0  0  0  0  0  0  0  0  0  0  0  0
    1.2776    1.6196    3.2534 C   0  0  0  0  0  0  0  0  0  0  0  0
    1.0380    0.2560    3.4913 C   0  0  0  0  0  0  0  0  0  0  0  0
    0.3536   -0.4408    4.5118 C   0  0  0  0  0  0  0  0  0  0  0  0
    0.3043   -1.8778    4.4611 C   0  0  0  0  0  0  0  0  0  0  0  0
   -0.3265   -2.3971    5.5020 N   0  0  0  0  0  0  0  0  0  0  0  0
   -0.8200   -1.1897    6.4604 S   0  0  0  0  0  0  0  0  0  0  0  0
   -0.2500    0.0457    5.5842 N   0  0  0  0  0  0  0  0  0  0  0  0
    0.8194   -2.5429    3.3247 C   0  0  0  0  0  0  0  0  0  0  0  0
    0.6842   -3.8635    2.8683 C   0  0  0  0  0  0  0  0  0  0  0  0
   -0.0148   -5.3553    3.3876 S   0  0  0  0  0  0  0  0  0  0  0  0
    0.3396   -6.0501    1.8224 C   0  0  0  0  0  0  0  0  0  0  0  0
    0.0370   -7.2959    1.2419 C   0  0  0  0  0  0  0  0  0  0  0  0
   -0.5575   -8.4486    1.9780 C   0  0  0  0  0  0  0  0  0  0  0  0
    0.1230   -8.7047    3.3208 C   0  0  0  0  0  0  0  0  0  0  0  0
    0.4518   -7.3405   -0.0767 C   0  0  0  0  0  0  0  0  0  0  0  0
    1.2921   -5.8728   -0.5716 S   0  0  0  0  0  0  0  0  0  0  0  0
    0.9947   -5.1560    0.9686 C   0  0  0  0  0  0  0  0  0  0  0  0
    1.2004   -3.9073    1.5678 C   0  0  0  0  0  0  0  0  0  0  0  0
    1.6889   -2.6749    1.2184 N   0  0  0  0  0  0  0  0  0  0  0  0
    1.4692   -1.8239    2.2855 C   0  0  0  0  0  0  0  0  0  0  0  0
    1.6999   -0.4385    2.4497 C   0  0  0  0  0  0  0  0  0  0  0  0
    2.4019    0.4601    1.6624 N   0  0  0  0  0  0  0  0  0  0  0  0
    2.1064    1.7320    2.1270 C   0  0  0  0  0  0  0  0  0  0  0  0
    2.3212    3.0581    1.7076 C   0  0  0  0  0  0  0  0  0  0  0  0
    3.2362    3.5005    0.6075 C   0  0  0  0  0  0  0  0  0  0  0  0
    4.3128    4.4708    1.0974 C   0  0  0  0  0  0  0  0  0  0  0  0
    3.6765    0.1202    1.0634 C   0  0  0  0  0  0  0  0  0  0  0  0
    4.8441    0.5858    1.9330 C   0  0  0  0  0  0  0  0  0  0  0  0
    1.9367   -2.3401   -0.1683 C   0  0  0  0  0  0  0  0  0  0  0  0
    3.2337   -2.9498   -0.6966 C   0  0  0  0  0  0  0  0  0  0  0  0
    0.3450   -8.3621   -1.0605 C   0  0  0  0  0  0  0  0  0  0  0  0
   -0.7230   -9.1649   -1.2903 C   0  0  0  0  0  0  0  0  0  0  0  0
   -0.6579  -10.4803   -2.4570 S   0  0  0  0  0  0  0  0  0  0  0  0
   -2.3977  -10.8337   -2.2464 C   0  0  0  0  0  0  0  0  0  0  0  0
   -2.9802  -11.7140   -2.8092 O   0  0  0  0  0  0  0  0  0  0  0  0
   -2.9225   -9.9461   -1.3527 N   0  0  0  0  0  0  0  0  0  0  0  0
   -4.3471   -9.9555   -1.0611 C   0  0  0  0  0  0  0  0  0  0  0  0
   -5.1283   -9.1821   -2.1153 C   0  0  0  0  0  0  0  0  0  0  0  0
   -2.0868   -8.9939   -0.7889 C   0  0  0  0  0  0  0  0  0  0  0  0
   -2.4900   -8.1314   -0.0409 O   0  0  0  0  0  0  0  0  0  0  0  0
    1.4599    5.8374    3.4496 H   0  0  0  0  0  0  0  0  0  0  0  0
   -0.8893    5.7962   -2.2884 H   0  0  0  0  0  0  0  0  0  0  0  0
   -0.1141   10.0452    0.3600 H   0  0  0  0  0  0  0  0  0  0  0  0
   -1.2272   10.7851   -2.8114 H   0  0  0  0  0  0  0  0  0  0  0  0
   -3.2997   11.4122   -1.5829 H   0  0  0  0  0  0  0  0  0  0  0  0
   -3.8083    9.4540    0.0736 H   0  0  0  0  0  0  0  0  0  0  0  0
   -4.2215    7.2486   -1.3469 H   0  0  0  0  0  0  0  0  0  0  0  0
   -3.9676    7.8474   -3.8807 H   0  0  0  0  0  0  0  0  0  0  0  0
   -5.0454   10.1422   -3.1170 H   0  0  0  0  0  0  0  0  0  0  0  0
   -3.6046   10.5056   -4.0997 H   0  0  0  0  0  0  0  0  0  0  0  0
   -1.6264    8.6399   -4.1904 H   0  0  0  0  0  0  0  0  0  0  0  0
   -0.4804   -9.3423    1.3557 H   0  0  0  0  0  0  0  0  0  0  0  0
   -1.6212   -8.2458    2.1318 H   0  0  0  0  0  0  0  0  0  0  0  0
   -0.2889   -9.6035    3.7725 H   0  0  0  0  0  0  0  0  0  0  0  0
    1.1929   -8.8467    3.1837 H   0  0  0  0  0  0  0  0  0  0  0  0
   -0.0330   -7.8763    4.0057 H   0  0  0  0  0  0  0  0  0  0  0  0
    3.7175    2.6308    0.1641 H   0  0  0  0  0  0  0  0  0  0  0  0
    2.6437    3.9743   -0.1757 H   0  0  0  0  0  0  0  0  0  0  0  0
    4.9170    4.0170    1.8810 H   0  0  0  0  0  0  0  0  0  0  0  0
    3.8716    5.3784    1.4999 H   0  0  0  0  0  0  0  0  0  0  0  0
    4.9685    4.7419    0.2733 H   0  0  0  0  0  0  0  0  0  0  0  0
    3.7455    0.5507    0.0600 H   0  0  0  0  0  0  0  0  0  0  0  0
    3.7275   -0.9629    0.9870 H   0  0  0  0  0  0  0  0  0  0  0  0
    4.8356    1.6636    2.0612 H   0  0  0  0  0  0  0  0  0  0  0  0
    4.7832    0.1228    2.9158 H   0  0  0  0  0  0  0  0  0  0  0  0
    5.7838    0.2970    1.4692 H   0  0  0  0  0  0  0  0  0  0  0  0
    1.9336   -1.2551   -0.2733 H   0  0  0  0  0  0  0  0  0  0  0  0
    1.1038   -2.7361   -0.7608 H   0  0  0  0  0  0  0  0  0  0  0  0
    3.3893   -2.6323   -1.7236 H   0  0  0  0  0  0  0  0  0  0  0  0
    4.0953   -2.6490   -0.1057 H   0  0  0  0  0  0  0  0  0  0  0  0
    3.1740   -4.0344   -0.6786 H   0  0  0  0  0  0  0  0  0  0  0  0
    1.1972   -8.4740   -1.7212 H   0  0  0  0  0  0  0  0  0  0  0  0
   -4.4670   -9.4930   -0.0788 H   0  0  0  0  0  0  0  0  0  0  0  0
   -4.6733  -10.9973   -1.0304 H   0  0  0  0  0  0  0  0  0  0  0  0
   -6.1861   -9.1958   -1.8688 H   0  0  0  0  0  0  0  0  0  0  0  0
   -4.9913   -9.6365   -3.0938 H   0  0  0  0  0  0  0  0  0  0  0  0
   -4.7905   -8.1489   -2.1509 H   0  0  0  0  0  0  0  0  0  0  0  0
  1  2  2  0  0  0  0
  2  3  1  0  0  0  0
  3  4  2  0  0  0  0
  3  5  1  0  0  0  0
  5  6  2  0  0  0  0
  6  7  1  0  0  0  0
  7  8  2  0  0  0  0
  8  9  1  0  0  0  0
  9 10  2  0  0  0  0
 10 11  1  0  0  0  0
 11 12  2  0  0  0  0
 12 13  1  0  0  0  0
 13 14  3  0  0  0  0
 12 15  1  0  0  0  0
 15 16  3  0  0  0  0
  8 17  1  0  0  0  0
 17 18  1  0  0  0  0
 18 19  1  0  0  0  0
 19 20  2  0  0  0  0
 20 21  1  0  0  0  0
 21 22  1  0  0  0  0
 21 23  1  0  0  0  0
  1 24  1  0  0  0  0
 24 25  1  0  0  0  0
 25 26  1  0  0  0  0
 26 27  1  0  0  0  0
 27 28  1  0  0  0  0
 28 29  1  0  0  0  0
 29 30  2  0  0  0  0
 30 31  1  0  0  0  0
 31 32  1  0  0  0  0
 29 33  1  0  0  0  0
 33 34  1  0  0  0  0
 34 35  1  0  0  0  0
 35 36  1  0  0  0  0
 36 37  1  0  0  0  0
 37 38  1  0  0  0  0
 38 39  1  0  0  0  0
 37 40  2  0  0  0  0
 40 41  1  0  0  0  0
 41 42  1  0  0  0  0
 42 43  1  0  0  0  0
 43 44  1  0  0  0  0
 44 45  1  0  0  0  0
 45 46  1  0  0  0  0
 46 47  1  0  0  0  0
 47 48  1  0  0  0  0
 48 49  1  0  0  0  0
 49 50  1  0  0  0  0
 50 51  1  0  0  0  0
 47 52  1  0  0  0  0
 52 53  1  0  0  0  0
 44 54  1  0  0  0  0
 54 55  1  0  0  0  0
 40 56  1  0  0  0  0
 56 57  2  0  0  0  0
 57 58  1  0  0  0  0
 58 59  1  0  0  0  0
 59 60  2  0  0  0  0
 59 61  1  0  0  0  0
 61 62  1  0  0  0  0
 62 63  1  0  0  0  0
 61 64  1  0  0  0  0
 64 65  2  0  0  0  0
 11  2  1  0  0  0  0
 23 17  1  0  0  0  0
 49 24  2  0  0  0  0
 64 57  1  0  0  0  0
 10  5  1  0  0  0  0
 22 18  1  0  0  0  0
 48 26  2  0  0  0  0
 23  7  1  0  0  0  0
 46 27  2  0  0  0  0
 32 28  2  0  0  0  0
 45 33  2  0  0  0  0
 43 34  2  0  0  0  0
 42 36  2  0  0  0  0
  1 66  1  0  0  0  0
  6 67  1  0  0  0  0
  9 68  1  0  0  0  0
 17 69  1  0  0  0  0
 18 70  1  0  0  0  0
 19 71  1  0  0  0  0
 20 72  1  0  0  0  0
 21 73  1  0  0  0  0
 22 74  1  0  0  0  0
 22 75  1  0  0  0  0
 23 76  1  0  0  0  0
 38 77  1  0  0  0  0
 38 78  1  0  0  0  0
 39 79  1  0  0  0  0
 39 80  1  0  0  0  0
 39 81  1  0  0  0  0
 50 82  1  0  0  0  0
 50 83  1  0  0  0  0
 51 84  1  0  0  0  0
 51 85  1  0  0  0  0
 51 86  1  0  0  0  0
 52 87  1  0  0  0  0
 52 88  1  0  0  0  0
 53 89  1  0  0  0  0
 53 90  1  0  0  0  0
 53 91  1  0  0  0  0
 54 92  1  0  0  0  0
 54 93  1  0  0  0  0
 55 94  1  0  0  0  0
 55 95  1  0  0  0  0
 55 96  1  0  0  0  0
 56 97  1  0  0  0  0
 62 98  1  0  0  0  0
 62 99  1  0  0  0  0
 63100  1  0  0  0  0
 63101  1  0  0  0  0
 63102  1  0  0  0  0
M  END
