110

C         -2.52120       -5.80990        2.05520
C         -1.31190       -6.44640        1.92710
C         -0.09180       -5.88190        1.34590
O          0.05220       -4.77810        0.84460
C          0.95130       -6.91060        1.48810
C          2.28420       -6.81390        1.09410
C          3.03190       -7.93230        1.37400
C          2.49260       -9.06520        1.99720
C          1.17780       -9.17600        2.38400
C          0.39870       -8.04750        2.11130
C         -1.01660       -7.79190        2.37810
C         -1.88790       -8.68750        2.94550
C         -1.53790       -9.98730        3.36700
N         -1.33310      -11.05630        3.73310
C         -3.25800       -8.46410        3.19320
N         -4.38070       -8.37030        3.42220
C          3.81030       -9.79910        1.98360
C          4.58200       -9.85270        3.31930
C          5.99710      -10.18710        2.90600
C          6.50850       -9.11550        2.31380
C          5.44760       -8.03850        2.31720
C          4.74760       -8.36220        3.64340
C          4.41150       -8.53620        1.28710
C         -2.92350       -4.52120        1.68740
C         -4.21720       -4.02680        1.92160
C         -5.35320       -4.78990        2.52050
C         -6.06070       -5.63360        1.45770
C         -4.35710       -2.71960        1.47430
Se        -5.81720       -1.50400        1.50590
C         -4.62270       -0.33030        0.69640
C         -4.58920        0.99170        0.24730
C         -5.59770        1.97480        0.31680
C         -5.29750        3.29200       -0.14040
N         -6.31280        4.12910        0.00200
S         -7.55020        3.31300        0.66290
N         -6.82970        1.86550        0.78830
C         -4.02290        3.53940       -0.68960
C         -3.52450        4.72060       -1.24400
Se        -4.07570        6.46400       -1.55050
C         -2.36270        6.70310       -2.33620
C         -1.69480        7.80570       -2.88680
C         -2.29730        9.14940       -3.11980
C         -3.77320        9.11090       -3.49780
C         -0.40440        7.46490       -3.29550
S         -0.06120        5.75340       -3.05120
C         -1.60050        5.52170       -2.31540
C         -2.23760        4.43380       -1.70790
N         -1.93710        3.12090       -1.45610
C         -3.01060        2.54050       -0.80390
C         -3.28360        1.24360       -0.27490
N         -2.54670        0.08660       -0.10430
C         -3.34950       -0.86320        0.46720
C         -3.19130       -2.18680        0.89800
S         -1.89490       -3.32440        0.90340
C         -1.17440       -0.25810       -0.39240
C         -1.04660       -0.98470       -1.73110
C         -0.66660        2.60160       -1.90280
C          0.44940        2.90520       -0.90270
C          0.60070        8.20760       -3.93970
C          0.89580        9.53840       -3.77880
C          0.56730       10.33620       -2.58080
O         -0.09870       10.00220       -1.62170
C          1.33180       11.59390       -2.72330
C          1.38830       12.66870       -1.85710
C          2.19590       13.74500       -2.19020
C          2.92240       13.70410       -3.37060
F          3.70570       14.75210       -3.67400
C          2.88530       12.63420       -4.25480
C          2.07230       11.56530       -3.91780
C          1.79960       10.30520       -4.60720
C          2.24540        9.96030       -5.85660
C          1.86880        8.78630       -6.54240
N          1.58350        7.86450       -7.16520
C          3.11280       10.75440       -6.63490
N          3.82210       11.35320       -7.30990
H         -3.30840       -6.38090        2.52780
H          2.65700       -5.92200        0.61500
H          0.78040      -10.05710        2.85870
H          3.82160      -10.74600        1.44740
H          4.13160      -10.48440        4.07990
H          6.44640      -11.15440        3.03320
H          7.47020       -9.00870        1.84720
H          5.78680       -7.01720        2.16550
H          5.39640       -8.19760        4.50200
H          3.80810       -7.83260        3.79060
H          4.82320       -8.64070        0.28500
H         -6.06390       -4.06560        2.93150
H         -5.01530       -5.43560        3.33220
H         -6.89820       -6.16220        1.90370
H         -6.43270       -4.99610        0.65820
H         -5.37940       -6.36650        1.03200
H         -1.72860        9.65130       -3.90740
H         -2.16770        9.74120       -2.20720
H         -4.39260        8.82780       -2.64610
H         -4.09000       10.09750       -3.82680
H         -3.94720        8.40380       -4.30660
H         -0.83930       -0.93370        0.40060
H         -0.55200        0.63050       -0.34840
H          0.00140       -1.15510       -1.96040
H         -1.50090       -0.41490       -2.53990
H         -1.54430       -1.94910       -1.67630
H         -0.75360        1.53820       -2.10700
H         -0.43130        3.09760       -2.85010
H          1.37300        2.43140       -1.22330
H          0.61550        3.97780       -0.84510
H          0.19660        2.55180        0.09520
H          1.24320        7.62840       -4.59400
H          0.81100       12.66100       -0.94580
H          2.27330       14.61080       -1.55190
H          3.48070       12.66340       -5.15230
