104

C         -3.78670       -0.50050        6.74850
C         -2.95210       -0.00720        7.71770
C         -1.90660        1.00420        7.52030
O         -1.71050        1.68650        6.52980
C         -1.12490        1.04190        8.76570
C          0.02030        1.79530        9.00890
C          0.57960        1.57490       10.24420
C          0.03750        0.67300       11.16950
C         -1.10420       -0.06120       10.94790
C         -1.69000        0.14670        9.69590
C         -2.87350       -0.46570        9.09180
C         -3.74700       -1.30420        9.73570
C         -4.90590       -1.87370        9.16910
N         -5.86640       -2.37540        8.78650
C         -3.62340       -1.70180       11.08340
N         -3.58980       -2.06810       12.17120
C          1.13670        0.92040       12.17240
C          2.25510       -0.14540       12.29020
C          2.33760       -0.83550       10.95130
C          2.84720        0.02640       10.08150
C          3.11720        1.31590       10.81680
C          3.49120        0.76430       12.20170
C          1.73470        1.93250       11.14490
C         -3.82190       -0.24310        5.36870
S         -2.81810        0.92920        4.51390
C         -3.42800        0.34760        3.01710
C         -3.23000        0.48840        1.64740
S         -2.21820        1.37250        0.55050
C         -2.85480        0.41920       -0.76110
C         -3.83730       -0.50220       -0.37350
C         -4.05590       -0.46470        1.00850
N         -4.75890       -1.17110        1.94280
C         -4.38590       -0.68950        3.17470
C         -4.61610       -1.00250        4.50280
C         -5.75770       -2.17390        1.67290
C         -7.14660       -1.55640        1.52960
S         -4.40030       -1.50510       -1.69050
C         -3.26210       -0.72990       -2.75450
C         -2.74270       -0.84000       -4.04390
C         -1.69780        0.11570       -4.13610
N         -1.57870        0.79570       -2.95400
C         -0.75490        1.95650       -2.72830
C         -1.39930        3.20920       -3.31710
C         -2.52310        0.29070       -2.11160
C         -0.99920        0.07370       -5.33250
C         -1.50350       -0.88850       -6.19480
S         -2.87210       -1.75940       -5.49070
C         -0.98250       -1.33630       -7.42410
C          0.06790       -0.83820       -8.13950
C          0.82740       -1.75740       -9.03260
O          0.44430       -2.81100       -9.48610
C          2.16450       -1.14160       -9.16610
C          3.31380       -1.71940       -9.70140
C          4.43910       -0.93710       -9.58810
C          4.42770        0.32990       -8.98980
C          3.29900        0.92110       -8.47360
C          2.14660        0.13880       -8.57610
C          0.79410        0.40770       -8.09280
C          0.26840        1.65320       -7.85840
C          1.00750        2.84930       -7.94180
N          1.56610        3.85230       -7.97060
C         -1.08760        1.87710       -7.54780
N         -2.18000        2.10830       -7.28040
C          5.91110        0.52320       -9.17980
C          6.34900        1.45640      -10.32750
C          7.79200        1.07650      -10.56920
C          7.80340       -0.12070      -11.14130
C          6.36810       -0.57020      -11.29640
C          5.69150        0.78490      -11.53990
C          5.92400       -0.88680       -9.85300
H         -4.49020       -1.26590        7.05380
H          0.40770        2.47110        8.26260
H         -1.50680       -0.74970       11.67180
H          0.82400        1.30090       13.14260
H          2.17080       -0.79290       13.15880
H          1.97560       -1.83010       10.76690
H          2.99560       -0.10370        9.02540
H          3.81690        2.00050       10.34450
H          3.52520        1.52740       12.97800
H          4.42580        0.20540       12.19380
H          1.80490        2.97720       11.44100
H         -5.29160       -1.75770        4.86320
H         -5.74720       -2.89420        2.49490
H         -5.48090       -2.68900        0.74880
H         -7.42400       -1.03250        2.44130
H         -7.16120       -0.85030        0.70280
H         -7.87930       -2.33430        1.33560
H         -0.61770        2.06990       -1.65020
H          0.22030        1.78010       -3.19070
H         -0.74840        4.06610       -3.17030
H         -2.35140        3.40670       -2.83060
H         -1.57550        3.08050       -4.38310
H         -0.12470        0.66030       -5.54010
H         -1.37380       -2.28140       -7.78680
H          3.28740       -2.70410      -10.14100
H          3.30070        1.88970       -8.00030
H          6.48800        0.66950       -8.26820
H          6.13990        2.50980      -10.16260
H          8.62970        1.67260      -10.25780
H          8.65260       -0.72430      -11.40300
H          6.17880       -1.36230      -12.01570
H          4.60460        0.75290      -11.49310
H          6.00260        1.23730      -12.47990
H          6.51180       -1.67840       -9.39140
