101

C         -2.80540       -3.36420        4.34110
C         -3.94550       -3.91020        3.81210
C         -4.43400       -3.86560        2.41590
O         -4.06050       -3.16420        1.49370
C         -5.48900       -4.89060        2.32480
C         -6.18780       -5.26160        1.17810
C         -7.12150       -6.24720        1.38670
C         -7.33990       -6.82840        2.64330
C         -6.65480       -6.47440        3.78110
C         -5.70550       -5.46590        3.59170
C         -4.80850       -4.82210        4.54620
C         -4.84960       -4.98640        5.90630
C         -5.72790       -5.86420        6.57580
N         -6.40790       -6.55890        7.18690
C         -4.07280       -4.27170        6.84380
N         -3.50680       -3.71810        7.67590
C         -8.42420       -7.73770        2.12240
C         -9.89290       -7.35280        2.42870
C         -9.91620       -5.85450        2.60440
C         -9.71080       -5.30420        1.41530
C         -9.54420       -6.42060        0.41400
C        -10.49170       -7.46940        1.01790
C         -8.18160       -7.08960        0.72280
C         -1.88790       -2.44040        3.80510
Se        -0.23400       -2.17650        4.75320
C          0.17370       -0.97700        3.41590
C          1.18590       -0.09390        3.02550
C          2.39150        0.23340        3.67890
C          3.22820        1.24970        3.12130
N          4.30140        1.48270        3.86120
S          4.25880        0.50150        5.14820
N          2.86820       -0.25900        4.81110
C          2.85590        1.82460        1.88550
C          3.53650        2.73900        1.07310
S          4.99720        3.65980        1.07670
C          4.61740        4.24070       -0.53190
C          5.30450        5.06240       -1.43500
C          6.54380        5.82510       -1.11210
C          6.47970        6.51450        0.24890
C          4.60760        5.17100       -2.63770
S          3.06030        4.32220       -2.59760
C          3.39920        3.73600       -1.01570
C          2.78170        2.88550       -0.09580
N          1.66010        2.10600       -0.02700
C          1.66280        1.45120        1.19180
C          0.76770        0.53810        1.81700
N         -0.49720        0.07020        1.51850
C         -0.85620       -0.85240        2.46760
C         -1.98640       -1.63580        2.68180
C         -1.49030        0.49650        0.55930
C         -1.68380       -0.52640       -0.56090
C          0.83090        1.97160       -1.20210
C         -0.10030        3.17080       -1.38250
C          4.89740        5.87070       -3.82330
C          6.13320        6.07180       -4.38340
C          7.31940        5.23310       -4.11660
O          7.44320        4.34960       -3.29540
C          8.30280        5.60680       -5.16030
C          9.56580        5.09060       -5.36410
C         10.31490        5.58170       -6.42720
Cl        11.89880        4.98620       -6.73350
C          9.76910        6.56800       -7.25200
F         10.49320        7.03040       -8.27820
C          8.49980        7.08910       -7.05490
C          7.75750        6.59990       -5.99170
C          6.41730        6.92790       -5.51490
C          5.61190        7.92540       -5.99990
C          4.36900        8.29010       -5.44040
N          3.36450        8.65510       -5.02050
C          5.94290        8.74090       -7.10190
N          6.15660        9.42260       -8.00010
H         -2.52740       -3.71740        5.32930
H         -5.98480       -4.79050        0.22880
H         -6.82860       -6.93720        4.73810
H         -8.24430       -8.80570        2.22870
H        -10.35630       -7.93580        3.22000
H        -10.01890       -5.36510        3.55510
H         -9.60770       -4.26240        1.17360
H         -9.69050       -6.15550       -0.63000
H        -10.37920       -8.45990        0.57900
H        -11.53660       -7.16540        0.97750
H         -7.84290       -7.73440       -0.08600
H          6.71130        6.57320       -1.88960
H          7.39070        5.13290       -1.13680
H          7.36120        7.13680        0.38080
H          5.59770        7.14800        0.31430
H          6.45000        5.79100        1.05830
H         -2.85840       -1.64950        2.05500
H         -1.22320        1.47500        0.17110
H         -2.43660        0.60660        1.10000
H         -2.34610       -0.11860       -1.31970
H         -2.12850       -1.43730       -0.16970
H         -0.73670       -0.79210       -1.02650
H          0.28260        1.03520       -1.15390
H          1.50000        1.91860       -2.06800
H         -0.77940        2.98790       -2.21040
H         -0.68260        3.36460       -0.48400
H          0.47750        4.06390       -1.60440
H          4.03040        6.21940       -4.37360
H          9.95950        4.32690       -4.71260
H          8.13400        7.84480       -7.73100
