110

C          5.79720        0.65510        3.90880
C          5.12990        1.55840        4.69740
C          3.73490        1.97860        4.54540
O          2.93970        1.62230        3.69020
C          3.46360        2.92550        5.63870
C          2.25940        3.57190        5.90880
C          2.30270        4.39800        7.00600
C          3.45900        4.56750        7.77890
C          4.65210        3.93290        7.52510
C          4.63130        3.08810        6.41120
C          5.68840        2.25330        5.84080
C          6.97210        2.16820        6.31820
C          8.00390        1.37240        5.77900
N          8.90040        0.75670        5.40650
C          7.45950        2.88000        7.43440
N          7.93260        3.42950        8.32480
C          2.78730        5.54010        8.71580
C          3.11750        7.03400        8.51240
C          1.98770        7.75230        9.21440
C          0.89160        7.59130        8.48420
C          1.26220        6.76170        7.27590
C          2.69940        7.24930        7.05200
C          1.49740        5.35030        7.85470
C          5.37660       -0.07150        2.78890
C          6.21290       -0.96210        2.09590
C          7.64850       -1.23800        2.40350
C          8.55450       -0.18130        1.76750
C          5.56090       -1.54510        1.01700
Se         6.11850       -2.81020       -0.28550
C          4.38420       -2.63720       -0.93580
C          3.57340       -3.19440       -1.92850
C          3.84170       -4.25270       -2.82260
C          2.77490       -4.75200       -3.63140
N          3.13780       -5.78380       -4.37640
S          4.70210       -6.09640       -4.08220
N          4.96820       -4.92650       -2.99150
C          1.52780       -4.09280       -3.58950
C          0.37600       -4.31430       -4.34880
Se        -0.23420       -5.49470       -5.64900
C         -1.80480       -4.42590       -5.62080
C         -2.99430       -4.49190       -6.32810
C         -3.28160       -5.57350       -7.31730
C         -4.05960       -6.71690       -6.66120
C         -3.87910       -3.46040       -5.95770
S         -3.18070       -2.40850       -4.72550
C         -1.74070       -3.35400       -4.70840
C         -0.53380       -3.30570       -4.00450
N          0.01170       -2.49180       -3.04270
C          1.28220       -2.96070       -2.75780
C          2.28980       -2.58020       -1.82850
N          2.32610       -1.70760       -0.75980
C          3.58580       -1.73180       -0.22450
C          4.22810       -1.12720        0.86320
S          3.76830        0.01060        2.07450
C          1.26610       -1.02220       -0.05700
C          1.25150        0.47550       -0.36200
C         -0.56070       -1.17260       -2.87770
C         -0.08030       -0.23100       -3.98050
C         -5.14490       -3.30680       -6.52050
C         -6.13960       -2.38640       -6.27490
C         -6.10610       -1.32020       -5.28060
O         -5.17580       -0.99240       -4.56700
C         -7.45870       -0.71680       -5.28610
C         -7.97070        0.26410       -4.45690
Cl        -6.98480        1.08480       -3.33220
C         -9.33640        0.56710       -4.55360
Cl       -10.00870        1.79820       -3.57570
C        -10.15400       -0.16550       -5.41130
Cl       -11.83560        0.14960       -5.43520
C         -9.62840       -1.16690       -6.24530
Cl       -10.72610       -2.14320       -7.13040
C         -8.25720       -1.38740       -6.23520
C         -7.40100       -2.30630       -6.98460
C         -7.65690       -2.82160       -8.23080
C         -8.69760       -2.41410       -9.09330
N         -9.43110       -2.07590       -9.90870
C         -6.81150       -3.71830       -8.91910
N         -6.19450       -4.46810       -9.53370
H          6.82440        0.45630        4.18180
H          1.39140        3.40820        5.28930
H          5.52860        4.07070        8.13530
H          2.76230        5.24880        9.76410
H          4.12800        7.31890        8.79220
H          2.08680        8.24010       10.16630
H         -0.10800        7.91740        8.70410
H          0.58200        6.79960        6.42920
H          3.26370        6.65420        6.33630
H          2.73780        8.29840        6.76350
H          0.61180        4.93130        8.32900
H          7.89810       -2.21860        1.98540
H          7.82570       -1.27000        3.47930
H          8.33080        0.80640        2.16340
H          8.41350       -0.16560        0.68860
H          9.59450       -0.40950        1.98220
H         -3.84050       -5.18950       -8.17210
H         -2.32360       -5.95950       -7.68000
H         -3.48680       -7.13530       -5.83610
H         -4.24730       -7.50150       -7.38880
H         -5.01410       -6.36490       -6.27660
H          0.31630       -1.50730       -0.28770
H          1.44720       -1.15320        1.01500
H          1.24920        0.66670       -1.43240
H          0.37340        0.93420        0.08380
H          2.13260        0.94590        0.06590
H         -0.31350       -0.75820       -1.90850
H         -1.64670       -1.28270       -2.93730
H         -0.52990        0.74880       -3.84780
H          1.00320       -0.13030       -3.95290
H         -0.36690       -0.61240       -4.95740
H         -5.37890       -4.06120       -7.25890
