140

C          6.46350        1.42570        1.04080
C          7.26500        1.13370       -0.03480
C          6.81890        0.66750       -1.34940
O          5.67090        0.52300       -1.73820
C          8.03780        0.39850       -2.13060
C          8.10900       -0.09750       -3.43050
C          9.39150       -0.26600       -3.89460
C         10.52030        0.03390       -3.12120
C         10.46360        0.52400       -1.83790
C          9.16750        0.70740       -1.34680
C          8.71270        1.19450       -0.04460
C          9.53170        1.64260        0.96150
C         10.93910        1.69330        0.88440
N         12.08500        1.76980        0.89760
C          9.10890        2.13200        2.21450
N          8.85340        2.54590        3.25620
C         11.47700       -0.38150       -4.21100
C         12.14900        0.75440       -5.01090
C         12.62590        0.07320       -6.27330
C         11.55730       -0.21080       -7.00680
C         10.34000        0.27380       -6.25250
C         10.93210        1.50890       -5.56170
C         10.21800       -0.71540       -5.07410
C          5.07330        1.38540        1.18780
C          4.42590        1.66200        2.40460
C          5.09870        1.99330        3.69660
C          5.53970        0.71870        4.42150
C          3.04890        1.52910        2.28800
S          1.74240        1.70660        3.44700
C          0.62500        1.30210        2.19330
C         -0.75550        1.15320        2.01420
C         -1.79220        1.36330        2.95530
N         -1.53460        1.80800        4.18220
C         -2.54610        1.98560        5.01770
C         -2.20130        2.64690        6.25220
S         -0.56060        2.51290        6.80600
C         -0.86160        3.57110        8.13850
C          0.18510        3.90050        9.14610
C          0.60280        2.66400        9.94290
C         -2.15920        3.99740        8.10340
C         -2.93050        3.49320        7.04270
F         -2.66760        4.84660        9.01680
C         -3.86300        1.57480        4.65350
C         -4.97180        1.43060        5.57050
C         -6.29540        1.45050        5.22330
C         -7.12780        1.17110        6.32100
F         -8.46960        1.16110        6.22350
C         -6.47980        0.91540        7.49540
C         -7.06680        0.55960        8.81700
C         -6.75610       -0.88950        9.19510
S         -4.77060        1.02690        7.25040
N         -4.13040        1.22990        3.40300
C         -3.12670        1.16530        2.53110
C         -3.34630        0.80010        1.18000
C         -4.56020        0.52920        0.53720
S         -6.25310        0.52310        0.88540
C         -6.55410       -0.03040       -0.75340
C         -7.72160       -0.32960       -1.44150
C         -9.07220       -0.26660       -0.80660
C         -9.48570       -1.64060       -0.27190
C         -7.44880       -0.74590       -2.75770
S         -5.72070       -0.74250       -3.11380
C         -5.38370       -0.19760       -1.51400
C         -4.24970        0.12940       -0.76570
N         -2.89360        0.14060       -0.94610
C         -2.36680       -0.31260       -2.21200
C         -2.39000        0.79760       -3.26220
C         -2.30550        0.57140        0.22670
C         -0.96720        0.79540        0.64700
N          0.26460        0.76400        0.02290
C          1.22440        1.05010        0.95570
C          2.61550        1.17670        0.99770
S          3.93260        0.98020       -0.09620
C          0.67480        0.56430       -1.34720
C          1.14890       -0.86780       -1.59340
C         -8.45080       -1.11980       -3.65830
C         -8.37860       -1.56420       -4.95650
C         -7.15060       -1.74510       -5.74120
O         -6.00910       -1.52510       -5.37660
C         -7.58080       -2.23970       -7.05760
C         -6.81120       -2.57330       -8.16920
O         -5.47380       -2.45660       -8.12330
C         -7.48370       -3.02620       -9.30900
C         -8.86050       -3.13520       -9.32630
C         -9.63090       -2.80120       -8.21840
C         -8.98280       -2.35230       -7.08150
C         -9.50780       -1.93310       -5.77990
C        -10.83740       -1.90880       -5.43890
C        -11.88920       -2.28760       -6.29860
N        -12.79910       -2.57370       -6.93820
C        -11.36290       -1.50910       -4.19300
N        -11.87410       -1.20290       -3.21000
H          6.97760        1.72020        1.94530
H          7.21300       -0.32290       -3.98740
H         11.34300        0.74130       -1.25550
H         12.16340       -1.18700       -3.95730
H         12.88580        1.32800       -4.45530
H         13.65240       -0.17420       -6.47040
H         11.51290       -0.74300       -7.93890
H          9.42930        0.41030       -6.82960
H         11.21530        2.28250       -6.27350
H         10.29110        1.93790       -4.79370
H         10.06540       -1.74410       -5.39580
H          5.96430        2.63750        3.53590
H          4.38390        2.52950        4.32390
H          4.67990        0.08580        4.62870
H          6.24750        0.15670        3.81630
H          6.01910        0.97660        5.36160
H          1.06110        4.31310        8.63930
H         -0.21250        4.66150        9.82090
H          1.36600        2.92770       10.67030
H         -0.25140        2.24680       10.47080
H          1.00250        1.90490        9.27460
H         -3.95420        3.76990        6.87280
H         -6.64620        1.65980        4.23060
H         -6.66590        1.22550        9.58550
H         -8.14770        0.70540        8.76290
H         -7.19570       -1.12640       10.16040
H         -5.68050       -1.04090        9.25390
H         -7.16260       -1.57080        8.45130
H         -9.02450        0.43870        0.02550
H         -9.82400        0.08800       -1.51300
H         -8.76640       -1.99170        0.46430
H         -9.54120       -2.36730       -1.07910
H        -10.46280       -1.57340        0.19760
H         -3.01510       -1.12480       -2.55590
H         -1.37080       -0.72300       -2.07280
H         -3.41750        1.06430       -3.49440
H         -1.87840        1.69150       -2.90990
H         -1.91380        0.45140       -4.17490
H          1.51480        1.24170       -1.53130
H         -0.13050        0.84910       -2.01850
H          2.06610       -1.05340       -1.04090
H          0.40560       -1.59490       -1.27160
H          1.35280       -1.01200       -2.65050
H         -9.44590       -1.04460       -3.24180
H         -5.07960       -2.72290       -8.96380
H         -6.90990       -3.29360      -10.18660
H         -9.35010       -3.48790      -10.22110
H        -10.70210       -2.89620       -8.26300
