
  xtb     02112207033D
 energy: -196.439057272886 gnorm: 0.000742623277 xtb: 6.4.1 (unknown)
110124  0     0  0            999 V2000
    1.7782    5.9878    3.4981 C   0  0  0  0  0  0  0  0  0  0  0  0
    0.7180    5.8828    4.3632 C   0  0  0  0  0  0  0  0  0  0  0  0
   -0.3613    4.8948    4.2966 C   0  0  0  0  0  0  0  0  0  0  0  0
   -0.5186    4.0199    3.4597 O   0  0  0  0  0  0  0  0  0  0  0  0
   -1.2357    5.1546    5.4512 C   0  0  0  0  0  0  0  0  0  0  0  0
   -2.3874    4.4559    5.8041 C   0  0  0  0  0  0  0  0  0  0  0  0
   -2.9969    4.9231    6.9435 C   0  0  0  0  0  0  0  0  0  0  0  0
   -2.5001    6.0101    7.6747 C   0  0  0  0  0  0  0  0  0  0  0  0
   -1.3670    6.7105    7.3340 C   0  0  0  0  0  0  0  0  0  0  0  0
   -0.7267    6.2476    6.1813 C   0  0  0  0  0  0  0  0  0  0  0  0
    0.4883    6.7245    5.5210 C   0  0  0  0  0  0  0  0  0  0  0  0
    1.2529    7.7836    5.9416 C   0  0  0  0  0  0  0  0  0  0  0  0
    2.4172    8.2660    5.3090 C   0  0  0  0  0  0  0  0  0  0  0  0
    3.3692    8.7258    4.8576 N   0  0  0  0  0  0  0  0  0  0  0  0
    0.9815    8.5617    7.0864 C   0  0  0  0  0  0  0  0  0  0  0  0
    0.8323    9.2392    8.0016 N   0  0  0  0  0  0  0  0  0  0  0  0
   -3.6029    5.9263    8.7002 C   0  0  0  0  0  0  0  0  0  0  0  0
   -3.2647    5.2939   10.0728 C   0  0  0  0  0  0  0  0  0  0  0  0
   -2.1191    4.3415    9.8354 C   0  0  0  0  0  0  0  0  0  0  0  0
   -2.5862    3.3108    9.1437 C   0  0  0  0  0  0  0  0  0  0  0  0
   -4.0565    3.5474    8.9011 C   0  0  0  0  0  0  0  0  0  0  0  0
   -4.4269    4.2950   10.1920 C   0  0  0  0  0  0  0  0  0  0  0  0
   -4.1548    4.7136    7.8863 C   0  0  0  0  0  0  0  0  0  0  0  0
    2.1152    5.2380    2.3657 C   0  0  0  0  0  0  0  0  0  0  0  0
    3.2631    5.4860    1.5962 C   0  0  0  0  0  0  0  0  0  0  0  0
    4.2414    6.5937    1.8137 C   0  0  0  0  0  0  0  0  0  0  0  0
    3.7359    7.8950    1.1864 C   0  0  0  0  0  0  0  0  0  0  0  0
    3.3724    4.5980    0.5338 C   0  0  0  0  0  0  0  0  0  0  0  0
    4.6717    4.3977   -0.8370 Se  0  0  0  0  0  2  0  0  0  0  0  0
    3.6048    2.9784   -1.3898 C   0  0  0  0  0  0  0  0  0  0  0  0
    3.5771    2.0219   -2.4077 C   0  0  0  0  0  0  0  0  0  0  0  0
    4.4609    1.8479   -3.4931 C   0  0  0  0  0  0  0  0  0  0  0  0
    4.1752    0.8282   -4.4501 C   0  0  0  0  0  0  0  0  0  0  0  0
    5.0589    0.7875   -5.4345 N   0  0  0  0  0  0  0  0  0  0  0  0
    6.1638    1.9460   -5.1705 S   0  0  0  0  0  0  0  0  0  0  0  0
    5.5508    2.5374   -3.7908 N   0  0  0  0  0  0  0  0  0  0  0  0
    3.0606   -0.0084   -4.2316 C   0  0  0  0  0  0  0  0  0  0  0  0
    2.6293   -1.1149   -4.9661 C   0  0  0  0  0  0  0  0  0  0  0  0
    3.1136   -2.0434   -6.5023 Se  0  0  0  0  0  2  0  0  0  0  0  0
    1.6590   -3.1790   -6.0506 C   0  0  0  0  0  0  0  0  0  0  0  0
    1.1336   -4.3098   -6.6568 C   0  0  0  0  0  0  0  0  0  0  0  0
    1.7340   -4.9115   -7.8849 C   0  0  0  0  0  0  0  0  0  0  0  0
    2.7094   -6.0325   -7.5176 C   0  0  0  0  0  0  0  0  0  0  0  0
    0.0364   -4.8241   -5.9410 C   0  0  0  0  0  0  0  0  0  0  0  0
   -0.3164   -3.8615   -4.5055 S   0  0  0  0  0  0  0  0  0  0  0  0
    0.9880   -2.7964   -4.8735 C   0  0  0  0  0  0  0  0  0  0  0  0
    1.5303   -1.6500   -4.2813 C   0  0  0  0  0  0  0  0  0  0  0  0
    1.2638   -0.8927   -3.1707 N   0  0  0  0  0  0  0  0  0  0  0  0
    2.1918    0.1313   -3.1083 C   0  0  0  0  0  0  0  0  0  0  0  0
    2.4160    1.2167   -2.2136 C   0  0  0  0  0  0  0  0  0  0  0  0
    1.7525    1.7049   -1.1007 N   0  0  0  0  0  0  0  0  0  0  0  0
    2.4631    2.7672   -0.6074 C   0  0  0  0  0  0  0  0  0  0  0  0
    2.3265    3.6622    0.4624 C   0  0  0  0  0  0  0  0  0  0  0  0
    1.1838    3.8814    1.7359 S   0  0  0  0  0  0  0  0  0  0  0  0
    0.3981    1.4898   -0.6430 C   0  0  0  0  0  0  0  0  0  0  0  0
   -0.6180    1.9932   -1.6661 C   0  0  0  0  0  0  0  0  0  0  0  0
    0.3495   -1.3983   -2.1721 C   0  0  0  0  0  0  0  0  0  0  0  0
    1.1009   -1.9813   -0.9773 C   0  0  0  0  0  0  0  0  0  0  0  0
   -0.6757   -5.9535   -6.3444 C   0  0  0  0  0  0  0  0  0  0  0  0
   -1.7584   -6.5899   -5.7794 C   0  0  0  0  0  0  0  0  0  0  0  0
   -2.4407   -6.2031   -4.5462 C   0  0  0  0  0  0  0  0  0  0  0  0
   -2.1818   -5.2705   -3.8042 O   0  0  0  0  0  0  0  0  0  0  0  0
   -3.5350   -7.1788   -4.3613 C   0  0  0  0  0  0  0  0  0  0  0  0
   -4.4666   -7.2409   -3.3457 C   0  0  0  0  0  0  0  0  0  0  0  0
   -5.3978   -8.2665   -3.4156 C   0  0  0  0  0  0  0  0  0  0  0  0
   -6.3272   -8.3679   -2.4495 F   0  0  0  0  0  0  0  0  0  0  0  0
   -5.4062   -9.1926   -4.4472 C   0  0  0  0  0  0  0  0  0  0  0  0
   -4.4624   -9.1169   -5.4615 C   0  0  0  0  0  0  0  0  0  0  0  0
   -3.5177   -8.1020   -5.4211 C   0  0  0  0  0  0  0  0  0  0  0  0
   -2.4159   -7.7600   -6.3227 C   0  0  0  0  0  0  0  0  0  0  0  0
   -2.0950   -8.4456   -7.4677 C   0  0  0  0  0  0  0  0  0  0  0  0
   -1.0353   -8.1392   -8.3460 C   0  0  0  0  0  0  0  0  0  0  0  0
   -0.1936   -7.9601   -9.1082 N   0  0  0  0  0  0  0  0  0  0  0  0
   -2.7956   -9.5770   -7.9354 C   0  0  0  0  0  0  0  0  0  0  0  0
   -3.3191  -10.4996   -8.3748 N   0  0  0  0  0  0  0  0  0  0  0  0
    2.4891    6.7736    3.7131 H   0  0  0  0  0  0  0  0  0  0  0  0
   -2.7364    3.6262    5.2094 H   0  0  0  0  0  0  0  0  0  0  0  0
   -1.0013    7.5453    7.9078 H   0  0  0  0  0  0  0  0  0  0  0  0
   -4.2343    6.8076    8.7936 H   0  0  0  0  0  0  0  0  0  0  0  0
   -3.1343    6.0099   10.8796 H   0  0  0  0  0  0  0  0  0  0  0  0
   -1.1063    4.5367   10.1360 H   0  0  0  0  0  0  0  0  0  0  0  0
   -2.0414    2.4725    8.7505 H   0  0  0  0  0  0  0  0  0  0  0  0
   -4.6471    2.6725    8.6421 H   0  0  0  0  0  0  0  0  0  0  0  0
   -4.3531    3.6668   11.0784 H   0  0  0  0  0  0  0  0  0  0  0  0
   -5.4087    4.7650   10.1547 H   0  0  0  0  0  0  0  0  0  0  0  0
   -5.1482    4.8015    7.4506 H   0  0  0  0  0  0  0  0  0  0  0  0
    5.1833    6.3091    1.3334 H   0  0  0  0  0  0  0  0  0  0  0  0
    4.4335    6.7522    2.8759 H   0  0  0  0  0  0  0  0  0  0  0  0
    4.4674    8.6843    1.3334 H   0  0  0  0  0  0  0  0  0  0  0  0
    2.7995    8.2048    1.6445 H   0  0  0  0  0  0  0  0  0  0  0  0
    3.5743    7.7599    0.1187 H   0  0  0  0  0  0  0  0  0  0  0  0
    0.9653   -5.3021   -8.5532 H   0  0  0  0  0  0  0  0  0  0  0  0
    2.2801   -4.1235   -8.4132 H   0  0  0  0  0  0  0  0  0  0  0  0
    2.1978   -6.8273   -6.9799 H   0  0  0  0  0  0  0  0  0  0  0  0
    3.5085   -5.6445   -6.8894 H   0  0  0  0  0  0  0  0  0  0  0  0
    3.1446   -6.4527   -8.4194 H   0  0  0  0  0  0  0  0  0  0  0  0
    0.2398    0.4418   -0.3937 H   0  0  0  0  0  0  0  0  0  0  0  0
    0.2840    2.0589    0.2820 H   0  0  0  0  0  0  0  0  0  0  0  0
   -1.6269    1.7993   -1.3126 H   0  0  0  0  0  0  0  0  0  0  0  0
   -0.4815    1.5107   -2.6318 H   0  0  0  0  0  0  0  0  0  0  0  0
   -0.5019    3.0655   -1.8046 H   0  0  0  0  0  0  0  0  0  0  0  0
   -0.3531   -0.6230   -1.8719 H   0  0  0  0  0  0  0  0  0  0  0  0
   -0.2323   -2.1904   -2.6484 H   0  0  0  0  0  0  0  0  0  0  0  0
    1.6997   -2.8310   -1.2966 H   0  0  0  0  0  0  0  0  0  0  0  0
    1.7672   -1.2454   -0.5316 H   0  0  0  0  0  0  0  0  0  0  0  0
    0.3946   -2.3215   -0.2252 H   0  0  0  0  0  0  0  0  0  0  0  0
   -0.3018   -6.3878   -7.2613 H   0  0  0  0  0  0  0  0  0  0  0  0
   -4.4717   -6.5270   -2.5376 H   0  0  0  0  0  0  0  0  0  0  0  0
   -6.1544   -9.9694   -4.4501 H   0  0  0  0  0  0  0  0  0  0  0  0
   -4.4808   -9.8429   -6.2571 H   0  0  0  0  0  0  0  0  0  0  0  0
  1  2  2  0  0  0  0
  2  3  1  0  0  0  0
  3  4  2  0  0  0  0
  3  5  1  0  0  0  0
  5  6  2  0  0  0  0
  6  7  1  0  0  0  0
  7  8  2  0  0  0  0
  8  9  1  0  0  0  0
  9 10  2  0  0  0  0
 10 11  1  0  0  0  0
 11 12  2  0  0  0  0
 12 13  1  0  0  0  0
 13 14  3  0  0  0  0
 12 15  1  0  0  0  0
 15 16  3  0  0  0  0
  8 17  1  0  0  0  0
 17 18  1  0  0  0  0
 18 19  1  0  0  0  0
 19 20  2  0  0  0  0
 20 21  1  0  0  0  0
 21 22  1  0  0  0  0
 21 23  1  0  0  0  0
  1 24  1  0  0  0  0
 24 25  2  0  0  0  0
 25 26  1  0  0  0  0
 26 27  1  0  0  0  0
 25 28  1  0  0  0  0
 28 29  1  0  0  0  0
 29 30  1  0  0  0  0
 30 31  1  0  0  0  0
 31 32  1  0  0  0  0
 32 33  1  0  0  0  0
 33 34  2  0  0  0  0
 34 35  1  0  0  0  0
 35 36  1  0  0  0  0
 33 37  1  0  0  0  0
 37 38  1  0  0  0  0
 38 39  1  0  0  0  0
 39 40  1  0  0  0  0
 40 41  1  0  0  0  0
 41 42  1  0  0  0  0
 42 43  1  0  0  0  0
 41 44  2  0  0  0  0
 44 45  1  0  0  0  0
 45 46  1  0  0  0  0
 46 47  1  0  0  0  0
 47 48  1  0  0  0  0
 48 49  1  0  0  0  0
 49 50  1  0  0  0  0
 50 51  1  0  0  0  0
 51 52  1  0  0  0  0
 52 53  1  0  0  0  0
 53 54  1  0  0  0  0
 51 55  1  0  0  0  0
 55 56  1  0  0  0  0
 48 57  1  0  0  0  0
 57 58  1  0  0  0  0
 44 59  1  0  0  0  0
 59 60  2  0  0  0  0
 60 61  1  0  0  0  0
 61 62  2  0  0  0  0
 61 63  1  0  0  0  0
 63 64  2  0  0  0  0
 64 65  1  0  0  0  0
 65 66  1  0  0  0  0
 65 67  2  0  0  0  0
 67 68  1  0  0  0  0
 68 69  2  0  0  0  0
 69 70  1  0  0  0  0
 70 71  2  0  0  0  0
 71 72  1  0  0  0  0
 72 73  3  0  0  0  0
 71 74  1  0  0  0  0
 74 75  3  0  0  0  0
 11  2  1  0  0  0  0
 23 17  1  0  0  0  0
 54 24  1  0  0  0  0
 70 60  1  0  0  0  0
 10  5  1  0  0  0  0
 22 18  1  0  0  0  0
 53 28  2  0  0  0  0
 69 63  1  0  0  0  0
 23  7  1  0  0  0  0
 52 30  2  0  0  0  0
 50 31  2  0  0  0  0
 36 32  2  0  0  0  0
 49 37  2  0  0  0  0
 47 38  2  0  0  0  0
 46 40  2  0  0  0  0
  1 76  1  0  0  0  0
  6 77  1  0  0  0  0
  9 78  1  0  0  0  0
 17 79  1  0  0  0  0
 18 80  1  0  0  0  0
 19 81  1  0  0  0  0
 20 82  1  0  0  0  0
 21 83  1  0  0  0  0
 22 84  1  0  0  0  0
 22 85  1  0  0  0  0
 23 86  1  0  0  0  0
 26 87  1  0  0  0  0
 26 88  1  0  0  0  0
 27 89  1  0  0  0  0
 27 90  1  0  0  0  0
 27 91  1  0  0  0  0
 42 92  1  0  0  0  0
 42 93  1  0  0  0  0
 43 94  1  0  0  0  0
 43 95  1  0  0  0  0
 43 96  1  0  0  0  0
 55 97  1  0  0  0  0
 55 98  1  0  0  0  0
 56 99  1  0  0  0  0
 56100  1  0  0  0  0
 56101  1  0  0  0  0
 57102  1  0  0  0  0
 57103  1  0  0  0  0
 58104  1  0  0  0  0
 58105  1  0  0  0  0
 58106  1  0  0  0  0
 59107  1  0  0  0  0
 64108  1  0  0  0  0
 67109  1  0  0  0  0
 68110  1  0  0  0  0
M  END
