
  xtb     02112208173D
 energy: -205.737102370869 gnorm: 0.000624606646 xtb: 6.4.1 (unknown)
116130  0     0  0            999 V2000
   -0.3314    6.2889   -4.6495 C   0  0  0  0  0  0  0  0  0  0  0  0
    0.9523    6.2721   -5.1354 C   0  0  0  0  0  0  0  0  0  0  0  0
    2.0448    5.4148   -4.6707 C   0  0  0  0  0  0  0  0  0  0  0  0
    2.0114    4.5853   -3.7755 O   0  0  0  0  0  0  0  0  0  0  0  0
    3.2162    5.7477   -5.4971 C   0  0  0  0  0  0  0  0  0  0  0  0
    4.4879    5.1851   -5.4132 C   0  0  0  0  0  0  0  0  0  0  0  0
    5.3827    5.6898   -6.3256 C   0  0  0  0  0  0  0  0  0  0  0  0
    5.0382    6.6828   -7.2519 C   0  0  0  0  0  0  0  0  0  0  0  0
    3.7896    7.2521   -7.3388 C   0  0  0  0  0  0  0  0  0  0  0  0
    2.8616    6.7515   -6.4205 C   0  0  0  0  0  0  0  0  0  0  0  0
    1.4571    7.1032   -6.2106 C   0  0  0  0  0  0  0  0  0  0  0  0
    0.7664    8.0529   -6.9207 C   0  0  0  0  0  0  0  0  0  0  0  0
   -0.5824    8.4145   -6.7246 C   0  0  0  0  0  0  0  0  0  0  0  0
   -1.6719    8.7701   -6.6351 N   0  0  0  0  0  0  0  0  0  0  0  0
    1.3126    8.8222   -7.9694 C   0  0  0  0  0  0  0  0  0  0  0  0
    1.6814    9.4827   -8.8333 N   0  0  0  0  0  0  0  0  0  0  0  0
    6.4169    6.7034   -7.8635 C   0  0  0  0  0  0  0  0  0  0  0  0
    6.5823    5.9772   -9.2155 C   0  0  0  0  0  0  0  0  0  0  0  0
    8.0728    5.7490   -9.3227 C   0  0  0  0  0  0  0  0  0  0  0  0
    8.4019    4.8115   -8.4433 C   0  0  0  0  0  0  0  0  0  0  0  0
    7.1391    4.3898   -7.7273 C   0  0  0  0  0  0  0  0  0  0  0  0
    6.1229    4.5560   -8.8645 C   0  0  0  0  0  0  0  0  0  0  0  0
    6.8021    5.5983   -6.8283 C   0  0  0  0  0  0  0  0  0  0  0  0
   -0.9449    5.5226   -3.6524 C   0  0  0  0  0  0  0  0  0  0  0  0
   -2.3018    5.6572   -3.3109 C   0  0  0  0  0  0  0  0  0  0  0  0
   -3.2770    6.5877   -3.9547 C   0  0  0  0  0  0  0  0  0  0  0  0
   -3.8446    5.9764   -5.2387 C   0  0  0  0  0  0  0  0  0  0  0  0
   -2.6670    4.7542   -2.3212 C   0  0  0  0  0  0  0  0  0  0  0  0
   -4.1966    4.4283   -1.5233 S   0  0  0  0  0  0  0  0  0  0  0  0
   -3.4167    3.1861   -0.6080 C   0  0  0  0  0  0  0  0  0  0  0  0
   -3.7381    2.2005    0.3333 C   0  0  0  0  0  0  0  0  0  0  0  0
   -4.9981    1.8447    0.8703 C   0  0  0  0  0  0  0  0  0  0  0  0
   -5.0728    0.6956    1.7288 C   0  0  0  0  0  0  0  0  0  0  0  0
   -6.2840    0.3946    2.1547 N   0  0  0  0  0  0  0  0  0  0  0  0
   -7.4214    1.5669    1.4899 Se  0  0  0  0  0  2  0  0  0  0  0  0
   -6.1509    2.4394    0.6327 N   0  0  0  0  0  0  0  0  0  0  0  0
   -3.8699    0.0323    2.0682 C   0  0  0  0  0  0  0  0  0  0  0  0
   -3.6594   -1.0357    2.9504 C   0  0  0  0  0  0  0  0  0  0  0  0
   -4.5688   -2.1085    3.9515 S   0  0  0  0  0  0  0  0  0  0  0  0
   -3.0749   -2.8458    4.4936 C   0  0  0  0  0  0  0  0  0  0  0  0
   -2.7960   -3.9242    5.3457 C   0  0  0  0  0  0  0  0  0  0  0  0
   -3.8157   -4.6482    6.1572 C   0  0  0  0  0  0  0  0  0  0  0  0
   -4.7867   -3.7079    6.8675 C   0  0  0  0  0  0  0  0  0  0  0  0
   -1.4256   -4.1564    5.4207 C   0  0  0  0  0  0  0  0  0  0  0  0
   -0.4905   -2.9826    4.4925 S   0  0  0  0  0  0  0  0  0  0  0  0
   -1.9400   -2.2538    3.9181 C   0  0  0  0  0  0  0  0  0  0  0  0
   -2.2775   -1.2333    3.0254 C   0  0  0  0  0  0  0  0  0  0  0  0
   -1.6350   -0.3404    2.2123 N   0  0  0  0  0  0  0  0  0  0  0  0
   -2.5896    0.4392    1.5869 C   0  0  0  0  0  0  0  0  0  0  0  0
   -2.5331    1.4923    0.6295 C   0  0  0  0  0  0  0  0  0  0  0  0
   -1.5274    2.0237   -0.1526 N   0  0  0  0  0  0  0  0  0  0  0  0
   -2.0541    3.0461   -0.8924 C   0  0  0  0  0  0  0  0  0  0  0  0
   -1.6157    3.9333   -1.8795 C   0  0  0  0  0  0  0  0  0  0  0  0
   -0.1406    4.2715   -2.7034 S   0  0  0  0  0  0  0  0  0  0  0  0
   -0.1610    1.6283   -0.4038 C   0  0  0  0  0  0  0  0  0  0  0  0
    0.8360    2.5518    0.2960 C   0  0  0  0  0  0  0  0  0  0  0  0
   -0.1919   -0.2966    2.2339 C   0  0  0  0  0  0  0  0  0  0  0  0
    0.4215   -1.4149    1.3903 C   0  0  0  0  0  0  0  0  0  0  0  0
   -0.6841   -5.1161    6.1394 C   0  0  0  0  0  0  0  0  0  0  0  0
   -1.0393   -6.4195    6.3615 C   0  0  0  0  0  0  0  0  0  0  0  0
   -2.0080   -7.1719    5.5331 C   0  0  0  0  0  0  0  0  0  0  0  0
   -2.7265   -6.7447    4.6552 O   0  0  0  0  0  0  0  0  0  0  0  0
   -1.8185   -8.5916    5.9076 C   0  0  0  0  0  0  0  0  0  0  0  0
   -2.4637   -9.6965    5.3914 C   0  0  0  0  0  0  0  0  0  0  0  0
   -2.0992  -10.9434    5.8917 C   0  0  0  0  0  0  0  0  0  0  0  0
   -2.6356  -12.1281    5.4291 O   0  0  0  0  0  0  0  0  0  0  0  0
   -3.9377  -12.2359    5.0756 C   0  0  0  0  0  0  0  0  0  0  0  0
   -4.7471  -11.3620    5.1975 O   0  0  0  0  0  0  0  0  0  0  0  0
   -4.2004  -13.6111    4.5304 C   0  0  0  0  0  0  0  0  0  0  0  0
   -1.1057  -11.0604    6.8627 C   0  0  0  0  0  0  0  0  0  0  0  0
   -0.4601   -9.9457    7.3701 C   0  0  0  0  0  0  0  0  0  0  0  0
   -0.8224   -8.6945    6.8928 C   0  0  0  0  0  0  0  0  0  0  0  0
   -0.3442   -7.3553    7.2195 C   0  0  0  0  0  0  0  0  0  0  0  0
    0.5378   -7.0330    8.2181 C   0  0  0  0  0  0  0  0  0  0  0  0
    1.1815   -7.9807    9.0395 C   0  0  0  0  0  0  0  0  0  0  0  0
    1.7405   -8.7072    9.7310 N   0  0  0  0  0  0  0  0  0  0  0  0
    0.8878   -5.7137    8.5744 C   0  0  0  0  0  0  0  0  0  0  0  0
    1.1955   -4.6661    8.9303 N   0  0  0  0  0  0  0  0  0  0  0  0
   -1.0022    7.0001   -5.1114 H   0  0  0  0  0  0  0  0  0  0  0  0
    4.7099    4.4241   -4.6815 H   0  0  0  0  0  0  0  0  0  0  0  0
    3.5460    8.0204   -8.0529 H   0  0  0  0  0  0  0  0  0  0  0  0
    6.9387    7.6577   -7.8268 H   0  0  0  0  0  0  0  0  0  0  0  0
    6.0998    6.4666  -10.0570 H   0  0  0  0  0  0  0  0  0  0  0  0
    8.7214    6.3140   -9.9661 H   0  0  0  0  0  0  0  0  0  0  0  0
    9.3802    4.4369   -8.2052 H   0  0  0  0  0  0  0  0  0  0  0  0
    7.1644    3.4325   -7.2134 H   0  0  0  0  0  0  0  0  0  0  0  0
    5.0844    4.4912   -8.5450 H   0  0  0  0  0  0  0  0  0  0  0  0
    6.2978    3.8544   -9.6785 H   0  0  0  0  0  0  0  0  0  0  0  0
    7.5797    5.8169   -6.0988 H   0  0  0  0  0  0  0  0  0  0  0  0
   -4.0947    6.7625   -3.2527 H   0  0  0  0  0  0  0  0  0  0  0  0
   -2.8125    7.5475   -4.1850 H   0  0  0  0  0  0  0  0  0  0  0  0
   -4.3465    5.0367   -5.0201 H   0  0  0  0  0  0  0  0  0  0  0  0
   -3.0518    5.7885   -5.9591 H   0  0  0  0  0  0  0  0  0  0  0  0
   -4.5602    6.6599   -5.6862 H   0  0  0  0  0  0  0  0  0  0  0  0
   -4.3691   -5.3192    5.4935 H   0  0  0  0  0  0  0  0  0  0  0  0
   -3.3058   -5.2681    6.8972 H   0  0  0  0  0  0  0  0  0  0  0  0
   -5.4444   -4.2864    7.5111 H   0  0  0  0  0  0  0  0  0  0  0  0
   -4.2438   -2.9931    7.4824 H   0  0  0  0  0  0  0  0  0  0  0  0
   -5.3999   -3.1615    6.1569 H   0  0  0  0  0  0  0  0  0  0  0  0
    0.0030    1.7025   -1.4840 H   0  0  0  0  0  0  0  0  0  0  0  0
   -0.0227    0.5896   -0.1197 H   0  0  0  0  0  0  0  0  0  0  0  0
    1.8431    2.1629    0.1762 H   0  0  0  0  0  0  0  0  0  0  0  0
    0.7992    3.5425   -0.1485 H   0  0  0  0  0  0  0  0  0  0  0  0
    0.6164    2.6493    1.3575 H   0  0  0  0  0  0  0  0  0  0  0  0
    0.1201   -0.4364    3.2747 H   0  0  0  0  0  0  0  0  0  0  0  0
    0.1491    0.6848    1.9177 H   0  0  0  0  0  0  0  0  0  0  0  0
    0.2071   -2.3814    1.8382 H   0  0  0  0  0  0  0  0  0  0  0  0
    1.4995   -1.2908    1.3415 H   0  0  0  0  0  0  0  0  0  0  0  0
    0.0194   -1.4196    0.3792 H   0  0  0  0  0  0  0  0  0  0  0  0
    0.2924   -4.7873    6.4775 H   0  0  0  0  0  0  0  0  0  0  0  0
   -3.2234   -9.5807    4.6355 H   0  0  0  0  0  0  0  0  0  0  0  0
   -3.7507  -13.6895    3.5423 H   0  0  0  0  0  0  0  0  0  0  0  0
   -3.7438  -14.3601    5.1714 H   0  0  0  0  0  0  0  0  0  0  0  0
   -5.2708  -13.7742    4.4541 H   0  0  0  0  0  0  0  0  0  0  0  0
   -0.8443  -12.0470    7.2122 H   0  0  0  0  0  0  0  0  0  0  0  0
    0.3082  -10.0659    8.1163 H   0  0  0  0  0  0  0  0  0  0  0  0
  1  2  2  0  0  0  0
  2  3  1  0  0  0  0
  3  4  2  0  0  0  0
  3  5  1  0  0  0  0
  5  6  2  0  0  0  0
  6  7  1  0  0  0  0
  7  8  2  0  0  0  0
  8  9  1  0  0  0  0
  9 10  2  0  0  0  0
 10 11  1  0  0  0  0
 11 12  2  0  0  0  0
 12 13  1  0  0  0  0
 13 14  3  0  0  0  0
 12 15  1  0  0  0  0
 15 16  3  0  0  0  0
  8 17  1  0  0  0  0
 17 18  1  0  0  0  0
 18 19  1  0  0  0  0
 19 20  2  0  0  0  0
 20 21  1  0  0  0  0
 21 22  1  0  0  0  0
 21 23  1  0  0  0  0
  1 24  1  0  0  0  0
 24 25  2  0  0  0  0
 25 26  1  0  0  0  0
 26 27  1  0  0  0  0
 25 28  1  0  0  0  0
 28 29  1  0  0  0  0
 29 30  1  0  0  0  0
 30 31  1  0  0  0  0
 31 32  1  0  0  0  0
 32 33  1  0  0  0  0
 33 34  2  0  0  0  0
 34 35  1  0  0  0  0
 35 36  1  0  0  0  0
 33 37  1  0  0  0  0
 37 38  1  0  0  0  0
 38 39  1  0  0  0  0
 39 40  1  0  0  0  0
 40 41  1  0  0  0  0
 41 42  1  0  0  0  0
 42 43  1  0  0  0  0
 41 44  2  0  0  0  0
 44 45  1  0  0  0  0
 45 46  1  0  0  0  0
 46 47  1  0  0  0  0
 47 48  1  0  0  0  0
 48 49  1  0  0  0  0
 49 50  1  0  0  0  0
 50 51  1  0  0  0  0
 51 52  1  0  0  0  0
 52 53  1  0  0  0  0
 53 54  1  0  0  0  0
 51 55  1  0  0  0  0
 55 56  1  0  0  0  0
 48 57  1  0  0  0  0
 57 58  1  0  0  0  0
 44 59  1  0  0  0  0
 59 60  2  0  0  0  0
 60 61  1  0  0  0  0
 61 62  2  0  0  0  0
 61 63  1  0  0  0  0
 63 64  2  0  0  0  0
 64 65  1  0  0  0  0
 65 66  1  0  0  0  0
 66 67  1  0  0  0  0
 67 68  2  0  0  0  0
 67 69  1  0  0  0  0
 65 70  2  0  0  0  0
 70 71  1  0  0  0  0
 71 72  2  0  0  0  0
 72 73  1  0  0  0  0
 73 74  2  0  0  0  0
 74 75  1  0  0  0  0
 75 76  3  0  0  0  0
 74 77  1  0  0  0  0
 77 78  3  0  0  0  0
 11  2  1  0  0  0  0
 23 17  1  0  0  0  0
 54 24  1  0  0  0  0
 73 60  1  0  0  0  0
 10  5  1  0  0  0  0
 22 18  1  0  0  0  0
 53 28  2  0  0  0  0
 72 63  1  0  0  0  0
 23  7  1  0  0  0  0
 52 30  2  0  0  0  0
 50 31  2  0  0  0  0
 36 32  2  0  0  0  0
 49 37  2  0  0  0  0
 47 38  2  0  0  0  0
 46 40  2  0  0  0  0
  1 79  1  0  0  0  0
  6 80  1  0  0  0  0
  9 81  1  0  0  0  0
 17 82  1  0  0  0  0
 18 83  1  0  0  0  0
 19 84  1  0  0  0  0
 20 85  1  0  0  0  0
 21 86  1  0  0  0  0
 22 87  1  0  0  0  0
 22 88  1  0  0  0  0
 23 89  1  0  0  0  0
 26 90  1  0  0  0  0
 26 91  1  0  0  0  0
 27 92  1  0  0  0  0
 27 93  1  0  0  0  0
 27 94  1  0  0  0  0
 42 95  1  0  0  0  0
 42 96  1  0  0  0  0
 43 97  1  0  0  0  0
 43 98  1  0  0  0  0
 43 99  1  0  0  0  0
 55100  1  0  0  0  0
 55101  1  0  0  0  0
 56102  1  0  0  0  0
 56103  1  0  0  0  0
 56104  1  0  0  0  0
 57105  1  0  0  0  0
 57106  1  0  0  0  0
 58107  1  0  0  0  0
 58108  1  0  0  0  0
 58109  1  0  0  0  0
 59110  1  0  0  0  0
 64111  1  0  0  0  0
 69112  1  0  0  0  0
 69113  1  0  0  0  0
 69114  1  0  0  0  0
 70115  1  0  0  0  0
 71116  1  0  0  0  0
M  END
