
  xtb     02022220233D
 energy: -182.333544774074 gnorm: 0.000240190497 xtb: 6.4.1 (unknown)
105118  0     0  0            999 V2000
    5.9055   -0.8834   -2.3905 C   0  0  0  0  0  0  0  0  0  0  0  0
    6.3950   -1.0298   -1.1280 C   0  0  0  0  0  0  0  0  0  0  0  0
    7.4766   -2.0147   -0.8646 C   0  0  0  0  0  0  0  0  0  0  0  0
    8.2037   -2.5309   -1.6838 O   0  0  0  0  0  0  0  0  0  0  0  0
    7.4140   -2.2760    0.5881 C   0  0  0  0  0  0  0  0  0  0  0  0
    8.1249   -3.2346    1.3064 C   0  0  0  0  0  0  0  0  0  0  0  0
    7.8235   -3.2685    2.6470 C   0  0  0  0  0  0  0  0  0  0  0  0
    6.8759   -2.4197    3.2354 C   0  0  0  0  0  0  0  0  0  0  0  0
    6.1727   -1.4631    2.5427 C   0  0  0  0  0  0  0  0  0  0  0  0
    6.4733   -1.4067    1.1805 C   0  0  0  0  0  0  0  0  0  0  0  0
    5.9630   -0.5090    0.1489 C   0  0  0  0  0  0  0  0  0  0  0  0
    5.4302    0.7358    0.3651 C   0  0  0  0  0  0  0  0  0  0  0  0
    5.0867    1.2410    1.6329 C   0  0  0  0  0  0  0  0  0  0  0  0
    4.7629    1.6904    2.6390 N   0  0  0  0  0  0  0  0  0  0  0  0
    5.2528    1.6762   -0.6713 C   0  0  0  0  0  0  0  0  0  0  0  0
    5.1449    2.4787   -1.4852 N   0  0  0  0  0  0  0  0  0  0  0  0
    7.0787   -3.0122    4.6070 C   0  0  0  0  0  0  0  0  0  0  0  0
    7.9161   -2.1985    5.6239 C   0  0  0  0  0  0  0  0  0  0  0  0
    8.8520   -1.3360    4.8136 C   0  0  0  0  0  0  0  0  0  0  0  0
    9.7557   -2.1317    4.2576 C   0  0  0  0  0  0  0  0  0  0  0  0
    9.4473   -3.5465    4.6817 C   0  0  0  0  0  0  0  0  0  0  0  0
    8.8907   -3.2911    6.0915 C   0  0  0  0  0  0  0  0  0  0  0  0
    8.1413   -3.9513    3.9538 C   0  0  0  0  0  0  0  0  0  0  0  0
    4.6399   -0.4179   -2.8058 C   0  0  0  0  0  0  0  0  0  0  0  0
    4.2388   -0.1650   -4.1132 C   0  0  0  0  0  0  0  0  0  0  0  0
    5.1210   -0.2345   -5.3158 C   0  0  0  0  0  0  0  0  0  0  0  0
    5.0358   -1.6193   -5.9634 C   0  0  0  0  0  0  0  0  0  0  0  0
    2.8781    0.1484   -4.1805 C   0  0  0  0  0  0  0  0  0  0  0  0
    1.8204    0.5455   -5.5172 S   0  0  0  0  0  0  0  0  0  0  0  0
    0.5088    0.7011   -4.4031 C   0  0  0  0  0  0  0  0  0  0  0  0
   -0.8464    1.0634   -4.4006 C   0  0  0  0  0  0  0  0  0  0  0  0
   -1.6754    1.5275   -5.4497 C   0  0  0  0  0  0  0  0  0  0  0  0
   -3.0043    1.9756   -5.1251 C   0  0  0  0  0  0  0  0  0  0  0  0
   -3.6956    2.4485   -6.1436 N   0  0  0  0  0  0  0  0  0  0  0  0
   -2.7012    2.3505   -7.5959 Se  0  0  0  0  0  2  0  0  0  0  0  0
   -1.3423    1.6466   -6.7199 N   0  0  0  0  0  0  0  0  0  0  0  0
   -3.4621    1.8233   -3.7942 C   0  0  0  0  0  0  0  0  0  0  0  0
   -4.7269    2.0575   -3.2341 C   0  0  0  0  0  0  0  0  0  0  0  0
   -6.2753    2.6697   -3.7017 S   0  0  0  0  0  0  0  0  0  0  0  0
   -6.8667    2.3217   -2.0874 C   0  0  0  0  0  0  0  0  0  0  0  0
   -8.1066    2.5043   -1.4812 C   0  0  0  0  0  0  0  0  0  0  0  0
   -9.2920    3.0450   -2.2134 C   0  0  0  0  0  0  0  0  0  0  0  0
  -10.1668    1.9070   -2.7457 C   0  0  0  0  0  0  0  0  0  0  0  0
   -8.0931    2.0706   -0.1503 C   0  0  0  0  0  0  0  0  0  0  0  0
   -6.5200    1.4392    0.3298 S   0  0  0  0  0  0  0  0  0  0  0  0
   -5.8976    1.7572   -1.2452 C   0  0  0  0  0  0  0  0  0  0  0  0
   -4.6745    1.6137   -1.9092 C   0  0  0  0  0  0  0  0  0  0  0  0
   -3.4210    1.1420   -1.6178 N   0  0  0  0  0  0  0  0  0  0  0  0
   -2.6517    1.2688   -2.7621 C   0  0  0  0  0  0  0  0  0  0  0  0
   -1.2883    0.9960   -3.0480 C   0  0  0  0  0  0  0  0  0  0  0  0
   -0.2141    0.6458   -2.2540 N   0  0  0  0  0  0  0  0  0  0  0  0
    0.8673    0.4548   -3.0722 C   0  0  0  0  0  0  0  0  0  0  0  0
    2.2202    0.1363   -2.9431 C   0  0  0  0  0  0  0  0  0  0  0  0
    3.2996   -0.2774   -1.6675 S   0  0  0  0  0  0  0  0  0  0  0  0
   -0.0069    0.8079   -0.8321 C   0  0  0  0  0  0  0  0  0  0  0  0
    0.1169   -0.5322   -0.1093 C   0  0  0  0  0  0  0  0  0  0  0  0
   -3.2866    0.2225   -0.5078 C   0  0  0  0  0  0  0  0  0  0  0  0
   -3.5207   -1.2157   -0.9654 C   0  0  0  0  0  0  0  0  0  0  0  0
   -9.2061    2.1405    0.7057 C   0  0  0  0  0  0  0  0  0  0  0  0
   -9.3468    1.7768    2.0115 C   0  0  0  0  0  0  0  0  0  0  0  0
  -10.8823    1.9991    2.8475 S   0  0  0  0  0  0  0  0  0  0  0  0
  -10.2170    1.3510    4.3695 C   0  0  0  0  0  0  0  0  0  0  0  0
  -10.8321    1.2463    5.3909 O   0  0  0  0  0  0  0  0  0  0  0  0
   -8.9084    1.0132    4.1674 N   0  0  0  0  0  0  0  0  0  0  0  0
   -8.1231    0.4335    5.2444 C   0  0  0  0  0  0  0  0  0  0  0  0
   -8.3474   -1.0697    5.3419 C   0  0  0  0  0  0  0  0  0  0  0  0
   -8.3667    1.2036    2.9095 C   0  0  0  0  0  0  0  0  0  0  0  0
   -7.2105    0.9195    2.6503 O   0  0  0  0  0  0  0  0  0  0  0  0
    6.5351   -1.2933   -3.1735 H   0  0  0  0  0  0  0  0  0  0  0  0
    8.8418   -3.8757    0.8176 H   0  0  0  0  0  0  0  0  0  0  0  0
    5.4403   -0.8170    2.9990 H   0  0  0  0  0  0  0  0  0  0  0  0
    6.2036   -3.4723    5.0621 H   0  0  0  0  0  0  0  0  0  0  0  0
    7.3314   -1.6886    6.3848 H   0  0  0  0  0  0  0  0  0  0  0  0
    8.7288   -0.2766    4.6852 H   0  0  0  0  0  0  0  0  0  0  0  0
   10.5397   -1.8698    3.5714 H   0  0  0  0  0  0  0  0  0  0  0  0
   10.2579   -4.2641    4.5859 H   0  0  0  0  0  0  0  0  0  0  0  0
    8.3947   -4.1582    6.5259 H   0  0  0  0  0  0  0  0  0  0  0  0
    9.6454   -2.9154    6.7806 H   0  0  0  0  0  0  0  0  0  0  0  0
    7.9637   -5.0246    3.9877 H   0  0  0  0  0  0  0  0  0  0  0  0
    4.7853    0.5167   -6.0335 H   0  0  0  0  0  0  0  0  0  0  0  0
    6.1525   -0.0128   -5.0426 H   0  0  0  0  0  0  0  0  0  0  0  0
    5.3642   -2.3893   -5.2687 H   0  0  0  0  0  0  0  0  0  0  0  0
    4.0121   -1.8342   -6.2605 H   0  0  0  0  0  0  0  0  0  0  0  0
    5.6681   -1.6560   -6.8462 H   0  0  0  0  0  0  0  0  0  0  0  0
   -9.8828    3.6939   -1.5650 H   0  0  0  0  0  0  0  0  0  0  0  0
   -8.9310    3.6405   -3.0541 H   0  0  0  0  0  0  0  0  0  0  0  0
  -10.5309    1.2866   -1.9299 H   0  0  0  0  0  0  0  0  0  0  0  0
  -11.0200    2.3121   -3.2834 H   0  0  0  0  0  0  0  0  0  0  0  0
   -9.5941    1.2812   -3.4257 H   0  0  0  0  0  0  0  0  0  0  0  0
    0.9289    1.3626   -0.6980 H   0  0  0  0  0  0  0  0  0  0  0  0
   -0.8091    1.4259   -0.4274 H   0  0  0  0  0  0  0  0  0  0  0  0
    1.0192   -1.0452   -0.4320 H   0  0  0  0  0  0  0  0  0  0  0  0
    0.1845   -0.3658    0.9623 H   0  0  0  0  0  0  0  0  0  0  0  0
   -0.7316   -1.1785   -0.3157 H   0  0  0  0  0  0  0  0  0  0  0  0
   -4.0469    0.5029    0.2254 H   0  0  0  0  0  0  0  0  0  0  0  0
   -2.3153    0.3134   -0.0333 H   0  0  0  0  0  0  0  0  0  0  0  0
   -4.5159   -1.3168   -1.3917 H   0  0  0  0  0  0  0  0  0  0  0  0
   -3.4373   -1.8916   -0.1188 H   0  0  0  0  0  0  0  0  0  0  0  0
   -2.7923   -1.5018   -1.7220 H   0  0  0  0  0  0  0  0  0  0  0  0
  -10.0960    2.5576    0.2506 H   0  0  0  0  0  0  0  0  0  0  0  0
   -7.0768    0.6531    5.0194 H   0  0  0  0  0  0  0  0  0  0  0  0
   -8.4202    0.9252    6.1734 H   0  0  0  0  0  0  0  0  0  0  0  0
   -9.3935   -1.2802    5.5520 H   0  0  0  0  0  0  0  0  0  0  0  0
   -7.7409   -1.4776    6.1454 H   0  0  0  0  0  0  0  0  0  0  0  0
   -8.0661   -1.5540    4.4095 H   0  0  0  0  0  0  0  0  0  0  0  0
  1  2  2  0  0  0  0
  2  3  1  0  0  0  0
  3  4  2  0  0  0  0
  3  5  1  0  0  0  0
  5  6  2  0  0  0  0
  6  7  1  0  0  0  0
  7  8  2  0  0  0  0
  8  9  1  0  0  0  0
  9 10  2  0  0  0  0
 10 11  1  0  0  0  0
 11 12  2  0  0  0  0
 12 13  1  0  0  0  0
 13 14  3  0  0  0  0
 12 15  1  0  0  0  0
 15 16  3  0  0  0  0
  8 17  1  0  0  0  0
 17 18  1  0  0  0  0
 18 19  1  0  0  0  0
 19 20  2  0  0  0  0
 20 21  1  0  0  0  0
 21 22  1  0  0  0  0
 21 23  1  0  0  0  0
  1 24  1  0  0  0  0
 24 25  2  0  0  0  0
 25 26  1  0  0  0  0
 26 27  1  0  0  0  0
 25 28  1  0  0  0  0
 28 29  1  0  0  0  0
 29 30  1  0  0  0  0
 30 31  1  0  0  0  0
 31 32  1  0  0  0  0
 32 33  1  0  0  0  0
 33 34  2  0  0  0  0
 34 35  1  0  0  0  0
 35 36  1  0  0  0  0
 33 37  1  0  0  0  0
 37 38  1  0  0  0  0
 38 39  1  0  0  0  0
 39 40  1  0  0  0  0
 40 41  1  0  0  0  0
 41 42  1  0  0  0  0
 42 43  1  0  0  0  0
 41 44  2  0  0  0  0
 44 45  1  0  0  0  0
 45 46  1  0  0  0  0
 46 47  1  0  0  0  0
 47 48  1  0  0  0  0
 48 49  1  0  0  0  0
 49 50  1  0  0  0  0
 50 51  1  0  0  0  0
 51 52  1  0  0  0  0
 52 53  1  0  0  0  0
 53 54  1  0  0  0  0
 51 55  1  0  0  0  0
 55 56  1  0  0  0  0
 48 57  1  0  0  0  0
 57 58  1  0  0  0  0
 44 59  1  0  0  0  0
 59 60  2  0  0  0  0
 60 61  1  0  0  0  0
 61 62  1  0  0  0  0
 62 63  2  0  0  0  0
 62 64  1  0  0  0  0
 64 65  1  0  0  0  0
 65 66  1  0  0  0  0
 64 67  1  0  0  0  0
 67 68  2  0  0  0  0
 11  2  1  0  0  0  0
 23 17  1  0  0  0  0
 54 24  1  0  0  0  0
 67 60  1  0  0  0  0
 10  5  1  0  0  0  0
 22 18  1  0  0  0  0
 53 28  2  0  0  0  0
 23  7  1  0  0  0  0
 52 30  2  0  0  0  0
 50 31  2  0  0  0  0
 36 32  2  0  0  0  0
 49 37  2  0  0  0  0
 47 38  2  0  0  0  0
 46 40  2  0  0  0  0
  1 69  1  0  0  0  0
  6 70  1  0  0  0  0
  9 71  1  0  0  0  0
 17 72  1  0  0  0  0
 18 73  1  0  0  0  0
 19 74  1  0  0  0  0
 20 75  1  0  0  0  0
 21 76  1  0  0  0  0
 22 77  1  0  0  0  0
 22 78  1  0  0  0  0
 23 79  1  0  0  0  0
 26 80  1  0  0  0  0
 26 81  1  0  0  0  0
 27 82  1  0  0  0  0
 27 83  1  0  0  0  0
 27 84  1  0  0  0  0
 42 85  1  0  0  0  0
 42 86  1  0  0  0  0
 43 87  1  0  0  0  0
 43 88  1  0  0  0  0
 43 89  1  0  0  0  0
 55 90  1  0  0  0  0
 55 91  1  0  0  0  0
 56 92  1  0  0  0  0
 56 93  1  0  0  0  0
 56 94  1  0  0  0  0
 57 95  1  0  0  0  0
 57 96  1  0  0  0  0
 58 97  1  0  0  0  0
 58 98  1  0  0  0  0
 58 99  1  0  0  0  0
 59100  1  0  0  0  0
 65101  1  0  0  0  0
 65102  1  0  0  0  0
 66103  1  0  0  0  0
 66104  1  0  0  0  0
 66105  1  0  0  0  0
M  END
