116

C          4.74670        4.23420        0.98680
C          5.93130        4.29170        0.31760
C          6.18270        3.60860       -0.97700
O          5.37560        3.04060       -1.68080
C          7.64550        3.63020       -1.15600
C          8.36290        3.06290       -2.20660
C          9.72430        3.21360       -2.10060
C         10.33270        3.86770       -1.02020
C          9.63820        4.42490        0.02680
C          8.24960        4.29360       -0.06800
C          7.20280        4.74930        0.83970
C          7.37240        5.54570        1.94210
C          6.31210        6.03920        2.73120
N          5.49480        6.49360        3.39770
C          8.61940        6.00730        2.41010
N          9.60290        6.40960        2.84510
C         11.72130        3.64300       -1.56380
C         12.43320        4.84120       -2.23890
C         11.34540        5.74500       -2.76430
C         10.76840        5.13080       -3.78840
C         11.45540        3.80040       -3.97420
C         12.88440        4.17160       -3.54690
C         11.04310        2.91870       -2.76930
C          3.48400        3.91630        0.41890
C          2.87990        4.35390       -0.74890
C          3.42780        5.39000       -1.67690
C          3.49910        4.90300       -3.12360
C          1.58640        3.82070       -0.87440
S          0.34910        3.98350       -2.10110
C         -0.65670        2.89840       -1.20940
C         -1.92260        2.29600       -1.30560
C         -2.98440        2.47610       -2.22510
C         -4.21640        1.76100       -2.00130
N         -5.17740        2.02910       -2.86270
Se        -4.58080        3.20860       -4.02970
N         -2.99460        3.28670       -3.26460
C         -4.26280        0.79720       -0.96290
C         -5.22050       -0.17910       -0.65660
S         -6.79630       -0.67110       -1.16880
C         -6.70440       -2.02040       -0.04970
C         -7.58500       -3.04880        0.24770
C         -8.90020       -3.21300       -0.44040
C         -8.77490       -4.16900       -1.63020
C         -7.04700       -3.92300        1.21310
S         -5.43910       -3.41820        1.74360
C         -5.50030       -2.06630        0.67780
C         -4.66350       -1.00420        0.33120
N         -3.41510       -0.55190        0.67300
C         -3.15710        0.56680       -0.09530
C         -2.04570        1.44080       -0.17770
N         -0.92360        1.57870        0.61850
C         -0.07500        2.44750       -0.01840
C          1.20020        2.98440        0.17980
S          2.42690        2.88690        1.38420
C         -0.84160        1.40010        2.05190
C         -0.98230        2.73290        2.78630
C         -2.49420       -1.44140        1.35440
C         -1.29480       -1.80160        0.48520
C         -7.72340       -5.05220        1.67390
C         -7.34870       -6.02830        2.57100
C         -6.07240       -6.10180        3.27980
O         -5.14170       -5.31370        3.23030
C         -6.11810       -7.33570        4.08570
C         -5.16270       -7.85360        4.91010
C         -5.42330       -9.06910        5.58180
C         -4.47210       -9.65210        6.44070
C         -4.74880      -10.83140        7.07420
F         -3.84090      -11.38570        7.89020
C         -5.98560      -11.47630        6.87790
F         -6.22930      -12.63170        7.51170
C         -6.92920      -10.93380        6.05100
C         -6.67470       -9.71980        5.38240
C         -7.64570       -9.15400        4.52350
C         -7.37210       -7.97550        3.88190
C         -8.15800       -7.16700        2.95000
C         -9.43450       -7.46250        2.53930
C        -10.21710       -6.69370        1.65430
N        -10.91750       -6.12850        0.93900
C        -10.15590       -8.59800        2.96210
N        -10.79870       -9.49950        3.26660
H          4.74710        4.37640        2.06180
H          7.85620        2.55910       -3.01490
H         10.11850        4.91410        0.85800
H         12.39190        3.06370       -0.93240
H         13.19710        5.31450       -1.62820
H         11.07840        6.68360       -2.31500
H          9.92230        5.45360       -4.36650
H         11.32980        3.32620       -4.94400
H         13.36150        4.86870       -4.23390
H         13.52930        3.30770       -3.39230
H         11.27270        1.86670       -2.92750
H          4.41790        5.69810       -1.33930
H          2.76600        6.26120       -1.62800
H          3.94320        5.67410       -3.74820
H          2.50600        4.67820       -3.50310
H          4.10830        4.00610       -3.18310
H         -9.21920       -2.23400       -0.80340
H         -9.66030       -3.58760        0.24650
H         -8.04960       -3.78910       -2.34590
H         -8.45520       -5.15480       -1.30060
H         -9.73660       -4.26690       -2.12530
H          0.12000        0.93800        2.29580
H         -1.65160        0.74950        2.36760
H         -1.91810        3.21610        2.51270
H         -0.16090        3.40190        2.54700
H         -0.98030        2.55750        3.85840
H         -3.05960       -2.34750        1.58520
H         -2.16550       -1.02200        2.30850
H         -1.63060       -2.23560       -0.45380
H         -0.67970       -2.53140        1.00380
H         -0.68680       -0.92900        0.26410
H         -8.70340       -5.17220        1.23330
H         -4.22050       -7.34480        5.04660
H         -3.52020       -9.17090        6.60170
H         -7.87150      -11.44040        5.91180
H         -8.58140       -9.67300        4.39550
