
  xtb     02022216533D
 energy: -190.136147801550 gnorm: 0.000532409582 xtb: 6.4.1 (unknown)
107121  0     0  0            999 V2000
   -3.2516    5.6805   -2.7878 C   0  0  0  0  0  0  0  0  0  0  0  0
   -4.3724    5.4265   -2.0578 C   0  0  0  0  0  0  0  0  0  0  0  0
   -5.1597    6.5502   -1.4868 C   0  0  0  0  0  0  0  0  0  0  0  0
   -5.0884    7.7181   -1.7986 O   0  0  0  0  0  0  0  0  0  0  0  0
   -5.9849    5.9425   -0.4233 C   0  0  0  0  0  0  0  0  0  0  0  0
   -6.7934    6.6024    0.4992 C   0  0  0  0  0  0  0  0  0  0  0  0
   -7.4129    5.7687    1.3993 C   0  0  0  0  0  0  0  0  0  0  0  0
   -7.2457    4.3771    1.3868 C   0  0  0  0  0  0  0  0  0  0  0  0
   -6.4623    3.7100    0.4754 C   0  0  0  0  0  0  0  0  0  0  0  0
   -5.8223    4.5408   -0.4466 C   0  0  0  0  0  0  0  0  0  0  0  0
   -4.9486    4.1956   -1.5640 C   0  0  0  0  0  0  0  0  0  0  0  0
   -4.9040    2.9789   -2.1953 C   0  0  0  0  0  0  0  0  0  0  0  0
   -4.2862    2.7844   -3.4484 C   0  0  0  0  0  0  0  0  0  0  0  0
   -3.8379    2.5951   -4.4887 N   0  0  0  0  0  0  0  0  0  0  0  0
   -5.5173    1.8076   -1.7128 C   0  0  0  0  0  0  0  0  0  0  0  0
   -5.9608    0.8106   -1.3543 N   0  0  0  0  0  0  0  0  0  0  0  0
   -8.1412    4.1784    2.5836 C   0  0  0  0  0  0  0  0  0  0  0  0
   -7.4679    3.9031    3.9510 C   0  0  0  0  0  0  0  0  0  0  0  0
   -6.0987    4.5337    3.8905 C   0  0  0  0  0  0  0  0  0  0  0  0
   -6.2585    5.8503    3.9013 C   0  0  0  0  0  0  0  0  0  0  0  0
   -7.7386    6.1338    3.9698 C   0  0  0  0  0  0  0  0  0  0  0  0
   -8.2044    4.9383    4.8162 C   0  0  0  0  0  0  0  0  0  0  0  0
   -8.3295    5.7281    2.5966 C   0  0  0  0  0  0  0  0  0  0  0  0
   -2.1525    4.8281   -3.0360 C   0  0  0  0  0  0  0  0  0  0  0  0
   -1.1657    4.9904   -3.9987 C   0  0  0  0  0  0  0  0  0  0  0  0
   -1.1136    6.0828   -5.0154 C   0  0  0  0  0  0  0  0  0  0  0  0
   -0.1733    7.1968   -4.5505 C   0  0  0  0  0  0  0  0  0  0  0  0
   -0.1915    3.9891   -3.9182 C   0  0  0  0  0  0  0  0  0  0  0  0
    1.3634    3.6146   -4.9319 Se  0  0  0  0  0  2  0  0  0  0  0  0
    1.5491    2.1484   -3.8024 C   0  0  0  0  0  0  0  0  0  0  0  0
    2.3890    1.0394   -3.6296 C   0  0  0  0  0  0  0  0  0  0  0  0
    3.4972    0.6038   -4.3864 C   0  0  0  0  0  0  0  0  0  0  0  0
    4.1250   -0.6331   -4.0349 C   0  0  0  0  0  0  0  0  0  0  0  0
    5.1171   -0.9508   -4.8510 N   0  0  0  0  0  0  0  0  0  0  0  0
    5.2493    0.2153   -5.9697 S   0  0  0  0  0  0  0  0  0  0  0  0
    4.0453    1.1692   -5.4502 N   0  0  0  0  0  0  0  0  0  0  0  0
    3.6916   -1.3103   -2.8749 C   0  0  0  0  0  0  0  0  0  0  0  0
    4.2295   -2.4290   -2.2313 C   0  0  0  0  0  0  0  0  0  0  0  0
    5.5891   -3.6714   -2.4901 Se  0  0  0  0  0  2  0  0  0  0  0  0
    5.0330   -4.3596   -0.8101 C   0  0  0  0  0  0  0  0  0  0  0  0
    5.4821   -5.4227   -0.0371 C   0  0  0  0  0  0  0  0  0  0  0  0
    6.5818   -6.3274   -0.4885 C   0  0  0  0  0  0  0  0  0  0  0  0
    6.0136   -7.5514   -1.2103 C   0  0  0  0  0  0  0  0  0  0  0  0
    4.7401   -5.5539    1.1476 C   0  0  0  0  0  0  0  0  0  0  0  0
    3.4896   -4.3190    1.2787 S   0  0  0  0  0  0  0  0  0  0  0  0
    3.9588   -3.6540   -0.2411 C   0  0  0  0  0  0  0  0  0  0  0  0
    3.5180   -2.5876   -1.0346 C   0  0  0  0  0  0  0  0  0  0  0  0
    2.5514   -1.6203   -0.9349 N   0  0  0  0  0  0  0  0  0  0  0  0
    2.6215   -0.8294   -2.0670 C   0  0  0  0  0  0  0  0  0  0  0  0
    1.8838    0.2928   -2.5289 C   0  0  0  0  0  0  0  0  0  0  0  0
    0.7348    0.9182   -2.0725 N   0  0  0  0  0  0  0  0  0  0  0  0
    0.5427    2.0420   -2.8360 C   0  0  0  0  0  0  0  0  0  0  0  0
   -0.4119    3.0609   -2.8935 C   0  0  0  0  0  0  0  0  0  0  0  0
   -1.8318    3.4415   -1.9961 S   0  0  0  0  0  0  0  0  0  0  0  0
   -0.4211    0.3383   -1.4212 C   0  0  0  0  0  0  0  0  0  0  0  0
   -1.4158   -0.2072   -2.4453 C   0  0  0  0  0  0  0  0  0  0  0  0
    1.9180   -1.3691    0.3427 C   0  0  0  0  0  0  0  0  0  0  0  0
    2.2110    0.0319    0.8682 C   0  0  0  0  0  0  0  0  0  0  0  0
    4.9733   -6.5594    2.0921 C   0  0  0  0  0  0  0  0  0  0  0  0
    4.3460   -6.8491    3.2771 C   0  0  0  0  0  0  0  0  0  0  0  0
    3.2216   -6.1090    3.8798 C   0  0  0  0  0  0  0  0  0  0  0  0
    2.6616   -5.1171    3.4463 O   0  0  0  0  0  0  0  0  0  0  0  0
    2.9337   -6.8242    5.1172 C   0  0  0  0  0  0  0  0  0  0  0  0
    1.8232   -6.6707    6.4066 S   0  0  0  0  0  0  0  0  0  0  0  0
    2.5113   -8.0579    7.1658 C   0  0  0  0  0  0  0  0  0  0  0  0
    3.5429   -8.6160    6.4698 C   0  0  0  0  0  0  0  0  0  0  0  0
    3.7911   -7.9033    5.2811 C   0  0  0  0  0  0  0  0  0  0  0  0
    4.6974   -7.9567    4.1483 C   0  0  0  0  0  0  0  0  0  0  0  0
    5.6781   -8.9021    3.9867 C   0  0  0  0  0  0  0  0  0  0  0  0
    6.5780   -8.9893    2.9074 C   0  0  0  0  0  0  0  0  0  0  0  0
    7.3425   -9.1194    2.0592 N   0  0  0  0  0  0  0  0  0  0  0  0
    5.8814   -9.9237    4.9378 C   0  0  0  0  0  0  0  0  0  0  0  0
    6.0638  -10.7650    5.6968 N   0  0  0  0  0  0  0  0  0  0  0  0
   -3.1531    6.7013   -3.1425 H   0  0  0  0  0  0  0  0  0  0  0  0
   -6.8986    7.6758    0.4769 H   0  0  0  0  0  0  0  0  0  0  0  0
   -6.3349    2.6396    0.4733 H   0  0  0  0  0  0  0  0  0  0  0  0
   -9.0210    3.5587    2.4224 H   0  0  0  0  0  0  0  0  0  0  0  0
   -7.5048    2.8653    4.2713 H   0  0  0  0  0  0  0  0  0  0  0  0
   -5.1861    3.9758    3.7907 H   0  0  0  0  0  0  0  0  0  0  0  0
   -5.5059    6.6119    3.8123 H   0  0  0  0  0  0  0  0  0  0  0  0
   -8.0218    7.1272    4.3078 H   0  0  0  0  0  0  0  0  0  0  0  0
   -7.8310    4.9751    5.8385 H   0  0  0  0  0  0  0  0  0  0  0  0
   -9.2855    4.8069    4.8238 H   0  0  0  0  0  0  0  0  0  0  0  0
   -9.3330    6.1205    2.4445 H   0  0  0  0  0  0  0  0  0  0  0  0
   -0.7321    5.6604   -5.9495 H   0  0  0  0  0  0  0  0  0  0  0  0
   -2.1099    6.4833   -5.2001 H   0  0  0  0  0  0  0  0  0  0  0  0
   -0.1188    7.9780   -5.3037 H   0  0  0  0  0  0  0  0  0  0  0  0
   -0.5274    7.6343   -3.6198 H   0  0  0  0  0  0  0  0  0  0  0  0
    0.8274    6.7993   -4.3887 H   0  0  0  0  0  0  0  0  0  0  0  0
    7.2140   -5.7662   -1.1841 H   0  0  0  0  0  0  0  0  0  0  0  0
    7.1996   -6.6519    0.3498 H   0  0  0  0  0  0  0  0  0  0  0  0
    5.4251   -7.2399   -2.0709 H   0  0  0  0  0  0  0  0  0  0  0  0
    6.8245   -8.1883   -1.5518 H   0  0  0  0  0  0  0  0  0  0  0  0
    5.3780   -8.1303   -0.5444 H   0  0  0  0  0  0  0  0  0  0  0  0
   -0.1116   -0.4657   -0.7636 H   0  0  0  0  0  0  0  0  0  0  0  0
   -0.8945    1.1226   -0.8225 H   0  0  0  0  0  0  0  0  0  0  0  0
   -0.9508   -0.9866   -3.0454 H   0  0  0  0  0  0  0  0  0  0  0  0
   -2.2767   -0.6267   -1.9320 H   0  0  0  0  0  0  0  0  0  0  0  0
   -1.7644    0.5791   -3.1104 H   0  0  0  0  0  0  0  0  0  0  0  0
    0.8417   -1.5587    0.2899 H   0  0  0  0  0  0  0  0  0  0  0  0
    2.3263   -2.1029    1.0412 H   0  0  0  0  0  0  0  0  0  0  0  0
    1.8205    0.8004    0.2073 H   0  0  0  0  0  0  0  0  0  0  0  0
    3.2850    0.1741    0.9641 H   0  0  0  0  0  0  0  0  0  0  0  0
    1.7570    0.1520    1.8478 H   0  0  0  0  0  0  0  0  0  0  0  0
    5.7875   -7.2185    1.8214 H   0  0  0  0  0  0  0  0  0  0  0  0
    2.1065   -8.3890    8.1020 H   0  0  0  0  0  0  0  0  0  0  0  0
    4.0839   -9.4838    6.7985 H   0  0  0  0  0  0  0  0  0  0  0  0
  1  2  2  0  0  0  0
  2  3  1  0  0  0  0
  3  4  2  0  0  0  0
  3  5  1  0  0  0  0
  5  6  2  0  0  0  0
  6  7  1  0  0  0  0
  7  8  2  0  0  0  0
  8  9  1  0  0  0  0
  9 10  2  0  0  0  0
 10 11  1  0  0  0  0
 11 12  2  0  0  0  0
 12 13  1  0  0  0  0
 13 14  3  0  0  0  0
 12 15  1  0  0  0  0
 15 16  3  0  0  0  0
  8 17  1  0  0  0  0
 17 18  1  0  0  0  0
 18 19  1  0  0  0  0
 19 20  2  0  0  0  0
 20 21  1  0  0  0  0
 21 22  1  0  0  0  0
 21 23  1  0  0  0  0
  1 24  1  0  0  0  0
 24 25  2  0  0  0  0
 25 26  1  0  0  0  0
 26 27  1  0  0  0  0
 25 28  1  0  0  0  0
 28 29  1  0  0  0  0
 29 30  1  0  0  0  0
 30 31  1  0  0  0  0
 31 32  1  0  0  0  0
 32 33  1  0  0  0  0
 33 34  2  0  0  0  0
 34 35  1  0  0  0  0
 35 36  1  0  0  0  0
 33 37  1  0  0  0  0
 37 38  1  0  0  0  0
 38 39  1  0  0  0  0
 39 40  1  0  0  0  0
 40 41  1  0  0  0  0
 41 42  1  0  0  0  0
 42 43  1  0  0  0  0
 41 44  2  0  0  0  0
 44 45  1  0  0  0  0
 45 46  1  0  0  0  0
 46 47  1  0  0  0  0
 47 48  1  0  0  0  0
 48 49  1  0  0  0  0
 49 50  1  0  0  0  0
 50 51  1  0  0  0  0
 51 52  1  0  0  0  0
 52 53  1  0  0  0  0
 53 54  1  0  0  0  0
 51 55  1  0  0  0  0
 55 56  1  0  0  0  0
 48 57  1  0  0  0  0
 57 58  1  0  0  0  0
 44 59  1  0  0  0  0
 59 60  2  0  0  0  0
 60 61  1  0  0  0  0
 61 62  2  0  0  0  0
 61 63  1  0  0  0  0
 63 64  1  0  0  0  0
 64 65  1  0  0  0  0
 65 66  2  0  0  0  0
 66 67  1  0  0  0  0
 67 68  1  0  0  0  0
 68 69  2  0  0  0  0
 69 70  1  0  0  0  0
 70 71  3  0  0  0  0
 69 72  1  0  0  0  0
 72 73  3  0  0  0  0
 11  2  1  0  0  0  0
 23 17  1  0  0  0  0
 54 24  1  0  0  0  0
 68 60  1  0  0  0  0
 10  5  1  0  0  0  0
 22 18  1  0  0  0  0
 53 28  2  0  0  0  0
 67 63  2  0  0  0  0
 23  7  1  0  0  0  0
 52 30  2  0  0  0  0
 50 31  2  0  0  0  0
 36 32  2  0  0  0  0
 49 37  2  0  0  0  0
 47 38  2  0  0  0  0
 46 40  2  0  0  0  0
  1 74  1  0  0  0  0
  6 75  1  0  0  0  0
  9 76  1  0  0  0  0
 17 77  1  0  0  0  0
 18 78  1  0  0  0  0
 19 79  1  0  0  0  0
 20 80  1  0  0  0  0
 21 81  1  0  0  0  0
 22 82  1  0  0  0  0
 22 83  1  0  0  0  0
 23 84  1  0  0  0  0
 26 85  1  0  0  0  0
 26 86  1  0  0  0  0
 27 87  1  0  0  0  0
 27 88  1  0  0  0  0
 27 89  1  0  0  0  0
 42 90  1  0  0  0  0
 42 91  1  0  0  0  0
 43 92  1  0  0  0  0
 43 93  1  0  0  0  0
 43 94  1  0  0  0  0
 55 95  1  0  0  0  0
 55 96  1  0  0  0  0
 56 97  1  0  0  0  0
 56 98  1  0  0  0  0
 56 99  1  0  0  0  0
 57100  1  0  0  0  0
 57101  1  0  0  0  0
 58102  1  0  0  0  0
 58103  1  0  0  0  0
 58104  1  0  0  0  0
 59105  1  0  0  0  0
 65106  1  0  0  0  0
 66107  1  0  0  0  0
M  END
