102

C          1.46110        5.34500        2.48240
C          1.14940        6.09990        1.38910
C          0.59260        5.57270        0.12420
O          0.56780        4.41960       -0.25790
C         -0.01590        6.73250       -0.55400
C         -0.73740        6.71580       -1.74510
C         -1.21220        7.94680       -2.12890
C         -0.99000        9.11190       -1.38220
C         -0.27460        9.14410       -0.20860
C          0.21800        7.90130        0.19860
C          1.00540        7.54230        1.37250
C          1.60020        8.40820        2.25170
C          2.48220        7.99920        3.27450
N          3.24050        7.72960        4.09350
C          1.46190        9.81010        2.20680
N          1.37960       10.95520        2.22400
C         -1.77510        9.97090       -2.34140
C         -3.20920       10.38600       -1.92870
C         -3.71190        9.31930       -0.98780
C         -3.91850        8.21790       -1.69730
C         -3.55880        8.52000       -3.13110
C         -3.96970        9.99910       -3.20730
C         -2.01820        8.67380       -3.17560
C          1.63300        3.93730        2.53570
S          0.81880        3.13670        3.88780
C          1.27760        1.61960        3.25340
C          1.03800        0.25600        3.49130
C          0.35360       -0.44080        4.51180
C          0.30430       -1.87780        4.46110
N         -0.32650       -2.39710        5.50200
S         -0.82000       -1.18970        6.46040
N         -0.25000        0.04570        5.58420
C          0.81940       -2.54290        3.32470
C          0.68420       -3.86350        2.86830
S         -0.01480       -5.35530        3.38760
C          0.33960       -6.05010        1.82240
C          0.03700       -7.29590        1.24190
C         -0.55750       -8.44860        1.97800
C          0.12300       -8.70470        3.32080
C          0.45180       -7.34050       -0.07670
S          1.29210       -5.87280       -0.57160
C          0.99470       -5.15600        0.96860
C          1.20040       -3.90730        1.56780
N          1.68890       -2.67490        1.21840
C          1.46920       -1.82390        2.28550
C          1.69990       -0.43850        2.44970
N          2.40190        0.46010        1.66240
C          2.10640        1.73200        2.12700
C          2.32120        3.05810        1.70760
C          3.23620        3.50050        0.60750
C          4.31280        4.47080        1.09740
C          3.67650        0.12020        1.06340
C          4.84410        0.58580        1.93300
C          1.93670       -2.34010       -0.16830
C          3.23370       -2.94980       -0.69660
C          0.34500       -8.36210       -1.06050
C         -0.72300       -9.16490       -1.29030
S         -0.65790      -10.48030       -2.45700
C         -2.39770      -10.83370       -2.24640
O         -2.98020      -11.71400       -2.80920
N         -2.92250       -9.94610       -1.35270
C         -4.34710       -9.95550       -1.06110
C         -5.12830       -9.18210       -2.11530
C         -2.08680       -8.99390       -0.78890
O         -2.49000       -8.13140       -0.04090
H          1.45990        5.83740        3.44960
H         -0.88930        5.79620       -2.28840
H         -0.11410       10.04520        0.36000
H         -1.22720       10.78510       -2.81140
H         -3.29970       11.41220       -1.58290
H         -3.80830        9.45400        0.07360
H         -4.22150        7.24860       -1.34690
H         -3.96760        7.84740       -3.88070
H         -5.04540       10.14220       -3.11700
H         -3.60460       10.50560       -4.09970
H         -1.62640        8.63990       -4.19040
H         -0.48040       -9.34230        1.35570
H         -1.62120       -8.24580        2.13180
H         -0.28890       -9.60350        3.77250
H          1.19290       -8.84670        3.18370
H         -0.03300       -7.87630        4.00570
H          3.71750        2.63080        0.16410
H          2.64370        3.97430       -0.17570
H          4.91700        4.01700        1.88100
H          3.87160        5.37840        1.49990
H          4.96850        4.74190        0.27330
H          3.74550        0.55070        0.06000
H          3.72750       -0.96290        0.98700
H          4.83560        1.66360        2.06120
H          4.78320        0.12280        2.91580
H          5.78380        0.29700        1.46920
H          1.93360       -1.25510       -0.27330
H          1.10380       -2.73610       -0.76080
H          3.38930       -2.63230       -1.72360
H          4.09530       -2.64900       -0.10570
H          3.17400       -4.03440       -0.67860
H          1.19720       -8.47400       -1.72120
H         -4.46700       -9.49300       -0.07880
H         -4.67330      -10.99730       -1.03040
H         -6.18610       -9.19580       -1.86880
H         -4.99130       -9.63650       -3.09380
H         -4.79050       -8.14890       -2.15090
