145

C          5.71460       -4.85610       -0.30880
C          5.27630       -6.15190       -0.41180
C          3.88060       -6.59500       -0.46390
O          2.87910       -5.89740       -0.47730
C          3.91180       -8.06630       -0.48860
C          2.81750       -8.92860       -0.50740
C          3.15570      -10.26040       -0.50880
C          4.48510      -10.70230       -0.48900
C          5.57330       -9.86230       -0.46990
C          5.25230       -8.50150       -0.47270
C          6.12420       -7.32760       -0.45010
C          7.49550       -7.36150       -0.48090
C          8.26570       -8.54240       -0.53200
N          8.96130       -9.45490       -0.57720
C          8.35030       -6.23980       -0.48270
N          9.11750       -5.38380       -0.48900
C          4.08650      -12.15690       -0.50020
C          4.22190      -12.89910       -1.84650
C          3.33350      -14.11100       -1.68160
C          2.07400      -13.69370       -1.70100
C          2.09000      -12.19250       -1.87970
C          3.33590      -12.04510       -2.76280
C          2.60370      -11.66450       -0.52340
C          5.00780       -3.64910       -0.25060
C          5.63950       -2.40060       -0.12650
C          7.11390       -2.16310       -0.09210
C          7.69210       -2.12220       -1.50930
C          4.71340       -1.36570       -0.09350
S          4.89510        0.37320        0.04680
C          3.17530        0.52260       -0.01600
C          2.20300        1.53010       -0.01520
C          2.37430        2.93630        0.02200
N          3.56790        3.48730        0.22790
C          3.67060        4.80710        0.20200
C          4.95240        5.32360        0.62650
S          5.13750        6.84680        1.44540
C          6.83060        6.58550        1.68550
C          7.69760        7.60280        2.34170
C          7.81530        8.86680        1.48820
C          7.18770        5.37950        1.15370
C          6.14020        4.64620        0.56980
F          8.45200        4.92210        1.19370
C          2.54650        5.60650       -0.16530
C          2.60880        7.01050       -0.48910
C          3.60660        7.74800       -1.06640
C          3.20070        9.07430       -1.29050
F          4.02110        9.98980       -1.84010
C          1.92360        9.36940       -0.90450
C          1.20820       10.67140       -1.01540
C         -0.00860       10.56550       -1.93490
S          1.16970        7.95500       -0.25870
N          1.34200        5.06530       -0.25590
C          1.22360        3.74740       -0.12150
C         -0.04170        3.11090       -0.13340
C         -1.31710        3.68720       -0.14750
S         -2.03220        5.25690       -0.22000
C         -3.61110        4.50000       -0.10220
C         -4.89340        5.02470       -0.06670
C         -5.17070        6.48620       -0.19870
C         -5.48150        6.85010       -1.65340
C         -5.86240        4.00880        0.04970
S         -5.13290        2.40070        0.11450
C         -3.56110        3.09520       -0.01490
C         -2.24130        2.63960       -0.04990
N         -1.58220        1.43860       -0.01020
C         -2.29670        0.24840        0.39380
C         -1.94880       -0.14850        1.82660
C         -0.22480        1.69710       -0.06650
C          0.93460        0.88220       -0.10330
N          1.15010       -0.48230       -0.17910
C          2.50180       -0.69760       -0.13670
C          3.37660       -1.78820       -0.18550
S          3.25050       -3.50250       -0.31840
C          0.27300       -1.55200       -0.59870
C         -0.21100       -1.34370       -2.03180
C         -7.23020        4.27240        0.11270
C         -8.31140        3.42730        0.23420
C         -8.25750        1.96970        0.33040
O         -7.26900        1.25430        0.31140
C         -9.65340        1.51340        0.46420
C        -10.12790        0.24090        0.59270
C        -11.52100        0.03840        0.71500
C        -12.06610       -1.25250        0.85270
C        -13.41750       -1.41940        0.97180
F        -13.93430       -2.64970        1.10340
C        -14.28000       -0.30590        0.95820
F        -15.60080       -0.49960        1.07750
C        -13.78040        0.95940        0.82510
C        -12.39200        1.16550        0.70040
C        -11.86760        2.47210        0.56390
C        -10.51430        2.64570        0.44750
C         -9.69450        3.84820        0.30090
C        -10.18560        5.12960        0.24340
C        -11.55580        5.45360        0.32020
N        -12.65260        5.78930        0.37380
C         -9.41900        6.30400        0.10250
N         -8.86880        7.30690       -0.01290
H          6.78620       -4.72270       -0.25250
H          1.80950       -8.54420       -0.51450
H          6.58840      -10.22110       -0.44690
H          4.42630      -12.74830        0.34790
H          5.24470      -13.08080       -2.16490
H          3.70150      -15.10660       -1.51730
H          1.17990      -14.27110       -1.55590
H          1.17000      -11.73180       -2.22940
H          3.67810      -11.01850       -2.88020
H          3.20100      -12.49840       -3.74340
H          1.95450      -11.92790        0.30960
H          7.29200       -1.20130        0.39310
H          7.62420       -2.93610        0.48410
H          7.21450       -1.33670       -2.09030
H          7.53960       -3.07250       -2.01530
H          8.75930       -1.92550       -1.46470
H          7.27940        7.86500        3.31700
H          8.68570        7.16450        2.49640
H          8.44670        9.59720        1.98690
H          8.25350        8.63220        0.52090
H          6.83330        9.30590        1.32660
H          6.25060        3.67640        0.12310
H          4.57200        7.36980       -1.34640
H          0.88030       10.99130       -0.02270
H          1.90610       11.41660       -1.40280
H          0.29660       10.26700       -2.93500
H         -0.70630        9.82530       -1.54990
H         -0.51470       11.52510       -1.99830
H         -4.28040        7.03090        0.12200
H         -6.00480        6.78900        0.43560
H         -5.66310        7.91790       -1.73390
H         -6.36710        6.32400       -2.00170
H         -4.64460        6.58710       -2.29600
H         -3.36100        0.48880        0.33500
H         -2.11110       -0.56590       -0.30600
H         -2.48010       -1.05600        2.09910
H         -2.24310        0.64280        2.51210
H         -0.88000       -0.31600        1.94150
H         -0.55930       -1.65990        0.09640
H          0.85840       -2.47320       -0.54700
H          0.63690       -1.34620       -2.71280
H         -0.88360       -2.14800       -2.31630
H         -0.72950       -0.39340       -2.13980
H         -7.46380        5.32670        0.05930
H         -9.45070       -0.59950        0.60210
H        -11.41870       -2.11540        0.86510
H        -14.45500        1.80130        0.81660
H        -12.55500        3.30220        0.55690
