119

C          2.02940       -0.49380        6.16430
C          1.37100        0.02190        7.23880
C          0.19080        0.92490        7.19550
O         -0.27160        1.52460        6.24860
C         -0.39080        0.88010        8.55200
C         -1.55740        1.51410        8.97320
C         -1.88250        1.27320       10.28590
C         -1.10640        0.45740       11.12050
C          0.04940       -0.16880       10.71980
C          0.39900        0.06530        9.38620
C          1.52980       -0.43080        8.61000
C          2.59830       -1.13060        9.10770
C          3.72710       -1.52330        8.35800
N          4.68610       -1.86670        7.82680
C          2.73710       -1.52380       10.45460
N          2.91140       -1.87890       11.53270
C         -2.03910        0.63380       12.29270
C         -3.00710       -0.52900       12.62400
C         -3.24200       -1.27410       11.33350
C         -3.97460       -0.49850       10.54550
C         -4.24800        0.78550       11.28910
C         -4.32640        0.25280       12.72870
C         -2.90090        1.54630       11.36430
C          1.96350       -0.05940        4.79980
C          1.80550        1.29720        4.44840
C          1.70130        1.69310        3.14010
C          1.73170        0.73000        2.12750
C          1.59720        0.72120        0.72330
C          1.70400       -0.60370        0.29040
N          1.91820       -1.43520        1.34990
C          1.94240       -0.64750        2.47850
C          2.08770       -1.02760        3.79560
C          2.19270       -2.84670        1.27800
C          3.69250       -3.13000        1.35130
C          1.45150       -0.61080       -1.08760
C          1.29110       -1.67150       -1.99990
C          0.87410       -1.39660       -3.32580
N          0.73900       -2.56430       -3.96070
N          1.06480       -3.46000       -3.05740
C          1.00630       -4.86600       -3.33010
C         -0.35870       -5.43510       -2.95210
N          1.39640       -2.99740       -1.87390
C          0.71580       -0.06060       -3.74190
C          0.94550        1.03350       -2.84690
C          1.22770        0.74980       -1.47780
N          1.31380        1.53860       -0.34120
C          1.01500        2.92440       -0.08080
C          2.28730        3.74570        0.13580
N          0.81270        2.21120       -3.56830
C          1.11760        3.58710       -3.26240
C         -0.15000        4.42900       -3.10310
C          0.47690        1.88320       -4.85790
C          0.40150        0.49350       -4.98900
N          0.05960        0.15240       -6.26470
C         -0.03830       -1.18630       -6.78510
C          1.23030       -1.59200       -7.53350
C         -0.06740        1.32410       -6.97250
C          0.19570        2.44990       -6.11860
C          0.12070        3.73710       -6.65850
C         -0.22890        3.89230       -7.97450
C         -0.51460        2.79130       -8.81000
C         -0.41900        1.49430       -8.29560
C         -0.91550        3.01350      -10.17070
C         -1.16780        2.08160      -11.16610
C         -1.56470        2.64250      -12.36950
C         -1.63090        4.02930      -12.33390
C         -2.02010        4.86850      -13.40840
C         -2.09850        6.24730      -13.40500
C         -2.52010        6.94770      -14.55360
N         -2.85720        7.53590      -15.47900
C         -1.78330        7.06050      -12.30290
N         -1.53670        7.76860      -11.43260
C         -2.37330        4.20830      -14.61480
N         -2.65600        3.66730      -15.58420
S         -1.17770        4.62390      -10.75930
H          2.63190       -1.38020        6.33060
H         -2.12750        2.13030        8.29550
H          0.63320       -0.79770       11.37110
H         -1.60510        1.07880       13.18580
H         -2.71240       -1.13160       13.47900
H         -2.81630       -2.23500       11.11080
H         -4.28250       -0.68160        9.53260
H         -5.08350        1.38020       10.92900
H         -5.18740       -0.39370       12.89220
H         -4.30710        1.03770       13.48350
H         -3.02820        2.58860       11.65030
H          1.79610        2.03870        5.22900
H          1.58410        2.74000        2.90580
H          2.23600       -2.06260        4.06610
H          1.67290       -3.34990        2.09900
H          1.79620       -3.20790        0.32580
H          4.20070       -2.65920        0.51340
H          3.87040       -4.20090        1.30870
H          4.11360       -2.74100        2.27560
H          1.79380       -5.34930       -2.74780
H          1.19490       -5.00040       -4.39710
H         -0.54970       -5.27660       -1.89360
H         -1.14170       -4.94620       -3.52680
H         -0.38570       -6.50120       -3.15820
H          0.41610        2.95570        0.83620
H          0.40420        3.33080       -0.88030
H          2.03200        4.78800        0.30810
H          2.95450        3.68500       -0.72170
H          2.82940        3.37030        0.99980
H          1.75060        3.64010       -2.38160
H          1.69710        3.98300       -4.10450
H          0.11440        5.45300       -2.85270
H         -0.80030        4.03440       -2.32530
H         -0.71650        4.42990       -4.03030
H         -0.90690       -1.24630       -7.44830
H         -0.18560       -1.85700       -5.93570
H          1.11790       -2.59430       -7.93700
H          1.43440       -0.90410       -8.35100
H          2.07780       -1.58400       -6.85290
H          0.33500        4.60620       -6.05600
H         -0.29110        4.88630       -8.39250
H         -0.63170        0.64130       -8.91890
H         -1.06250        1.02170      -11.02500
H         -1.80270        2.07460      -13.25220
