
  xtb     02112206583D
 energy: -225.718203894072 gnorm: 0.000408557064 xtb: 6.4.1 (unknown)
130146  0     0  0            999 V2000
    0.6832   -6.4145   -2.2199 C   0  0  0  0  0  0  0  0  0  0  0  0
    1.9763   -6.7835   -1.9427 C   0  0  0  0  0  0  0  0  0  0  0  0
    3.0288   -5.9129   -1.4149 C   0  0  0  0  0  0  0  0  0  0  0  0
    2.9551   -4.7188   -1.1713 O   0  0  0  0  0  0  0  0  0  0  0  0
    4.2187   -6.7595   -1.2338 C   0  0  0  0  0  0  0  0  0  0  0  0
    5.4629   -6.3632   -0.7480 C   0  0  0  0  0  0  0  0  0  0  0  0
    6.3867   -7.3783   -0.6853 C   0  0  0  0  0  0  0  0  0  0  0  0
    6.0942   -8.6905   -1.0793 C   0  0  0  0  0  0  0  0  0  0  0  0
    4.8729   -9.0924   -1.5667 C   0  0  0  0  0  0  0  0  0  0  0  0
    3.9159   -8.0755   -1.6368 C   0  0  0  0  0  0  0  0  0  0  0  0
    2.5257   -8.1162   -2.0920 C   0  0  0  0  0  0  0  0  0  0  0  0
    1.8830   -9.2326   -2.5642 C   0  0  0  0  0  0  0  0  0  0  0  0
    0.5493   -9.3015   -3.0187 C   0  0  0  0  0  0  0  0  0  0  0  0
   -0.5194   -9.4671   -3.4081 N   0  0  0  0  0  0  0  0  0  0  0  0
    2.4737  -10.5097   -2.6664 C   0  0  0  0  0  0  0  0  0  0  0  0
    2.8795  -11.5787   -2.7747 N   0  0  0  0  0  0  0  0  0  0  0  0
    7.4760   -9.1875   -0.7348 C   0  0  0  0  0  0  0  0  0  0  0  0
    7.6142   -9.9759    0.5850 C   0  0  0  0  0  0  0  0  0  0  0  0
    9.0931   -9.9107    0.8911 C   0  0  0  0  0  0  0  0  0  0  0  0
    9.3742   -8.6676    1.2603 C   0  0  0  0  0  0  0  0  0  0  0  0
    8.0898   -7.8719    1.2107 C   0  0  0  0  0  0  0  0  0  0  0  0
    7.0880   -8.9630    1.6102 C   0  0  0  0  0  0  0  0  0  0  0  0
    7.8037   -7.7233   -0.2986 C   0  0  0  0  0  0  0  0  0  0  0  0
    0.0428   -5.1763   -2.0935 C   0  0  0  0  0  0  0  0  0  0  0  0
   -1.3251   -5.0005   -2.3825 C   0  0  0  0  0  0  0  0  0  0  0  0
   -2.2547   -6.0805   -2.6990 C   0  0  0  0  0  0  0  0  0  0  0  0
   -2.3191   -7.2328   -1.9168 C   0  0  0  0  0  0  0  0  0  0  0  0
   -3.1974   -8.2466   -2.2393 C   0  0  0  0  0  0  0  0  0  0  0  0
   -4.0321   -8.1429   -3.3452 C   0  0  0  0  0  0  0  0  0  0  0  0
   -4.9996   -9.2399   -3.6763 C   0  0  0  0  0  0  0  0  0  0  0  0
   -6.3230   -9.0262   -2.9379 C   0  0  0  0  0  0  0  0  0  0  0  0
   -3.9873   -6.9798   -4.1047 C   0  0  0  0  0  0  0  0  0  0  0  0
   -3.1167   -5.9575   -3.7870 C   0  0  0  0  0  0  0  0  0  0  0  0
   -1.6953   -3.6596   -2.3037 C   0  0  0  0  0  0  0  0  0  0  0  0
   -3.2287   -2.8345   -2.5103 S   0  0  0  0  0  0  0  0  0  0  0  0
   -2.4542   -1.3496   -2.0738 C   0  0  0  0  0  0  0  0  0  0  0  0
   -2.7753    0.0042   -1.8903 C   0  0  0  0  0  0  0  0  0  0  0  0
   -3.9605    0.7386   -2.1199 C   0  0  0  0  0  0  0  0  0  0  0  0
   -3.9554    2.1556   -1.8858 C   0  0  0  0  0  0  0  0  0  0  0  0
   -5.1107    2.7222   -2.1940 N   0  0  0  0  0  0  0  0  0  0  0  0
   -6.1206    1.5746   -2.7273 S   0  0  0  0  0  0  0  0  0  0  0  0
   -5.1221    0.3084   -2.5851 N   0  0  0  0  0  0  0  0  0  0  0  0
   -2.8139    2.7513   -1.3013 C   0  0  0  0  0  0  0  0  0  0  0  0
   -2.6060    4.0310   -0.7705 C   0  0  0  0  0  0  0  0  0  0  0  0
   -3.4426    5.5376   -0.6210 S   0  0  0  0  0  0  0  0  0  0  0  0
   -2.1010    6.1517    0.3266 C   0  0  0  0  0  0  0  0  0  0  0  0
   -1.8853    7.3594    0.9819 C   0  0  0  0  0  0  0  0  0  0  0  0
   -2.8478    8.4548    1.0138 C   0  0  0  0  0  0  0  0  0  0  0  0
   -3.4636    8.8789   -0.1622 C   0  0  0  0  0  0  0  0  0  0  0  0
   -4.3609    9.9271   -0.1390 C   0  0  0  0  0  0  0  0  0  0  0  0
   -4.6779   10.5713    1.0511 C   0  0  0  0  0  0  0  0  0  0  0  0
   -5.6733   11.6923    1.0803 C   0  0  0  0  0  0  0  0  0  0  0  0
   -7.0735   11.1562    1.3872 C   0  0  0  0  0  0  0  0  0  0  0  0
   -4.0906   10.1208    2.2275 C   0  0  0  0  0  0  0  0  0  0  0  0
   -3.1874    9.0787    2.2142 C   0  0  0  0  0  0  0  0  0  0  0  0
   -0.6334    7.3779    1.6360 C   0  0  0  0  0  0  0  0  0  0  0  0
    0.2192    5.8424    1.4738 S   0  0  0  0  0  0  0  0  0  0  0  0
   -1.0623    5.2202    0.5010 C   0  0  0  0  0  0  0  0  0  0  0  0
   -1.3579    4.0112   -0.1328 C   0  0  0  0  0  0  0  0  0  0  0  0
   -0.7736    2.7791   -0.2762 N   0  0  0  0  0  0  0  0  0  0  0  0
   -1.6448    1.9911   -1.0072 C   0  0  0  0  0  0  0  0  0  0  0  0
   -1.5836    0.6460   -1.4475 C   0  0  0  0  0  0  0  0  0  0  0  0
   -0.5556   -0.2774   -1.4391 N   0  0  0  0  0  0  0  0  0  0  0  0
   -1.0881   -1.4893   -1.7967 C   0  0  0  0  0  0  0  0  0  0  0  0
   -0.6447   -2.8081   -1.9283 C   0  0  0  0  0  0  0  0  0  0  0  0
    0.8340   -3.6586   -1.6727 S   0  0  0  0  0  0  0  0  0  0  0  0
    0.8584   -0.0292   -1.6189 C   0  0  0  0  0  0  0  0  0  0  0  0
    1.2862   -0.2758   -3.0649 C   0  0  0  0  0  0  0  0  0  0  0  0
    0.2967    2.3924    0.6233 C   0  0  0  0  0  0  0  0  0  0  0  0
   -0.1157    1.2575    1.5538 C   0  0  0  0  0  0  0  0  0  0  0  0
   -0.1188    8.5274    2.2350 C   0  0  0  0  0  0  0  0  0  0  0  0
    1.0616    8.7328    2.9159 C   0  0  0  0  0  0  0  0  0  0  0  0
    2.0770    7.7204    3.2008 C   0  0  0  0  0  0  0  0  0  0  0  0
    2.0683    6.5400    2.8912 O   0  0  0  0  0  0  0  0  0  0  0  0
    3.1444    8.4094    3.9502 C   0  0  0  0  0  0  0  0  0  0  0  0
    4.3271    7.8954    4.4448 C   0  0  0  0  0  0  0  0  0  0  0  0
    5.1882    8.7482    5.1174 C   0  0  0  0  0  0  0  0  0  0  0  0
    4.8425   10.0831    5.2748 C   0  0  0  0  0  0  0  0  0  0  0  0
    6.0397   11.2349    6.1984 Br  0  0  0  0  0  0  0  0  0  0  0  0
    3.6556   10.6151    4.7833 C   0  0  0  0  0  0  0  0  0  0  0  0
    2.7971    9.7616    4.1119 C   0  0  0  0  0  0  0  0  0  0  0  0
    1.4945    9.9923    3.4793 C   0  0  0  0  0  0  0  0  0  0  0  0
    0.8374   11.1962    3.4561 C   0  0  0  0  0  0  0  0  0  0  0  0
    1.3348   12.3781    4.0449 C   0  0  0  0  0  0  0  0  0  0  0  0
    1.6790   13.3723    4.5045 N   0  0  0  0  0  0  0  0  0  0  0  0
   -0.4167   11.4537    2.8637 C   0  0  0  0  0  0  0  0  0  0  0  0
   -1.4287   11.7650    2.4170 N   0  0  0  0  0  0  0  0  0  0  0  0
    0.0310   -7.1911   -2.6000 H   0  0  0  0  0  0  0  0  0  0  0  0
    5.6441   -5.3399   -0.4586 H   0  0  0  0  0  0  0  0  0  0  0  0
    4.6702  -10.1053   -1.8706 H   0  0  0  0  0  0  0  0  0  0  0  0
    8.0416   -9.6271   -1.5540 H   0  0  0  0  0  0  0  0  0  0  0  0
    7.1588  -10.9623    0.5754 H   0  0  0  0  0  0  0  0  0  0  0  0
    9.7700  -10.7340    0.7583 H   0  0  0  0  0  0  0  0  0  0  0  0
   10.3330   -8.2450    1.4974 H   0  0  0  0  0  0  0  0  0  0  0  0
    8.0687   -6.9417    1.7724 H   0  0  0  0  0  0  0  0  0  0  0  0
    6.0461   -8.6840    1.4643 H   0  0  0  0  0  0  0  0  0  0  0  0
    7.2344   -9.3010    2.6347 H   0  0  0  0  0  0  0  0  0  0  0  0
    8.5861   -7.1848   -0.8301 H   0  0  0  0  0  0  0  0  0  0  0  0
   -1.6948   -7.3193   -1.0387 H   0  0  0  0  0  0  0  0  0  0  0  0
   -3.2293   -9.1367   -1.6288 H   0  0  0  0  0  0  0  0  0  0  0  0
   -5.1862   -9.2566   -4.7516 H   0  0  0  0  0  0  0  0  0  0  0  0
   -4.5751  -10.2026   -3.3870 H   0  0  0  0  0  0  0  0  0  0  0  0
   -6.1593   -9.0136   -1.8626 H   0  0  0  0  0  0  0  0  0  0  0  0
   -6.7690   -8.0768   -3.2263 H   0  0  0  0  0  0  0  0  0  0  0  0
   -7.0226   -9.8247   -3.1734 H   0  0  0  0  0  0  0  0  0  0  0  0
   -4.6369   -6.8777   -4.9621 H   0  0  0  0  0  0  0  0  0  0  0  0
   -3.0792   -5.0674   -4.3975 H   0  0  0  0  0  0  0  0  0  0  0  0
   -3.2114    8.4008   -1.0971 H   0  0  0  0  0  0  0  0  0  0  0  0
   -4.8161   10.2574   -1.0615 H   0  0  0  0  0  0  0  0  0  0  0  0
   -5.6861   12.2020    0.1154 H   0  0  0  0  0  0  0  0  0  0  0  0
   -5.3871   12.4150    1.8464 H   0  0  0  0  0  0  0  0  0  0  0  0
   -7.7941   11.9700    1.4132 H   0  0  0  0  0  0  0  0  0  0  0  0
   -7.3815   10.4431    0.6257 H   0  0  0  0  0  0  0  0  0  0  0  0
   -7.0841   10.6522    2.3510 H   0  0  0  0  0  0  0  0  0  0  0  0
   -4.3369   10.5994    3.1635 H   0  0  0  0  0  0  0  0  0  0  0  0
   -2.7590    8.7244    3.1411 H   0  0  0  0  0  0  0  0  0  0  0  0
    1.4208   -0.6865   -0.9489 H   0  0  0  0  0  0  0  0  0  0  0  0
    1.0626    1.0087   -1.3755 H   0  0  0  0  0  0  0  0  0  0  0  0
    2.3346   -0.0155   -3.1803 H   0  0  0  0  0  0  0  0  0  0  0  0
    0.6960    0.3373   -3.7430 H   0  0  0  0  0  0  0  0  0  0  0  0
    1.1610   -1.3196   -3.3362 H   0  0  0  0  0  0  0  0  0  0  0  0
    0.5314    3.2789    1.2172 H   0  0  0  0  0  0  0  0  0  0  0  0
    1.2049    2.1305    0.0752 H   0  0  0  0  0  0  0  0  0  0  0  0
   -1.0067    1.5372    2.1113 H   0  0  0  0  0  0  0  0  0  0  0  0
    0.6867    1.0599    2.2587 H   0  0  0  0  0  0  0  0  0  0  0  0
   -0.3255    0.3458    1.0019 H   0  0  0  0  0  0  0  0  0  0  0  0
   -0.7626    9.3912    2.1220 H   0  0  0  0  0  0  0  0  0  0  0  0
    4.5672    6.8529    4.3052 H   0  0  0  0  0  0  0  0  0  0  0  0
    6.1221    8.3850    5.5176 H   0  0  0  0  0  0  0  0  0  0  0  0
    3.4330   11.6590    4.9308 H   0  0  0  0  0  0  0  0  0  0  0  0
  1  2  2  0  0  0  0
  2  3  1  0  0  0  0
  3  4  2  0  0  0  0
  3  5  1  0  0  0  0
  5  6  2  0  0  0  0
  6  7  1  0  0  0  0
  7  8  2  0  0  0  0
  8  9  1  0  0  0  0
  9 10  2  0  0  0  0
 10 11  1  0  0  0  0
 11 12  2  0  0  0  0
 12 13  1  0  0  0  0
 13 14  3  0  0  0  0
 12 15  1  0  0  0  0
 15 16  3  0  0  0  0
  8 17  1  0  0  0  0
 17 18  1  0  0  0  0
 18 19  1  0  0  0  0
 19 20  2  0  0  0  0
 20 21  1  0  0  0  0
 21 22  1  0  0  0  0
 21 23  1  0  0  0  0
  1 24  1  0  0  0  0
 24 25  2  0  0  0  0
 25 26  1  0  0  0  0
 26 27  2  0  0  0  0
 27 28  1  0  0  0  0
 28 29  2  0  0  0  0
 29 30  1  0  0  0  0
 30 31  1  0  0  0  0
 29 32  1  0  0  0  0
 32 33  2  0  0  0  0
 25 34  1  0  0  0  0
 34 35  1  0  0  0  0
 35 36  1  0  0  0  0
 36 37  1  0  0  0  0
 37 38  1  0  0  0  0
 38 39  1  0  0  0  0
 39 40  2  0  0  0  0
 40 41  1  0  0  0  0
 41 42  1  0  0  0  0
 39 43  1  0  0  0  0
 43 44  1  0  0  0  0
 44 45  1  0  0  0  0
 45 46  1  0  0  0  0
 46 47  1  0  0  0  0
 47 48  1  0  0  0  0
 48 49  2  0  0  0  0
 49 50  1  0  0  0  0
 50 51  2  0  0  0  0
 51 52  1  0  0  0  0
 52 53  1  0  0  0  0
 51 54  1  0  0  0  0
 54 55  2  0  0  0  0
 47 56  2  0  0  0  0
 56 57  1  0  0  0  0
 57 58  1  0  0  0  0
 58 59  1  0  0  0  0
 59 60  1  0  0  0  0
 60 61  1  0  0  0  0
 61 62  1  0  0  0  0
 62 63  1  0  0  0  0
 63 64  1  0  0  0  0
 64 65  1  0  0  0  0
 65 66  1  0  0  0  0
 63 67  1  0  0  0  0
 67 68  1  0  0  0  0
 60 69  1  0  0  0  0
 69 70  1  0  0  0  0
 56 71  1  0  0  0  0
 71 72  2  0  0  0  0
 72 73  1  0  0  0  0
 73 74  2  0  0  0  0
 73 75  1  0  0  0  0
 75 76  2  0  0  0  0
 76 77  1  0  0  0  0
 77 78  2  0  0  0  0
 78 79  1  0  0  0  0
 78 80  1  0  0  0  0
 80 81  2  0  0  0  0
 81 82  1  0  0  0  0
 82 83  2  0  0  0  0
 83 84  1  0  0  0  0
 84 85  3  0  0  0  0
 83 86  1  0  0  0  0
 86 87  3  0  0  0  0
 11  2  1  0  0  0  0
 23 17  1  0  0  0  0
 66 24  1  0  0  0  0
 82 72  1  0  0  0  0
 10  5  1  0  0  0  0
 22 18  1  0  0  0  0
 33 26  1  0  0  0  0
 65 34  2  0  0  0  0
 81 75  1  0  0  0  0
 23  7  1  0  0  0  0
 64 36  2  0  0  0  0
 62 37  2  0  0  0  0
 42 38  2  0  0  0  0
 61 43  2  0  0  0  0
 59 44  2  0  0  0  0
 58 46  2  0  0  0  0
 55 48  1  0  0  0  0
  1 88  1  0  0  0  0
  6 89  1  0  0  0  0
  9 90  1  0  0  0  0
 17 91  1  0  0  0  0
 18 92  1  0  0  0  0
 19 93  1  0  0  0  0
 20 94  1  0  0  0  0
 21 95  1  0  0  0  0
 22 96  1  0  0  0  0
 22 97  1  0  0  0  0
 23 98  1  0  0  0  0
 27 99  1  0  0  0  0
 28100  1  0  0  0  0
 30101  1  0  0  0  0
 30102  1  0  0  0  0
 31103  1  0  0  0  0
 31104  1  0  0  0  0
 31105  1  0  0  0  0
 32106  1  0  0  0  0
 33107  1  0  0  0  0
 49108  1  0  0  0  0
 50109  1  0  0  0  0
 52110  1  0  0  0  0
 52111  1  0  0  0  0
 53112  1  0  0  0  0
 53113  1  0  0  0  0
 53114  1  0  0  0  0
 54115  1  0  0  0  0
 55116  1  0  0  0  0
 67117  1  0  0  0  0
 67118  1  0  0  0  0
 68119  1  0  0  0  0
 68120  1  0  0  0  0
 68121  1  0  0  0  0
 69122  1  0  0  0  0
 69123  1  0  0  0  0
 70124  1  0  0  0  0
 70125  1  0  0  0  0
 70126  1  0  0  0  0
 71127  1  0  0  0  0
 76128  1  0  0  0  0
 77129  1  0  0  0  0
 80130  1  0  0  0  0
M  END
