134

C          3.47650       -4.75740        3.39590
C          4.54730       -4.05640        3.88220
C          4.84380       -2.64450        3.62330
O          4.12920       -1.82670        3.06690
C          6.19460       -2.40410        4.15670
C          6.92620       -1.22040        4.08670
C          8.17380       -1.30060        4.65710
C          8.66120       -2.47330        5.24930
C          7.94970       -3.64730        5.32630
C          6.67420       -3.58670        4.75720
C          5.64090       -4.61530        4.65110
C          5.68270       -5.85710        5.23140
C          6.77130       -6.34650        5.98280
N          7.62190       -6.80720        6.60150
C          4.63980       -6.80770        5.20710
N          3.83490       -7.62620        5.25870
C          9.97880       -1.83640        5.61490
C         10.15940       -1.42740        7.09200
C         11.29110       -0.42590        7.05420
C         10.82820        0.68530        6.49590
C          9.37570        0.45340        6.14680
C          8.97290       -0.47690        7.29820
C          9.43410       -0.52800        4.95690
C          2.37070       -4.32420        2.65260
C          1.39440       -5.22360        2.19560
C          1.51720       -6.67960        2.36070
C          2.50130       -7.34580        1.63540
C          2.66690       -8.71080        1.76460
C          1.85170       -9.41930        2.63000
C          0.87870       -8.75850        3.35610
C          0.69170       -7.38830        3.23550
C         -0.31150       -6.68800        4.10630
C          0.37740       -6.09510        5.33790
C          0.35920       -4.56640        1.54010
S         -1.08290       -5.13950        0.72310
C         -1.46120       -3.49910        0.31910
C         -2.41790       -2.78110       -0.40790
C         -3.48140       -3.22630       -1.22710
C         -4.19500       -2.26670       -2.01700
N         -5.11040       -2.82680       -2.78970
S         -5.08300       -4.42730       -2.53970
N         -3.89700       -4.46420       -1.43720
C         -3.90030       -0.89410       -1.84890
C         -4.49200        0.24540       -2.39450
S         -5.69450        0.63410       -3.56580
C         -5.35100        2.37460       -3.30620
C         -5.89240        3.28810       -4.14250
C         -6.88280        2.92690       -5.16720
C         -8.14850        2.42760       -4.84040
C         -8.65530        2.37350       -3.42660
C         -9.38710        3.67330       -3.08300
C         -9.00550        2.07890       -5.87680
C         -8.63220        2.21530       -7.20070
C         -7.38720        2.73480       -7.51550
C         -6.52150        3.09890       -6.50400
C         -5.40100        4.67870       -4.21870
S         -4.16460        4.09890       -1.52450
C         -4.42590        2.59980       -2.20240
C         -3.91950        1.35820       -1.76900
N         -2.96740        0.93530       -0.87110
C         -2.90800       -0.43860       -0.92610
C         -2.07050       -1.40160       -0.30210
N         -0.90440       -1.30330        0.43630
C         -0.53320       -2.56690        0.80190
C          0.52130       -3.17110        1.49560
S          1.98500       -2.65620        2.25140
C          0.04830       -0.21910        0.53930
C          0.54050        0.22910       -0.83400
C         -2.46580        1.82320        0.15640
C         -2.92400        1.38610        1.54420
C         -4.19420        4.88600       -4.64080
C         -2.94360        4.95850       -5.01990
C         -2.61490        4.98750       -6.45650
O         -3.42500        4.75400       -7.32620
N         -1.28870        5.26380       -6.77810
C         -0.91220        5.13670       -8.18560
C         -1.11420        6.44890       -8.93080
C         -0.32200        5.74150       -5.91990
O          0.80130        5.96680       -6.29240
C         -0.79130        6.00830       -4.48980
C          0.33700        6.05220       -3.58700
N          1.20290        6.05800       -2.84280
C         -1.80930        4.95740       -4.02770
C         -1.18580        3.56200       -3.94770
H          3.46170       -5.82440        3.58500
H          6.51560       -0.34200        3.61390
H          8.34230       -4.54280        5.77780
H         10.86550       -2.30330        5.19050
H         10.26300       -2.25820        7.78450
H         12.29320       -0.64070        7.37600
H         11.36620        1.58410        6.25800
H          8.76560        1.33700        5.97900
H          7.99980       -0.94740        7.16970
H          9.01020        0.02400        8.26410
H          9.95860       -0.12060        4.09460
H          3.13280       -6.78080        0.96370
H          3.43340       -9.21670        1.19700
H          1.98030      -10.48480        2.74490
H          0.25330       -9.31280        4.04050
H         -1.06850       -7.40430        4.43010
H         -0.81400       -5.89310        3.55300
H         -0.35940       -5.67670        6.01980
H          1.06790       -5.30550        5.04960
H          0.94250       -6.86420        5.85910
H         -9.34420        1.53350       -3.32280
H         -7.84040        2.23050       -2.71860
H         -9.78670        3.62600       -2.07290
H         -8.70640        4.51950       -3.14400
H        -10.20860        3.84400       -3.77520
H         -9.98530        1.69350       -5.63390
H         -9.31520        1.92700       -7.98590
H         -7.09000        2.85950       -8.54540
H         -5.54820        3.50360       -6.74240
H          0.89360       -0.60260        1.11540
H         -0.37480        0.61160        1.10450
H         -0.28150        0.56380       -1.46260
H          1.25030        1.04380       -0.72150
H          1.03890       -0.59600       -1.33750
H         -2.87890        2.81100       -0.06160
H         -1.38070        1.90750        0.09410
H         -2.59460        0.37680        1.78060
H         -2.52750        2.06920        2.29040
H         -4.01000        1.41000        1.59940
H         -6.10120        5.47810       -4.02540
H          0.13750        4.83900       -8.21630
H         -1.53760        4.35440       -8.61880
H         -0.49670        7.23010       -8.49320
H         -2.15870        6.74890       -8.88690
H         -0.83050        6.32380       -9.97180
H         -1.26120        7.00240       -4.48670
H         -2.19340        5.22530       -3.03780
H         -1.93350        2.84680       -3.61060
H         -0.35820        3.56190       -3.24120
H         -0.81370        3.23930       -4.91870
