
  xtb     02022220373D
 energy: -222.934258479392 gnorm: 0.000839038787 xtb: 6.4.1 (unknown)
134149  0     0  0            999 V2000
    0.1904   -0.4556   -7.4285 C   0  0  0  0  0  0  0  0  0  0  0  0
   -1.0407   -0.8514   -7.8914 C   0  0  0  0  0  0  0  0  0  0  0  0
   -2.1911   -1.2314   -7.0695 C   0  0  0  0  0  0  0  0  0  0  0  0
   -2.2830   -1.1918   -5.8526 O   0  0  0  0  0  0  0  0  0  0  0  0
   -3.2400   -1.6759   -8.0020 C   0  0  0  0  0  0  0  0  0  0  0  0
   -4.5030   -2.1609   -7.6731 C   0  0  0  0  0  0  0  0  0  0  0  0
   -5.2682   -2.5093   -8.7599 C   0  0  0  0  0  0  0  0  0  0  0  0
   -4.8085   -2.3858  -10.0773 C   0  0  0  0  0  0  0  0  0  0  0  0
   -3.5634   -1.9094  -10.4145 C   0  0  0  0  0  0  0  0  0  0  0  0
   -2.7689   -1.5459   -9.3239 C   0  0  0  0  0  0  0  0  0  0  0  0
   -1.4052   -1.0155   -9.2831 C   0  0  0  0  0  0  0  0  0  0  0  0
   -0.6353   -0.7318  -10.3834 C   0  0  0  0  0  0  0  0  0  0  0  0
   -1.0571   -0.9083  -11.7178 C   0  0  0  0  0  0  0  0  0  0  0  0
   -1.3261   -1.0183  -12.8290 N   0  0  0  0  0  0  0  0  0  0  0  0
    0.6790   -0.2198  -10.3793 C   0  0  0  0  0  0  0  0  0  0  0  0
    1.7491    0.1848  -10.4929 N   0  0  0  0  0  0  0  0  0  0  0  0
   -6.0952   -2.9143  -10.6603 C   0  0  0  0  0  0  0  0  0  0  0  0
   -7.0828   -1.8922  -11.2752 C   0  0  0  0  0  0  0  0  0  0  0  0
   -6.8313   -0.5792  -10.5763 C   0  0  0  0  0  0  0  0  0  0  0  0
   -7.2670   -0.6945   -9.3290 C   0  0  0  0  0  0  0  0  0  0  0  0
   -7.8206   -2.0880   -9.1616 C   0  0  0  0  0  0  0  0  0  0  0  0
   -8.3788   -2.3288  -10.5734 C   0  0  0  0  0  0  0  0  0  0  0  0
   -6.6079   -3.0508   -9.1919 C   0  0  0  0  0  0  0  0  0  0  0  0
    0.6589   -0.2831   -6.1219 C   0  0  0  0  0  0  0  0  0  0  0  0
    1.9957    0.0627   -5.8381 C   0  0  0  0  0  0  0  0  0  0  0  0
    3.0547    0.1435   -6.8387 C   0  0  0  0  0  0  0  0  0  0  0  0
    3.8959    1.2541   -6.8713 C   0  0  0  0  0  0  0  0  0  0  0  0
    4.8695    1.3612   -7.8429 C   0  0  0  0  0  0  0  0  0  0  0  0
    5.0423    0.3635   -8.7952 C   0  0  0  0  0  0  0  0  0  0  0  0
    6.0359    0.5270   -9.9053 C   0  0  0  0  0  0  0  0  0  0  0  0
    5.3798    1.2678  -11.0733 C   0  0  0  0  0  0  0  0  0  0  0  0
    4.2308   -0.7625   -8.7326 C   0  0  0  0  0  0  0  0  0  0  0  0
    3.2506   -0.8765   -7.7686 C   0  0  0  0  0  0  0  0  0  0  0  0
    2.1816    0.3114   -4.4807 C   0  0  0  0  0  0  0  0  0  0  0  0
    3.5906    0.7404   -3.5293 S   0  0  0  0  0  0  0  0  0  0  0  0
    2.6107    0.6843   -2.1039 C   0  0  0  0  0  0  0  0  0  0  0  0
    2.7338    0.8832   -0.7182 C   0  0  0  0  0  0  0  0  0  0  0  0
    3.7839    1.3528    0.1041 C   0  0  0  0  0  0  0  0  0  0  0  0
    3.5341    1.5775    1.5051 C   0  0  0  0  0  0  0  0  0  0  0  0
    4.5857    2.0849    2.1279 N   0  0  0  0  0  0  0  0  0  0  0  0
    5.7868    2.2585    1.0569 S   0  0  0  0  0  0  0  0  0  0  0  0
    5.0126    1.6950   -0.2480 N   0  0  0  0  0  0  0  0  0  0  0  0
    2.2911    1.1893    2.0558 C   0  0  0  0  0  0  0  0  0  0  0  0
    1.7943    1.1409    3.3714 C   0  0  0  0  0  0  0  0  0  0  0  0
    2.2707    1.5991    4.9706 S   0  0  0  0  0  0  0  0  0  0  0  0
    0.7734    0.9414    5.5846 C   0  0  0  0  0  0  0  0  0  0  0  0
    0.2338    0.8435    6.8829 C   0  0  0  0  0  0  0  0  0  0  0  0
    0.9601    1.2229    8.0912 C   0  0  0  0  0  0  0  0  0  0  0  0
    0.9626    0.3899    9.2077 C   0  0  0  0  0  0  0  0  0  0  0  0
    1.6646    0.7436   10.3419 C   0  0  0  0  0  0  0  0  0  0  0  0
    2.3791    1.9357   10.3970 C   0  0  0  0  0  0  0  0  0  0  0  0
    3.1730    2.2968   11.6190 C   0  0  0  0  0  0  0  0  0  0  0  0
    4.5922    1.7334   11.5170 C   0  0  0  0  0  0  0  0  0  0  0  0
    2.3810    2.7585    9.2773 C   0  0  0  0  0  0  0  0  0  0  0  0
    1.6879    2.4088    8.1356 C   0  0  0  0  0  0  0  0  0  0  0  0
   -1.0142    0.2486    6.8658 C   0  0  0  0  0  0  0  0  0  0  0  0
   -1.4829   -0.2703    5.2469 S   0  0  0  0  0  0  0  0  0  0  0  0
   -0.0314    0.3867    4.5871 C   0  0  0  0  0  0  0  0  0  0  0  0
    0.5489    0.5046    3.3192 C   0  0  0  0  0  0  0  0  0  0  0  0
    0.2413    0.1696    2.0233 N   0  0  0  0  0  0  0  0  0  0  0  0
    1.2882    0.6135    1.2348 C   0  0  0  0  0  0  0  0  0  0  0  0
    1.4526    0.6132   -0.1663 C   0  0  0  0  0  0  0  0  0  0  0  0
    0.5618    0.3281   -1.1814 N   0  0  0  0  0  0  0  0  0  0  0  0
    1.2717    0.3559   -2.3574 C   0  0  0  0  0  0  0  0  0  0  0  0
    1.0179    0.1406   -3.7138 C   0  0  0  0  0  0  0  0  0  0  0  0
   -0.3351   -0.3443   -4.6675 S   0  0  0  0  0  0  0  0  0  0  0  0
   -0.8628    0.5978   -1.1826 C   0  0  0  0  0  0  0  0  0  0  0  0
   -1.1713    1.9350   -1.8552 C   0  0  0  0  0  0  0  0  0  0  0  0
   -0.6183   -0.9639    1.7451 C   0  0  0  0  0  0  0  0  0  0  0  0
   -0.0864   -2.2374    2.4022 C   0  0  0  0  0  0  0  0  0  0  0  0
   -1.9359   -0.0628    7.9136 C   0  0  0  0  0  0  0  0  0  0  0  0
   -2.2877    0.6646    9.0006 C   0  0  0  0  0  0  0  0  0  0  0  0
   -1.8649    2.0596    9.1602 C   0  0  0  0  0  0  0  0  0  0  0  0
   -1.2023    2.6699    8.3481 O   0  0  0  0  0  0  0  0  0  0  0  0
   -2.2911    2.7169   10.3258 N   0  0  0  0  0  0  0  0  0  0  0  0
   -1.5909    3.9439   10.6987 C   0  0  0  0  0  0  0  0  0  0  0  0
   -0.5687    3.6641   11.7917 C   0  0  0  0  0  0  0  0  0  0  0  0
   -3.3852    2.3792   11.0742 C   0  0  0  0  0  0  0  0  0  0  0  0
   -3.7249    3.0076   12.0457 O   0  0  0  0  0  0  0  0  0  0  0  0
   -4.1525    1.1716   10.5376 C   0  0  0  0  0  0  0  0  0  0  0  0
   -5.0564    0.6815   11.5531 C   0  0  0  0  0  0  0  0  0  0  0  0
   -5.7587    0.2705   12.3543 N   0  0  0  0  0  0  0  0  0  0  0  0
   -3.1559    0.0848   10.0929 C   0  0  0  0  0  0  0  0  0  0  0  0
   -3.8928   -1.1988    9.7164 C   0  0  0  0  0  0  0  0  0  0  0  0
    0.9410   -0.2420   -8.1797 H   0  0  0  0  0  0  0  0  0  0  0  0
   -4.8142   -2.2430   -6.6433 H   0  0  0  0  0  0  0  0  0  0  0  0
   -3.2267   -1.8260  -11.4340 H   0  0  0  0  0  0  0  0  0  0  0  0
   -6.0111   -3.8203  -11.2573 H   0  0  0  0  0  0  0  0  0  0  0  0
   -7.0856   -1.8648  -12.3615 H   0  0  0  0  0  0  0  0  0  0  0  0
   -6.3255    0.2530  -11.0299 H   0  0  0  0  0  0  0  0  0  0  0  0
   -7.1977    0.0223   -8.5317 H   0  0  0  0  0  0  0  0  0  0  0  0
   -8.4964   -2.2389   -8.3237 H   0  0  0  0  0  0  0  0  0  0  0  0
   -8.6461   -3.3675  -10.7628 H   0  0  0  0  0  0  0  0  0  0  0  0
   -9.2234   -1.6828  -10.8083 H   0  0  0  0  0  0  0  0  0  0  0  0
   -6.8595   -4.0463   -8.8307 H   0  0  0  0  0  0  0  0  0  0  0  0
    3.7597    2.0457   -6.1494 H   0  0  0  0  0  0  0  0  0  0  0  0
    5.5014    2.2373   -7.8688 H   0  0  0  0  0  0  0  0  0  0  0  0
    6.3784   -0.4521  -10.2457 H   0  0  0  0  0  0  0  0  0  0  0  0
    6.9023    1.0923   -9.5553 H   0  0  0  0  0  0  0  0  0  0  0  0
    6.0700    1.3478  -11.9100 H   0  0  0  0  0  0  0  0  0  0  0  0
    5.0852    2.2687  -10.7669 H   0  0  0  0  0  0  0  0  0  0  0  0
    4.4882    0.7382  -11.3992 H   0  0  0  0  0  0  0  0  0  0  0  0
    4.3636   -1.5562   -9.4529 H   0  0  0  0  0  0  0  0  0  0  0  0
    2.6444   -1.7700   -7.7181 H   0  0  0  0  0  0  0  0  0  0  0  0
    0.4237   -0.5466    9.1767 H   0  0  0  0  0  0  0  0  0  0  0  0
    1.6613    0.0852   11.1998 H   0  0  0  0  0  0  0  0  0  0  0  0
    3.2238    3.3826   11.7201 H   0  0  0  0  0  0  0  0  0  0  0  0
    2.6892    1.8926   12.5108 H   0  0  0  0  0  0  0  0  0  0  0  0
    4.5639    0.6496   11.4298 H   0  0  0  0  0  0  0  0  0  0  0  0
    5.1693    1.9961   12.4004 H   0  0  0  0  0  0  0  0  0  0  0  0
    5.0956    2.1335   10.6400 H   0  0  0  0  0  0  0  0  0  0  0  0
    2.9310    3.6881    9.3029 H   0  0  0  0  0  0  0  0  0  0  0  0
    1.6810    3.0694    7.2831 H   0  0  0  0  0  0  0  0  0  0  0  0
   -1.3724   -0.2097   -1.7175 H   0  0  0  0  0  0  0  0  0  0  0  0
   -1.2176    0.6426   -0.1546 H   0  0  0  0  0  0  0  0  0  0  0  0
   -0.8950    1.9161   -2.9053 H   0  0  0  0  0  0  0  0  0  0  0  0
   -0.6279    2.7385   -1.3623 H   0  0  0  0  0  0  0  0  0  0  0  0
   -2.2362    2.1375   -1.7841 H   0  0  0  0  0  0  0  0  0  0  0  0
   -1.6220   -0.7427    2.1221 H   0  0  0  0  0  0  0  0  0  0  0  0
   -0.6588   -1.1265    0.6701 H   0  0  0  0  0  0  0  0  0  0  0  0
   -0.0787   -2.1458    3.4845 H   0  0  0  0  0  0  0  0  0  0  0  0
    0.9266   -2.4399    2.0609 H   0  0  0  0  0  0  0  0  0  0  0  0
   -0.7208   -3.0767    2.1314 H   0  0  0  0  0  0  0  0  0  0  0  0
   -2.4338   -1.0136    7.7659 H   0  0  0  0  0  0  0  0  0  0  0  0
   -1.1030    4.3212    9.7990 H   0  0  0  0  0  0  0  0  0  0  0  0
   -2.3341    4.6623   11.0508 H   0  0  0  0  0  0  0  0  0  0  0  0
   -0.0380    4.5796   12.0369 H   0  0  0  0  0  0  0  0  0  0  0  0
   -1.0675    3.2999   12.6865 H   0  0  0  0  0  0  0  0  0  0  0  0
    0.1513    2.9221   11.4530 H   0  0  0  0  0  0  0  0  0  0  0  0
   -4.7523    1.4985    9.6771 H   0  0  0  0  0  0  0  0  0  0  0  0
   -2.5041   -0.1349   10.9521 H   0  0  0  0  0  0  0  0  0  0  0  0
   -3.1918   -2.0077    9.5272 H   0  0  0  0  0  0  0  0  0  0  0  0
   -4.5126   -1.0471    8.8348 H   0  0  0  0  0  0  0  0  0  0  0  0
   -4.5371   -1.5032   10.5383 H   0  0  0  0  0  0  0  0  0  0  0  0
  1  2  2  0  0  0  0
  2  3  1  0  0  0  0
  3  4  2  0  0  0  0
  3  5  1  0  0  0  0
  5  6  2  0  0  0  0
  6  7  1  0  0  0  0
  7  8  2  0  0  0  0
  8  9  1  0  0  0  0
  9 10  2  0  0  0  0
 10 11  1  0  0  0  0
 11 12  2  0  0  0  0
 12 13  1  0  0  0  0
 13 14  3  0  0  0  0
 12 15  1  0  0  0  0
 15 16  3  0  0  0  0
  8 17  1  0  0  0  0
 17 18  1  0  0  0  0
 18 19  1  0  0  0  0
 19 20  2  0  0  0  0
 20 21  1  0  0  0  0
 21 22  1  0  0  0  0
 21 23  1  0  0  0  0
  1 24  1  0  0  0  0
 24 25  2  0  0  0  0
 25 26  1  0  0  0  0
 26 27  2  0  0  0  0
 27 28  1  0  0  0  0
 28 29  2  0  0  0  0
 29 30  1  0  0  0  0
 30 31  1  0  0  0  0
 29 32  1  0  0  0  0
 32 33  2  0  0  0  0
 25 34  1  0  0  0  0
 34 35  1  0  0  0  0
 35 36  1  0  0  0  0
 36 37  1  0  0  0  0
 37 38  1  0  0  0  0
 38 39  1  0  0  0  0
 39 40  2  0  0  0  0
 40 41  1  0  0  0  0
 41 42  1  0  0  0  0
 39 43  1  0  0  0  0
 43 44  1  0  0  0  0
 44 45  1  0  0  0  0
 45 46  1  0  0  0  0
 46 47  1  0  0  0  0
 47 48  1  0  0  0  0
 48 49  2  0  0  0  0
 49 50  1  0  0  0  0
 50 51  2  0  0  0  0
 51 52  1  0  0  0  0
 52 53  1  0  0  0  0
 51 54  1  0  0  0  0
 54 55  2  0  0  0  0
 47 56  2  0  0  0  0
 56 57  1  0  0  0  0
 57 58  1  0  0  0  0
 58 59  1  0  0  0  0
 59 60  1  0  0  0  0
 60 61  1  0  0  0  0
 61 62  1  0  0  0  0
 62 63  1  0  0  0  0
 63 64  1  0  0  0  0
 64 65  1  0  0  0  0
 65 66  1  0  0  0  0
 63 67  1  0  0  0  0
 67 68  1  0  0  0  0
 60 69  1  0  0  0  0
 69 70  1  0  0  0  0
 56 71  1  0  0  0  0
 71 72  2  0  0  0  0
 72 73  1  0  0  0  0
 73 74  2  0  0  0  0
 73 75  1  0  0  0  0
 75 76  1  0  0  0  0
 76 77  1  0  0  0  0
 75 78  1  0  0  0  0
 78 79  2  0  0  0  0
 78 80  1  0  0  0  0
 80 81  1  0  0  0  0
 81 82  3  0  0  0  0
 80 83  1  0  0  0  0
 83 84  1  0  0  0  0
 11  2  1  0  0  0  0
 23 17  1  0  0  0  0
 66 24  1  0  0  0  0
 83 72  1  0  0  0  0
 10  5  1  0  0  0  0
 22 18  1  0  0  0  0
 33 26  1  0  0  0  0
 65 34  2  0  0  0  0
 23  7  1  0  0  0  0
 64 36  2  0  0  0  0
 62 37  2  0  0  0  0
 42 38  2  0  0  0  0
 61 43  2  0  0  0  0
 59 44  2  0  0  0  0
 58 46  2  0  0  0  0
 55 48  1  0  0  0  0
  1 85  1  0  0  0  0
  6 86  1  0  0  0  0
  9 87  1  0  0  0  0
 17 88  1  0  0  0  0
 18 89  1  0  0  0  0
 19 90  1  0  0  0  0
 20 91  1  0  0  0  0
 21 92  1  0  0  0  0
 22 93  1  0  0  0  0
 22 94  1  0  0  0  0
 23 95  1  0  0  0  0
 27 96  1  0  0  0  0
 28 97  1  0  0  0  0
 30 98  1  0  0  0  0
 30 99  1  0  0  0  0
 31100  1  0  0  0  0
 31101  1  0  0  0  0
 31102  1  0  0  0  0
 32103  1  0  0  0  0
 33104  1  0  0  0  0
 49105  1  0  0  0  0
 50106  1  0  0  0  0
 52107  1  0  0  0  0
 52108  1  0  0  0  0
 53109  1  0  0  0  0
 53110  1  0  0  0  0
 53111  1  0  0  0  0
 54112  1  0  0  0  0
 55113  1  0  0  0  0
 67114  1  0  0  0  0
 67115  1  0  0  0  0
 68116  1  0  0  0  0
 68117  1  0  0  0  0
 68118  1  0  0  0  0
 69119  1  0  0  0  0
 69120  1  0  0  0  0
 70121  1  0  0  0  0
 70122  1  0  0  0  0
 70123  1  0  0  0  0
 71124  1  0  0  0  0
 76125  1  0  0  0  0
 76126  1  0  0  0  0
 77127  1  0  0  0  0
 77128  1  0  0  0  0
 77129  1  0  0  0  0
 80130  1  0  0  0  0
 83131  1  0  0  0  0
 84132  1  0  0  0  0
 84133  1  0  0  0  0
 84134  1  0  0  0  0
M  END
