127

C         -4.45030        2.65640       -3.84080
C         -4.13710        3.38480       -4.95370
C         -2.81300        3.99480       -5.21430
O         -1.89010        4.13720       -4.43980
C         -2.79090        4.27760       -6.66260
C         -1.71450        4.77010       -7.39720
C         -1.96010        4.87820       -8.74500
C         -3.18510        4.52070       -9.32430
C         -4.25900        4.04350       -8.61070
C         -4.02890        3.92590       -7.23670
C         -4.90660        3.44260       -6.17640
C         -6.24930        3.18710       -6.28210
C         -7.06830        2.85530       -5.18280
N         -7.78770        2.61410       -4.32060
C         -6.98650        3.27910       -7.47920
N         -7.63600        3.32900       -8.42490
C         -2.71240        4.84890      -10.71890
C         -2.32440        3.65120      -11.61220
C         -1.46890        4.26890      -12.69480
C         -0.31070        4.61330      -12.14650
C         -0.36390        4.23380      -10.68430
C         -1.23500        2.97390      -10.77070
C         -1.34870        5.25290      -10.07220
C         -3.73190        2.66600       -2.62380
C         -3.07290        3.70830       -1.97740
C         -3.22770        5.11390       -2.33120
C         -2.15080        5.99290       -2.24340
C         -2.30560        7.31990       -2.59100
C         -3.53150        7.80910       -3.02450
C         -3.70760        9.26180       -3.35760
C         -4.14210       10.04330       -2.11560
C         -4.60960        6.93280       -3.08920
C         -4.46460        5.60400       -2.74910
C         -2.34270        3.23540       -0.87400
S         -1.26360        4.01200        0.26100
C         -0.94620        2.47360        0.98460
C         -0.11570        1.91210        1.97020
C          0.76420        2.47580        2.92160
C          1.47990        1.60270        3.81250
N          2.22710        2.26900        4.67760
S          2.05240        3.85350        4.39730
N          1.01690        3.75310        3.15750
C          1.39310        0.20360        3.62330
C          2.14750       -0.85920        4.14130
S          3.41790       -1.12910        5.28480
C          3.46110       -2.81160        4.79430
C          4.28110       -3.87940        5.14960
C          5.39140       -3.78660        6.09080
C          5.21900       -3.16310        7.32480
C          6.26240       -3.10540        8.22630
C          7.50460       -3.64790        7.91860
C          8.61120       -3.66600        8.92910
C          8.53950       -4.96080        9.74260
C          7.68470       -4.23100        6.66990
C          6.64640       -4.30110        5.76540
C          3.93140       -5.05470        4.45360
S          2.62110       -4.78100        3.30840
C          2.51930       -3.13160        3.80210
C          1.77140       -2.00990        3.43510
N          0.78870       -1.70890        2.52760
C          0.53590       -0.35350        2.63260
C         -0.32720        0.50830        1.91630
N         -1.32200        0.23270        0.99590
C         -1.66950        1.42250        0.40650
C         -2.47160        1.85840       -0.65130
S         -3.53720        1.12550       -1.79060
C         -2.24600       -0.88060        1.04540
C         -3.63170       -0.44100        1.51530
C          0.55260       -2.60020        1.40790
C          1.08400       -2.02190        0.10050
C          4.50610       -6.29670        4.73780
C          4.31630       -7.52850        4.16060
C          3.42950       -7.83230        3.02370
O          2.70680       -7.06520        2.41240
C          3.60830       -9.26200        2.79260
S          2.98530      -10.42350        1.70070
C          3.95660      -11.64820        2.47170
Cl         3.90210      -13.25640        1.91400
C          4.71580      -11.18240        3.51100
C          4.51210       -9.80320        3.69400
C          4.98510       -8.74660        4.57390
C          5.89950       -8.93400        5.57880
C          6.45810      -10.20340        5.83880
N          6.92920      -11.22380        6.07040
C          6.40380       -7.95340        6.45540
N          6.87380       -7.22480        7.20960
H         -5.25030        1.92670       -3.90770
H         -0.78630        5.02900       -6.91240
H         -5.19540        3.76710       -9.06660
H         -3.28380        5.60790      -11.24960
H         -3.15960        3.03770      -11.93880
H         -1.80380        4.43640      -13.70150
H          0.51520        5.12600      -12.60360
H          0.58710        4.15100      -10.16500
H         -0.74020        2.16790      -11.31020
H         -1.58170        2.60700       -9.80630
H         -1.01130        6.28310      -10.16890
H         -1.18480        5.62350       -1.93790
H         -1.45810        7.98760       -2.53050
H         -4.46490        9.37430       -4.13620
H         -2.76790        9.67330       -3.73110
H         -5.08370        9.65450       -1.73450
H         -3.39330        9.95390       -1.33180
H         -4.27200       11.09600       -2.35500
H         -5.57530        7.29830       -3.40890
H         -5.31870        4.94250       -2.78870
H          4.25420       -2.75200        7.58270
H          6.10930       -2.63710        9.18780
H          9.57690       -3.61180        8.42270
H          8.52490       -2.80810        9.59900
H          8.57010       -5.82200        9.08000
H          9.37270       -5.01990       10.43880
H          7.61020       -5.00100       10.30600
H          8.64870       -4.64030        6.40670
H          6.80950       -4.73400        4.78850
H         -2.31610       -1.34010        0.05400
H         -1.86190       -1.60230        1.76310
H         -3.56020        0.06540        2.47560
H         -4.26690       -1.31520        1.62860
H         -4.09820        0.22940        0.79990
H          1.08190       -3.52790        1.63690
H         -0.50530       -2.84800        1.31020
H          0.55590       -1.11220       -0.17210
H          2.14280       -1.79200        0.19520
H          0.95740       -2.75040       -0.69530
H          5.20920       -6.26250        5.56190
H          5.37000      -11.80420        4.09260
