
  xtb     02022217083D
 energy: -196.317689740744 gnorm: 0.000505612111 xtb: 6.4.1 (unknown)
110124  0     0  0            999 V2000
   -3.5796   -3.3951    3.3098 C   0  0  0  0  0  0  0  0  0  0  0  0
   -3.6565   -3.4514    4.6670 C   0  0  0  0  0  0  0  0  0  0  0  0
   -3.3155   -2.3110    5.5562 C   0  0  0  0  0  0  0  0  0  0  0  0
   -3.1200   -1.1579    5.2385 O   0  0  0  0  0  0  0  0  0  0  0  0
   -3.1148   -2.9024    6.8911 C   0  0  0  0  0  0  0  0  0  0  0  0
   -2.7029   -2.2344    8.0421 C   0  0  0  0  0  0  0  0  0  0  0  0
   -2.5583   -3.0477    9.1397 C   0  0  0  0  0  0  0  0  0  0  0  0
   -2.7924   -4.4293    9.0958 C   0  0  0  0  0  0  0  0  0  0  0  0
   -3.1960   -5.1022    7.9674 C   0  0  0  0  0  0  0  0  0  0  0  0
   -3.3597   -4.2905    6.8411 C   0  0  0  0  0  0  0  0  0  0  0  0
   -3.7571   -4.6441    5.4836 C   0  0  0  0  0  0  0  0  0  0  0  0
   -4.2304   -5.8580    5.0604 C   0  0  0  0  0  0  0  0  0  0  0  0
   -4.3561   -6.9955    5.8836 C   0  0  0  0  0  0  0  0  0  0  0  0
   -4.4794   -7.9521    6.5063 N   0  0  0  0  0  0  0  0  0  0  0  0
   -4.6943   -6.1051    3.7509 C   0  0  0  0  0  0  0  0  0  0  0  0
   -5.1050   -6.3591    2.7092 N   0  0  0  0  0  0  0  0  0  0  0  0
   -2.4433   -4.6146   10.5510 C   0  0  0  0  0  0  0  0  0  0  0  0
   -3.6089   -4.8032   11.5528 C   0  0  0  0  0  0  0  0  0  0  0  0
   -4.8092   -4.1201   10.9457 C   0  0  0  0  0  0  0  0  0  0  0  0
   -4.5945   -2.8119   10.9873 C   0  0  0  0  0  0  0  0  0  0  0  0
   -3.2449   -2.5867   11.6231 C   0  0  0  0  0  0  0  0  0  0  0  0
   -3.2117   -3.7627   12.6122 C   0  0  0  0  0  0  0  0  0  0  0  0
   -2.1884   -3.0750   10.6010 C   0  0  0  0  0  0  0  0  0  0  0  0
   -3.5787   -2.2004    2.5373 C   0  0  0  0  0  0  0  0  0  0  0  0
   -4.4056   -1.0918    2.5919 C   0  0  0  0  0  0  0  0  0  0  0  0
   -5.6175   -0.9600    3.4572 C   0  0  0  0  0  0  0  0  0  0  0  0
   -5.5975    0.3128    4.3024 C   0  0  0  0  0  0  0  0  0  0  0  0
   -4.0497   -0.1521    1.6093 C   0  0  0  0  0  0  0  0  0  0  0  0
   -4.6820    1.4225    1.1800 S   0  0  0  0  0  0  0  0  0  0  0  0
   -3.4416    1.5805   -0.0131 C   0  0  0  0  0  0  0  0  0  0  0  0
   -2.9787    2.5119   -0.9588 C   0  0  0  0  0  0  0  0  0  0  0  0
   -3.5074    3.7511   -1.3957 C   0  0  0  0  0  0  0  0  0  0  0  0
   -2.8198    4.4638   -2.4442 C   0  0  0  0  0  0  0  0  0  0  0  0
   -3.4044    5.5796   -2.8324 N   0  0  0  0  0  0  0  0  0  0  0  0
   -4.8746    5.8082   -1.8862 Se  0  0  0  0  0  2  0  0  0  0  0  0
   -4.6165    4.3239   -0.9717 N   0  0  0  0  0  0  0  0  0  0  0  0
   -1.5666    3.9720   -2.8867 C   0  0  0  0  0  0  0  0  0  0  0  0
   -0.5724    4.5674   -3.6772 C   0  0  0  0  0  0  0  0  0  0  0  0
   -0.3287    5.9948   -4.6196 S   0  0  0  0  0  0  0  0  0  0  0  0
    1.3368    5.5170   -4.8717 C   0  0  0  0  0  0  0  0  0  0  0  0
    2.4038    6.1256   -5.5345 C   0  0  0  0  0  0  0  0  0  0  0  0
    2.2789    7.3770   -6.3348 C   0  0  0  0  0  0  0  0  0  0  0  0
    2.1520    7.0441   -7.8238 C   0  0  0  0  0  0  0  0  0  0  0  0
    3.5684    5.3664   -5.4330 C   0  0  0  0  0  0  0  0  0  0  0  0
    3.3214    3.9076   -4.4715 S   0  0  0  0  0  0  0  0  0  0  0  0
    1.6603    4.3018   -4.2498 C   0  0  0  0  0  0  0  0  0  0  0  0
    0.5625    3.7476   -3.5923 C   0  0  0  0  0  0  0  0  0  0  0  0
    0.2871    2.6502   -2.8225 N   0  0  0  0  0  0  0  0  0  0  0  0
   -1.0172    2.7559   -2.3911 C   0  0  0  0  0  0  0  0  0  0  0  0
   -1.8100    1.9482   -1.5391 C   0  0  0  0  0  0  0  0  0  0  0  0
   -1.6140    0.6804   -1.0200 N   0  0  0  0  0  0  0  0  0  0  0  0
   -2.5951    0.4693   -0.0857 C   0  0  0  0  0  0  0  0  0  0  0  0
   -2.9554   -0.5294    0.8228 C   0  0  0  0  0  0  0  0  0  0  0  0
   -2.3939   -2.1033    1.2366 S   0  0  0  0  0  0  0  0  0  0  0  0
   -1.0019   -0.4639   -1.6623 C   0  0  0  0  0  0  0  0  0  0  0  0
   -2.0404   -1.2848   -2.4266 C   0  0  0  0  0  0  0  0  0  0  0  0
    1.3549    1.7745   -2.3954 C   0  0  0  0  0  0  0  0  0  0  0  0
    1.8103    0.8413   -3.5177 C   0  0  0  0  0  0  0  0  0  0  0  0
    4.8446    5.7295   -5.8992 C   0  0  0  0  0  0  0  0  0  0  0  0
    5.9766    4.9708   -5.9957 C   0  0  0  0  0  0  0  0  0  0  0  0
    7.3055    5.6276   -5.9796 C   0  0  0  0  0  0  0  0  0  0  0  0
    7.5440    6.8024   -6.1417 O   0  0  0  0  0  0  0  0  0  0  0  0
    8.2618    4.5412   -5.6555 C   0  0  0  0  0  0  0  0  0  0  0  0
    9.6142    4.6305   -5.4003 C   0  0  0  0  0  0  0  0  0  0  0  0
   10.2888    3.4550   -5.0884 C   0  0  0  0  0  0  0  0  0  0  0  0
   11.9792    3.5114   -4.7579 Cl  0  0  0  0  0  0  0  0  0  0  0  0
    9.6266    2.2335   -5.0361 C   0  0  0  0  0  0  0  0  0  0  0  0
    8.2687    2.1501   -5.3046 C   0  0  0  0  0  0  0  0  0  0  0  0
    7.5792    3.3112   -5.6164 C   0  0  0  0  0  0  0  0  0  0  0  0
    6.1835    3.5417   -5.9775 C   0  0  0  0  0  0  0  0  0  0  0  0
    5.3213    2.5978   -6.4756 C   0  0  0  0  0  0  0  0  0  0  0  0
    4.1174    2.9396   -7.1262 C   0  0  0  0  0  0  0  0  0  0  0  0
    3.1617    3.1950   -7.7088 N   0  0  0  0  0  0  0  0  0  0  0  0
    5.5729    1.2135   -6.4619 C   0  0  0  0  0  0  0  0  0  0  0  0
    5.7106    0.0736   -6.4386 N   0  0  0  0  0  0  0  0  0  0  0  0
   -3.4248   -4.3131    2.7536 H   0  0  0  0  0  0  0  0  0  0  0  0
   -2.5225   -1.1708    8.0306 H   0  0  0  0  0  0  0  0  0  0  0  0
   -3.3613   -6.1666    7.9429 H   0  0  0  0  0  0  0  0  0  0  0  0
   -1.6052   -5.2768   10.7588 H   0  0  0  0  0  0  0  0  0  0  0  0
   -3.7564   -5.8270   11.8856 H   0  0  0  0  0  0  0  0  0  0  0  0
   -5.6392   -4.6446   10.5098 H   0  0  0  0  0  0  0  0  0  0  0  0
   -5.2096   -2.0242   10.5931 H   0  0  0  0  0  0  0  0  0  0  0  0
   -3.0614   -1.5921   12.0212 H   0  0  0  0  0  0  0  0  0  0  0  0
   -3.9511   -3.6666   13.4057 H   0  0  0  0  0  0  0  0  0  0  0  0
   -2.2278   -3.9379   13.0451 H   0  0  0  0  0  0  0  0  0  0  0  0
   -1.1852   -2.7309   10.8453 H   0  0  0  0  0  0  0  0  0  0  0  0
   -6.4944   -0.9384    2.8018 H   0  0  0  0  0  0  0  0  0  0  0  0
   -5.7003   -1.8345    4.1039 H   0  0  0  0  0  0  0  0  0  0  0  0
   -6.4674    0.3341    4.9541 H   0  0  0  0  0  0  0  0  0  0  0  0
   -4.6991    0.3386    4.9119 H   0  0  0  0  0  0  0  0  0  0  0  0
   -5.6163    1.1956    3.6692 H   0  0  0  0  0  0  0  0  0  0  0  0
    1.3890    7.9158   -6.0040 H   0  0  0  0  0  0  0  0  0  0  0  0
    3.1512    8.0146   -6.1775 H   0  0  0  0  0  0  0  0  0  0  0  0
    2.0603    7.9587   -8.4035 H   0  0  0  0  0  0  0  0  0  0  0  0
    3.0252    6.4948   -8.1673 H   0  0  0  0  0  0  0  0  0  0  0  0
    1.2724    6.4299   -7.9986 H   0  0  0  0  0  0  0  0  0  0  0  0
   -0.2444   -0.1289   -2.3610 H   0  0  0  0  0  0  0  0  0  0  0  0
   -0.5369   -1.0813   -0.8876 H   0  0  0  0  0  0  0  0  0  0  0  0
   -1.5508   -2.1163   -2.9258 H   0  0  0  0  0  0  0  0  0  0  0  0
   -2.7949   -1.6831   -1.7541 H   0  0  0  0  0  0  0  0  0  0  0  0
   -2.5318   -0.6668   -3.1754 H   0  0  0  0  0  0  0  0  0  0  0  0
    1.0332    1.2241   -1.5108 H   0  0  0  0  0  0  0  0  0  0  0  0
    2.2020    2.4057   -2.1034 H   0  0  0  0  0  0  0  0  0  0  0  0
    2.5517    0.1435   -3.1393 H   0  0  0  0  0  0  0  0  0  0  0  0
    2.2605    1.4140   -4.3240 H   0  0  0  0  0  0  0  0  0  0  0  0
    0.9796    0.2785   -3.9376 H   0  0  0  0  0  0  0  0  0  0  0  0
    4.9837    6.7846   -6.1150 H   0  0  0  0  0  0  0  0  0  0  0  0
   10.1228    5.5805   -5.4437 H   0  0  0  0  0  0  0  0  0  0  0  0
   10.1799    1.3423   -4.7844 H   0  0  0  0  0  0  0  0  0  0  0  0
    7.7695    1.1956   -5.2562 H   0  0  0  0  0  0  0  0  0  0  0  0
  1  2  2  0  0  0  0
  2  3  1  0  0  0  0
  3  4  2  0  0  0  0
  3  5  1  0  0  0  0
  5  6  2  0  0  0  0
  6  7  1  0  0  0  0
  7  8  2  0  0  0  0
  8  9  1  0  0  0  0
  9 10  2  0  0  0  0
 10 11  1  0  0  0  0
 11 12  2  0  0  0  0
 12 13  1  0  0  0  0
 13 14  3  0  0  0  0
 12 15  1  0  0  0  0
 15 16  3  0  0  0  0
  8 17  1  0  0  0  0
 17 18  1  0  0  0  0
 18 19  1  0  0  0  0
 19 20  2  0  0  0  0
 20 21  1  0  0  0  0
 21 22  1  0  0  0  0
 21 23  1  0  0  0  0
  1 24  1  0  0  0  0
 24 25  2  0  0  0  0
 25 26  1  0  0  0  0
 26 27  1  0  0  0  0
 25 28  1  0  0  0  0
 28 29  1  0  0  0  0
 29 30  1  0  0  0  0
 30 31  1  0  0  0  0
 31 32  1  0  0  0  0
 32 33  1  0  0  0  0
 33 34  2  0  0  0  0
 34 35  1  0  0  0  0
 35 36  1  0  0  0  0
 33 37  1  0  0  0  0
 37 38  1  0  0  0  0
 38 39  1  0  0  0  0
 39 40  1  0  0  0  0
 40 41  1  0  0  0  0
 41 42  1  0  0  0  0
 42 43  1  0  0  0  0
 41 44  2  0  0  0  0
 44 45  1  0  0  0  0
 45 46  1  0  0  0  0
 46 47  1  0  0  0  0
 47 48  1  0  0  0  0
 48 49  1  0  0  0  0
 49 50  1  0  0  0  0
 50 51  1  0  0  0  0
 51 52  1  0  0  0  0
 52 53  1  0  0  0  0
 53 54  1  0  0  0  0
 51 55  1  0  0  0  0
 55 56  1  0  0  0  0
 48 57  1  0  0  0  0
 57 58  1  0  0  0  0
 44 59  1  0  0  0  0
 59 60  2  0  0  0  0
 60 61  1  0  0  0  0
 61 62  2  0  0  0  0
 61 63  1  0  0  0  0
 63 64  2  0  0  0  0
 64 65  1  0  0  0  0
 65 66  1  0  0  0  0
 65 67  2  0  0  0  0
 67 68  1  0  0  0  0
 68 69  2  0  0  0  0
 69 70  1  0  0  0  0
 70 71  2  0  0  0  0
 71 72  1  0  0  0  0
 72 73  3  0  0  0  0
 71 74  1  0  0  0  0
 74 75  3  0  0  0  0
 11  2  1  0  0  0  0
 23 17  1  0  0  0  0
 54 24  1  0  0  0  0
 70 60  1  0  0  0  0
 10  5  1  0  0  0  0
 22 18  1  0  0  0  0
 53 28  2  0  0  0  0
 69 63  1  0  0  0  0
 23  7  1  0  0  0  0
 52 30  2  0  0  0  0
 50 31  2  0  0  0  0
 36 32  2  0  0  0  0
 49 37  2  0  0  0  0
 47 38  2  0  0  0  0
 46 40  2  0  0  0  0
  1 76  1  0  0  0  0
  6 77  1  0  0  0  0
  9 78  1  0  0  0  0
 17 79  1  0  0  0  0
 18 80  1  0  0  0  0
 19 81  1  0  0  0  0
 20 82  1  0  0  0  0
 21 83  1  0  0  0  0
 22 84  1  0  0  0  0
 22 85  1  0  0  0  0
 23 86  1  0  0  0  0
 26 87  1  0  0  0  0
 26 88  1  0  0  0  0
 27 89  1  0  0  0  0
 27 90  1  0  0  0  0
 27 91  1  0  0  0  0
 42 92  1  0  0  0  0
 42 93  1  0  0  0  0
 43 94  1  0  0  0  0
 43 95  1  0  0  0  0
 43 96  1  0  0  0  0
 55 97  1  0  0  0  0
 55 98  1  0  0  0  0
 56 99  1  0  0  0  0
 56100  1  0  0  0  0
 56101  1  0  0  0  0
 57102  1  0  0  0  0
 57103  1  0  0  0  0
 58104  1  0  0  0  0
 58105  1  0  0  0  0
 58106  1  0  0  0  0
 59107  1  0  0  0  0
 64108  1  0  0  0  0
 67109  1  0  0  0  0
 68110  1  0  0  0  0
M  END
