123

C         -6.27140       -5.01540        0.36530
C         -5.46090       -6.08170        0.66320
C         -4.02770       -6.02670        0.96120
O         -3.28520       -5.06230        0.86960
C         -3.64510       -7.37800        1.40470
C         -2.39320       -7.79130        1.85490
C         -2.34230       -9.11280        2.22890
C         -3.45290       -9.96340        2.15240
C         -4.69130       -9.57030        1.70270
C         -4.76760       -8.22670        1.32430
C         -5.90230       -7.45260        0.82280
C         -7.14200       -7.96220        0.52870
C         -7.50740       -9.31540        0.68450
N         -7.87910      -10.39730        0.78500
C         -8.22840       -7.22970        0.00730
N         -9.15870       -6.70850       -0.42200
C         -2.68960      -11.14210        2.70300
C         -2.95170      -11.50080        4.18100
C         -1.75540      -12.34030        4.56740
C         -0.70410      -11.53420        4.64230
C         -1.17210      -10.13620        4.30750
C         -2.59130      -10.18770        4.88800
C         -1.45140      -10.19320        2.79030
C         -5.97790       -3.65660        0.20760
C         -6.96770       -2.68100        0.00060
C         -8.44080       -2.92710       -0.03460
C         -9.01740       -2.99380        1.38220
C         -6.41260       -1.41360       -0.11180
S         -7.13230        0.17310       -0.31940
C         -5.54550        0.85700       -0.30170
C         -4.93700        2.11720       -0.34050
C         -5.52210        3.40610       -0.32450
C         -4.65500        4.54680       -0.21070
N         -5.27050        5.71050       -0.14030
Se        -7.01090        5.43310       -0.22080
N         -6.81040        3.68500       -0.34840
C         -3.25610        4.33250       -0.24460
C         -2.20970        5.26050       -0.30460
S         -1.98100        6.97310       -0.27240
C         -0.26840        6.71420       -0.55340
C          0.79150        7.59580       -0.71820
C          0.63380        9.07550       -0.58710
C          0.97490        9.53600        0.83280
C          1.99240        6.91150       -0.96980
S          1.76730        5.16160       -0.99580
C          0.08910        5.35880       -0.65420
C         -1.02820        4.53350       -0.49300
N         -1.30950        3.19460       -0.52100
C         -2.66970        3.03550       -0.35040
C         -3.52730        1.90150       -0.27990
N         -3.30810        0.54500       -0.15210
C         -4.52130       -0.08790       -0.16620
C         -5.00910       -1.39180       -0.03610
S         -4.35610       -2.96370        0.23720
C         -2.12220       -0.21610        0.16670
C         -1.63570       -1.04570       -1.02130
C         -0.26720        2.26610       -0.89320
C          0.70150        1.99870        0.25840
C          3.21490        7.56300       -1.17030
C          4.45180        7.06910       -1.50040
C          4.77650        5.67540       -1.81610
O          4.05570        4.69810       -1.69550
C          6.15570        5.67880       -2.33270
C          6.86920        4.59170       -2.83110
C          8.13040        4.90740       -3.27690
C          8.64320        6.21050       -3.23390
C          7.95070        7.29140       -2.74160
C          6.66740        6.99110       -2.27800
C          5.64560        7.86500       -1.70400
C          5.82490        9.18450       -1.37400
C          4.86450       10.01140       -0.75560
N          4.14510       10.74490       -0.24060
C          7.02360        9.90100       -1.57080
N          7.96330       10.54860       -1.69860
C          9.95640        5.80010       -3.85100
C         11.18190        5.66010       -2.91500
C         10.63980        5.33640       -1.54490
C         10.15580        4.10210       -1.58230
C         10.36170        3.56880       -2.97850
C         11.67910        4.27070       -3.34510
C          9.38650        4.34720       -3.89610
H         -7.32390       -5.23840        0.25570
H         -1.56340       -7.10310        1.89430
H         -5.53460      -10.23820        1.65100
H         -2.63280      -12.01550        2.05630
H         -3.93220      -11.92470        4.37940
H         -1.78520      -13.40720        4.68830
H          0.31990      -11.79330        4.83810
H         -0.53110       -9.31720        4.62270
H         -3.21810       -9.34410        4.60450
H         -2.58890      -10.29120        5.97180
H         -0.56710      -10.43490        2.20340
H         -8.67020       -3.85250       -0.56540
H         -8.91080       -2.10030       -0.57080
H         -8.83460       -2.05990        1.90850
H         -8.56190       -3.80460        1.94640
H        -10.08930       -3.16450        1.33630
H          1.26690        9.60310       -1.30180
H         -0.40710        9.32530       -0.80270
H          2.01600        9.32790        1.06630
H          0.34380        9.02580        1.55670
H          0.81360       10.60640        0.92070
H         -2.38330       -0.90240        0.97970
H         -1.35180        0.45660        0.53300
H         -2.34490       -1.83930       -1.23830
H         -1.52410       -0.43840       -1.91730
H         -0.67890       -1.50040       -0.78160
H          0.29580        2.71980       -1.71610
H         -0.71820        1.34980       -1.26340
H          1.27830        2.89300        0.47640
H          1.39190        1.20840       -0.02160
H          0.17700        1.70520        1.16550
H          3.14670        8.63790       -1.06930
H          6.43290        3.60520       -2.85350
H          8.35740        8.28860       -2.72330
H         10.20830        6.27830       -4.79560
H         11.88770        6.48440       -2.96930
H         10.61280        6.03710       -0.73120
H          9.64320        3.56510       -0.80560
H         10.32210        2.48840       -3.09090
H         12.52190        3.92200       -2.75010
H         11.92490        4.20660       -4.40420
H          9.26850        3.87620       -4.87020
