96

C         -2.33310        2.38850       -3.30160
C         -1.57810        3.51940       -3.40650
C         -1.75890        4.44390       -4.55150
O         -2.64080        4.40600       -5.38260
C         -0.61260        5.37410       -4.49250
C         -0.28680        6.37250       -5.40810
C          0.85300        7.07300       -5.09230
C          1.62120        6.79860       -3.95320
C          1.30880        5.82310       -3.03650
C          0.14750        5.10570       -3.33510
C         -0.51970        4.04810       -2.57720
C         -0.34160        3.80140       -1.23720
C         -1.20060        3.00190       -0.45700
N         -1.90000        2.43500        0.25660
C          0.66020        4.39980       -0.44850
N          1.46720        4.84030        0.24000
C          2.62570        7.87800       -4.27080
C          3.97050        7.41940       -4.87300
C          4.52750        8.67320       -5.50780
C          3.79840        8.93850       -6.58410
C          2.73670        7.86810       -6.69540
C          3.50970        6.66980       -6.12970
C          1.76660        8.18820       -5.53850
C         -2.10820        1.23410       -2.51430
C         -3.11780        0.47760       -1.89890
C         -2.46140       -0.46470       -1.11800
C         -1.08010       -0.31860       -1.33670
N         -0.86270        0.73220       -2.16340
C          0.38300        0.94440       -2.86360
C          0.32640        0.35800       -4.27260
C         -0.43280       -1.31330       -0.58530
C          0.91800       -1.71660       -0.51480
C          1.26720       -2.84840        0.29550
N          2.55350       -3.14970        0.22410
S          3.27620       -2.09860       -0.76960
N          1.96710       -1.21470       -1.15180
C          0.27070       -3.44280        1.09820
C          0.35940       -4.42320        2.09750
S          1.54330       -5.46520        2.80880
C          0.33620       -6.01570        3.94730
C          0.39650       -6.93850        5.00800
C          1.64980       -7.68670        5.32860
C          2.58100       -6.84630        6.20500
C         -0.81950       -7.03330        5.65260
S         -2.04720       -5.99960        4.92430
C         -0.91020       -5.41650        3.76390
C         -0.89920       -4.50730        2.69770
N         -1.77080       -3.64940        2.08400
C         -1.07670       -2.98260        1.08640
C         -1.45800       -1.99620        0.13980
N         -2.69080       -1.47720       -0.22270
C         -4.01340       -2.04740       -0.10810
C         -4.06660       -3.47400       -0.65050
C         -3.00920       -3.29640        2.74250
C         -2.97570       -1.86630        3.27480
C         -1.20950       -7.82620        6.77490
C         -0.43880       -8.38040        7.77470
C         -1.18360       -9.08630        8.72310
C         -2.53370       -9.07570        8.46340
C         -3.54440       -9.67220        9.21520
N         -4.36900      -10.17060        9.84030
S         -2.89580       -8.18210        7.01790
H         -3.22460        2.36920       -3.92110
H         -0.90580        6.55480       -6.27260
H          1.90650        5.61970       -2.16320
H          2.74030        8.65360       -3.51610
H          4.62150        6.88940       -4.18290
H          5.33160        9.25050       -5.09040
H          3.87180        9.78190       -7.24540
H          2.26430        7.74680       -7.66650
H          4.34460        6.38080       -6.76610
H          2.88950        5.79910       -5.92460
H          1.30730        9.17100       -5.62720
H         -4.16660        0.68670       -1.97150
H          1.16090        0.43980       -2.28380
H          0.61520        2.00950       -2.92050
H          1.28280        0.49950       -4.76790
H          0.11260       -0.70740       -4.22790
H         -0.44820        0.84620       -4.86120
H          2.16060       -7.91090        4.38930
H          1.40880       -8.62940        5.82100
H          2.08930       -6.56010        7.13240
H          3.48000       -7.40870        6.44410
H          2.86970       -5.93990        5.67880
H         -4.37350       -1.99800        0.92090
H         -4.66820       -1.41070       -0.70700
H         -3.79160       -3.48150       -1.70280
H         -3.37920       -4.12580       -0.11700
H         -5.07350       -3.87130       -0.55280
H         -3.85780       -3.45800        2.07670
H         -3.12330       -3.99030        3.57940
H         -3.91780       -1.63220        3.76310
H         -2.17390       -1.76020        4.00190
H         -2.80480       -1.14850        2.47650
H          0.62450       -8.25470        7.84600
H         -0.75910       -9.58240        9.57780
