
  xtb     02112204233D
 energy: -187.996918043991 gnorm: 0.000411629052 xtb: 6.4.1 (unknown)
107121  0     0  0            999 V2000
   -1.1193    4.2653   -5.2909 C   0  0  0  0  0  0  0  0  0  0  0  0
   -2.4422    4.6059   -5.1792 C   0  0  0  0  0  0  0  0  0  0  0  0
   -3.2926    4.5440   -3.9701 C   0  0  0  0  0  0  0  0  0  0  0  0
   -3.0691    3.9991   -2.9052 O   0  0  0  0  0  0  0  0  0  0  0  0
   -4.4910    5.3444   -4.2799 C   0  0  0  0  0  0  0  0  0  0  0  0
   -5.5488    5.6209   -3.4167 C   0  0  0  0  0  0  0  0  0  0  0  0
   -6.5363    6.3967   -3.9733 C   0  0  0  0  0  0  0  0  0  0  0  0
   -6.4719    6.8731   -5.2897 C   0  0  0  0  0  0  0  0  0  0  0  0
   -5.4324    6.6106   -6.1501 C   0  0  0  0  0  0  0  0  0  0  0  0
   -4.4216    5.8131   -5.6060 C   0  0  0  0  0  0  0  0  0  0  0  0
   -3.1854    5.3176   -6.2037 C   0  0  0  0  0  0  0  0  0  0  0  0
   -2.8382    5.4354   -7.5248 C   0  0  0  0  0  0  0  0  0  0  0  0
   -3.5995    6.1263   -8.4901 C   0  0  0  0  0  0  0  0  0  0  0  0
   -4.1625    6.6752   -9.3269 N   0  0  0  0  0  0  0  0  0  0  0  0
   -1.7045    4.8478   -8.1259 C   0  0  0  0  0  0  0  0  0  0  0  0
   -0.8256    4.3819   -8.7002 N   0  0  0  0  0  0  0  0  0  0  0  0
   -7.7989    7.5817   -5.1820 C   0  0  0  0  0  0  0  0  0  0  0  0
   -9.0265    6.9169   -5.8523 C   0  0  0  0  0  0  0  0  0  0  0  0
   -8.7443    5.4354   -5.8898 C   0  0  0  0  0  0  0  0  0  0  0  0
   -8.8062    4.9800   -4.6457 C   0  0  0  0  0  0  0  0  0  0  0  0
   -9.1314    6.1454   -3.7443 C   0  0  0  0  0  0  0  0  0  0  0  0
  -10.0232    6.9732   -4.6834 C   0  0  0  0  0  0  0  0  0  0  0  0
   -7.8723    7.0472   -3.7169 C   0  0  0  0  0  0  0  0  0  0  0  0
   -0.2986    3.5472   -4.4010 C   0  0  0  0  0  0  0  0  0  0  0  0
    1.6068    3.7297   -4.5918 Se  0  0  0  0  0  2  0  0  0  0  0  0
    1.7183    2.6331   -3.1158 C   0  0  0  0  0  0  0  0  0  0  0  0
    2.6700    2.0779   -2.2494 C   0  0  0  0  0  0  0  0  0  0  0  0
    4.0671    2.2571   -2.1610 C   0  0  0  0  0  0  0  0  0  0  0  0
    4.7838    1.6368   -1.0839 C   0  0  0  0  0  0  0  0  0  0  0  0
    6.0711    1.9441   -1.0945 N   0  0  0  0  0  0  0  0  0  0  0  0
    6.3574    2.9235   -2.3514 S   0  0  0  0  0  0  0  0  0  0  0  0
    4.8467    2.9956   -2.9336 N   0  0  0  0  0  0  0  0  0  0  0  0
    4.0899    0.7524   -0.2253 C   0  0  0  0  0  0  0  0  0  0  0  0
    4.5413   -0.1258    0.7678 C   0  0  0  0  0  0  0  0  0  0  0  0
    6.0206   -0.5412    1.5590 S   0  0  0  0  0  0  0  0  0  0  0  0
    5.1646   -1.8064    2.4191 C   0  0  0  0  0  0  0  0  0  0  0  0
    5.5849   -2.7400    3.3571 C   0  0  0  0  0  0  0  0  0  0  0  0
    7.0050   -2.8487    3.8076 C   0  0  0  0  0  0  0  0  0  0  0  0
    7.7545   -3.9064    2.9928 C   0  0  0  0  0  0  0  0  0  0  0  0
    4.5271   -3.5725    3.7597 C   0  0  0  0  0  0  0  0  0  0  0  0
    3.0143   -3.1593    2.9540 S   0  0  0  0  0  0  0  0  0  0  0  0
    3.7989   -1.8859    2.0962 C   0  0  0  0  0  0  0  0  0  0  0  0
    3.4458   -0.9098    1.1590 C   0  0  0  0  0  0  0  0  0  0  0  0
    2.3285   -0.5216    0.4664 N   0  0  0  0  0  0  0  0  0  0  0  0
    2.6927    0.5117   -0.3744 C   0  0  0  0  0  0  0  0  0  0  0  0
    1.9595    1.2910   -1.3029 C   0  0  0  0  0  0  0  0  0  0  0  0
    0.6059    1.4150   -1.5497 N   0  0  0  0  0  0  0  0  0  0  0  0
    0.4541    2.2160   -2.6570 C   0  0  0  0  0  0  0  0  0  0  0  0
   -0.6439    2.6984   -3.3623 C   0  0  0  0  0  0  0  0  0  0  0  0
   -0.4695    1.2972   -0.5862 C   0  0  0  0  0  0  0  0  0  0  0  0
   -0.9755    2.6658   -0.1287 C   0  0  0  0  0  0  0  0  0  0  0  0
    1.1620   -1.3777    0.4088 C   0  0  0  0  0  0  0  0  0  0  0  0
    0.3325   -1.3311    1.6914 C   0  0  0  0  0  0  0  0  0  0  0  0
    4.6815   -4.5973    4.7000 C   0  0  0  0  0  0  0  0  0  0  0  0
    3.7831   -5.5035    5.2046 C   0  0  0  0  0  0  0  0  0  0  0  0
    2.3685   -5.6220    4.8396 C   0  0  0  0  0  0  0  0  0  0  0  0
    1.7552   -4.9183    4.0508 O   0  0  0  0  0  0  0  0  0  0  0  0
    1.8356   -6.7528    5.6165 C   0  0  0  0  0  0  0  0  0  0  0  0
    2.8510   -7.2803    6.4128 C   0  0  0  0  0  0  0  0  0  0  0  0
    2.5958   -8.3730    7.2519 C   0  0  0  0  0  0  0  0  0  0  0  0
    1.3349   -8.9108    7.2719 C   0  0  0  0  0  0  0  0  0  0  0  0
    0.2874   -8.3992    6.4763 C   0  0  0  0  0  0  0  0  0  0  0  0
   -1.0057   -8.9606    6.5023 C   0  0  0  0  0  0  0  0  0  0  0  0
   -2.0044   -8.4469    5.7221 C   0  0  0  0  0  0  0  0  0  0  0  0
   -1.7579   -7.3495    4.8812 C   0  0  0  0  0  0  0  0  0  0  0  0
   -0.5170   -6.7779    4.8279 C   0  0  0  0  0  0  0  0  0  0  0  0
    0.5326   -7.2865    5.6203 C   0  0  0  0  0  0  0  0  0  0  0  0
    4.0806   -6.5207    6.1920 C   0  0  0  0  0  0  0  0  0  0  0  0
    5.2762   -6.7435    6.8266 C   0  0  0  0  0  0  0  0  0  0  0  0
    6.4634   -6.0070    6.6323 C   0  0  0  0  0  0  0  0  0  0  0  0
    7.4698   -5.4596    6.5380 N   0  0  0  0  0  0  0  0  0  0  0  0
    5.4983   -7.7522    7.7877 C   0  0  0  0  0  0  0  0  0  0  0  0
    5.7599   -8.5463    8.5748 N   0  0  0  0  0  0  0  0  0  0  0  0
   -0.5948    4.6454   -6.1621 H   0  0  0  0  0  0  0  0  0  0  0  0
   -5.5546    5.2388   -2.4077 H   0  0  0  0  0  0  0  0  0  0  0  0
   -5.3939    6.9914   -7.1569 H   0  0  0  0  0  0  0  0  0  0  0  0
   -7.7775    8.6594   -5.3310 H   0  0  0  0  0  0  0  0  0  0  0  0
   -9.3291    7.3715   -6.7916 H   0  0  0  0  0  0  0  0  0  0  0  0
   -8.4799    4.8990   -6.7822 H   0  0  0  0  0  0  0  0  0  0  0  0
   -8.6037    3.9864   -4.2907 H   0  0  0  0  0  0  0  0  0  0  0  0
   -9.5306    5.8976   -2.7641 H   0  0  0  0  0  0  0  0  0  0  0  0
  -10.2127    7.9834   -4.3230 H   0  0  0  0  0  0  0  0  0  0  0  0
  -10.9672    6.4804   -4.9106 H   0  0  0  0  0  0  0  0  0  0  0  0
   -7.9018    7.7759   -2.9089 H   0  0  0  0  0  0  0  0  0  0  0  0
    7.0637   -3.0995    4.8678 H   0  0  0  0  0  0  0  0  0  0  0  0
    7.4845   -1.8792    3.6586 H   0  0  0  0  0  0  0  0  0  0  0  0
    7.2987   -4.8855    3.1203 H   0  0  0  0  0  0  0  0  0  0  0  0
    8.7874   -3.9620    3.3240 H   0  0  0  0  0  0  0  0  0  0  0  0
    7.7389   -3.6505    1.9358 H   0  0  0  0  0  0  0  0  0  0  0  0
   -1.6638    2.4373   -3.1518 H   0  0  0  0  0  0  0  0  0  0  0  0
   -0.0935    0.7676    0.2827 H   0  0  0  0  0  0  0  0  0  0  0  0
   -1.2900    0.7274   -1.0337 H   0  0  0  0  0  0  0  0  0  0  0  0
   -1.4662    3.2038   -0.9341 H   0  0  0  0  0  0  0  0  0  0  0  0
   -0.1469    3.2673    0.2399 H   0  0  0  0  0  0  0  0  0  0  0  0
   -1.6912    2.5294    0.6778 H   0  0  0  0  0  0  0  0  0  0  0  0
    0.5698   -1.1014   -0.4642 H   0  0  0  0  0  0  0  0  0  0  0  0
    1.5115   -2.4062    0.2631 H   0  0  0  0  0  0  0  0  0  0  0  0
    0.1025   -0.3105    1.9891 H   0  0  0  0  0  0  0  0  0  0  0  0
    0.8704   -1.8061    2.5064 H   0  0  0  0  0  0  0  0  0  0  0  0
   -0.5986   -1.8694    1.5397 H   0  0  0  0  0  0  0  0  0  0  0  0
    5.6906   -4.6731    5.0807 H   0  0  0  0  0  0  0  0  0  0  0  0
    3.3713   -8.7898    7.8724 H   0  0  0  0  0  0  0  0  0  0  0  0
    1.1247   -9.7541    7.9138 H   0  0  0  0  0  0  0  0  0  0  0  0
   -1.1918   -9.8047    7.1504 H   0  0  0  0  0  0  0  0  0  0  0  0
   -2.9921   -8.8831    5.7473 H   0  0  0  0  0  0  0  0  0  0  0  0
   -2.5612   -6.9594    4.2738 H   0  0  0  0  0  0  0  0  0  0  0  0
   -0.3169   -5.9351    4.1854 H   0  0  0  0  0  0  0  0  0  0  0  0
  1  2  2  0  0  0  0
  2  3  1  0  0  0  0
  3  4  2  0  0  0  0
  3  5  1  0  0  0  0
  5  6  2  0  0  0  0
  6  7  1  0  0  0  0
  7  8  2  0  0  0  0
  8  9  1  0  0  0  0
  9 10  2  0  0  0  0
 10 11  1  0  0  0  0
 11 12  2  0  0  0  0
 12 13  1  0  0  0  0
 13 14  3  0  0  0  0
 12 15  1  0  0  0  0
 15 16  3  0  0  0  0
  8 17  1  0  0  0  0
 17 18  1  0  0  0  0
 18 19  1  0  0  0  0
 19 20  2  0  0  0  0
 20 21  1  0  0  0  0
 21 22  1  0  0  0  0
 21 23  1  0  0  0  0
  1 24  1  0  0  0  0
 24 25  1  0  0  0  0
 25 26  1  0  0  0  0
 26 27  1  0  0  0  0
 27 28  1  0  0  0  0
 28 29  1  0  0  0  0
 29 30  2  0  0  0  0
 30 31  1  0  0  0  0
 31 32  1  0  0  0  0
 29 33  1  0  0  0  0
 33 34  1  0  0  0  0
 34 35  1  0  0  0  0
 35 36  1  0  0  0  0
 36 37  1  0  0  0  0
 37 38  1  0  0  0  0
 38 39  1  0  0  0  0
 37 40  2  0  0  0  0
 40 41  1  0  0  0  0
 41 42  1  0  0  0  0
 42 43  1  0  0  0  0
 43 44  1  0  0  0  0
 44 45  1  0  0  0  0
 45 46  1  0  0  0  0
 46 47  1  0  0  0  0
 47 48  1  0  0  0  0
 48 49  1  0  0  0  0
 47 50  1  0  0  0  0
 50 51  1  0  0  0  0
 44 52  1  0  0  0  0
 52 53  1  0  0  0  0
 40 54  1  0  0  0  0
 54 55  2  0  0  0  0
 55 56  1  0  0  0  0
 56 57  2  0  0  0  0
 56 58  1  0  0  0  0
 58 59  2  0  0  0  0
 59 60  1  0  0  0  0
 60 61  2  0  0  0  0
 61 62  1  0  0  0  0
 62 63  2  0  0  0  0
 63 64  1  0  0  0  0
 64 65  2  0  0  0  0
 65 66  1  0  0  0  0
 66 67  2  0  0  0  0
 59 68  1  0  0  0  0
 68 69  2  0  0  0  0
 69 70  1  0  0  0  0
 70 71  3  0  0  0  0
 69 72  1  0  0  0  0
 72 73  3  0  0  0  0
 11  2  1  0  0  0  0
 23 17  1  0  0  0  0
 49 24  2  0  0  0  0
 68 55  1  0  0  0  0
 10  5  1  0  0  0  0
 22 18  1  0  0  0  0
 48 26  2  0  0  0  0
 67 58  1  0  0  0  0
 23  7  1  0  0  0  0
 46 27  2  0  0  0  0
 67 62  1  0  0  0  0
 32 28  2  0  0  0  0
 45 33  2  0  0  0  0
 43 34  2  0  0  0  0
 42 36  2  0  0  0  0
  1 74  1  0  0  0  0
  6 75  1  0  0  0  0
  9 76  1  0  0  0  0
 17 77  1  0  0  0  0
 18 78  1  0  0  0  0
 19 79  1  0  0  0  0
 20 80  1  0  0  0  0
 21 81  1  0  0  0  0
 22 82  1  0  0  0  0
 22 83  1  0  0  0  0
 23 84  1  0  0  0  0
 38 85  1  0  0  0  0
 38 86  1  0  0  0  0
 39 87  1  0  0  0  0
 39 88  1  0  0  0  0
 39 89  1  0  0  0  0
 49 90  1  0  0  0  0
 50 91  1  0  0  0  0
 50 92  1  0  0  0  0
 51 93  1  0  0  0  0
 51 94  1  0  0  0  0
 51 95  1  0  0  0  0
 52 96  1  0  0  0  0
 52 97  1  0  0  0  0
 53 98  1  0  0  0  0
 53 99  1  0  0  0  0
 53100  1  0  0  0  0
 54101  1  0  0  0  0
 60102  1  0  0  0  0
 61103  1  0  0  0  0
 63104  1  0  0  0  0
 64105  1  0  0  0  0
 65106  1  0  0  0  0
 66107  1  0  0  0  0
M  END
