139

C         -3.87420        6.17460        1.84390
C         -3.90720        7.40430        1.25440
C         -3.18070        7.78580        0.02400
O         -2.33070        7.14600       -0.56280
C         -3.78500        9.05490       -0.41980
C         -3.46600        9.77180       -1.57060
C         -4.21590       10.90960       -1.74730
C         -5.22070       11.30170       -0.85190
C         -5.54940       10.60170        0.28430
C         -4.79040        9.44560        0.48820
C         -4.84910        8.46420        1.56520
C         -5.58800        8.56720        2.71430
C         -6.47730        9.62420        2.99920
N         -7.22000       10.45000        3.28960
C         -5.52710        7.65260        3.78730
N         -5.50490        6.96270        4.70520
C         -5.56560       12.53140       -1.65380
C         -5.05490       13.89760       -1.13340
C         -3.81340       13.61110       -0.32560
C         -2.85840       13.24150       -1.16850
C         -3.43650       13.27190       -2.56170
C         -4.41960       14.44510       -2.42160
C         -4.44260       12.09720       -2.64790
C         -2.93150        5.13290        1.66520
C         -1.55140        5.10870        1.51530
C         -0.60470        6.25970        1.58670
C         -0.79190        7.11820        2.83600
C         -1.08790        3.79010        1.38730
S          0.51530        3.13860        1.13560
C         -0.16360        1.55150        1.07470
C          0.25910        0.22300        0.88640
C          1.55480       -0.34750        0.80310
C          1.66720       -1.76080        0.68570
N          2.86290       -2.33060        0.55270
C          3.94170       -1.56790        0.59820
C          5.20700       -2.24300        0.28680
C          6.20450       -1.61700       -0.45910
C          7.37600       -2.28520       -0.75370
C          7.55340       -3.59110       -0.31240
C          8.84720       -4.29840       -0.59630
F          8.71510       -5.63270       -0.64620
F          9.77320       -4.05120        0.35380
F          9.40160       -3.92620       -1.76010
C          6.55700       -4.23400        0.41120
C          5.38670       -3.56180        0.70080
C          3.83160       -0.18160        0.89200
C          4.97530        0.68330        1.20500
C          4.94910        2.01260        0.78640
C          5.99960        2.85930        1.07750
C          7.08100        2.38170        1.80720
C          8.24580        3.28510        2.09320
F          8.86450        2.99140        3.24680
F          7.89870        4.57930        2.16510
F          9.19030        3.20610        1.13250
C          7.10760        1.06540        2.25220
C          6.05550        0.22210        1.95570
N          2.64660        0.40250        0.93610
C          0.47860       -2.52800        0.58760
C          0.27900       -3.89550        0.32890
S          1.21030       -5.33740        0.14930
C         -0.25530       -6.21860       -0.21870
C         -0.49890       -7.56040       -0.54490
C          0.56250       -8.61100       -0.48190
C          1.71580       -8.33600       -1.44670
C         -1.85480       -7.78130       -0.75350
S         -2.82350       -6.32900       -0.48570
C         -1.40120       -5.41160       -0.17640
C         -1.09430       -4.08410        0.13190
N         -1.76140       -2.89190        0.28620
C         -0.81190       -1.93700        0.59110
C         -0.91950       -0.56760        0.90210
N         -2.01290        0.23160        1.17070
C         -1.55160        1.52350        1.25710
C         -2.07910        2.80430        1.44710
S         -3.62620        3.50470        1.72300
C         -3.22310       -0.17230        1.85950
C         -3.16180        0.18760        3.34350
C         -3.02800       -2.67480       -0.38430
C         -2.89030       -2.85510       -1.89580
C         -2.57300       -8.96890       -1.02810
C         -2.19330       -9.96900       -1.87830
C         -1.23700       -9.78420       -2.99660
O         -0.60690       -8.78700       -3.27410
C         -1.33310      -11.01900       -3.80110
C         -0.65160      -11.34500       -4.95860
C         -0.91690      -12.56440       -5.56100
C         -1.86010      -13.40770       -4.99180
F         -2.11130      -14.58060       -5.59360
C         -2.56100      -13.10050       -3.83340
C         -2.28490      -11.88380       -3.23210
C         -2.82450      -11.26250       -2.02370
C         -3.70350      -11.83960       -1.14550
C         -4.28100      -13.11390       -1.32490
N         -4.78750      -14.13910       -1.42200
C         -4.12650      -11.24770        0.06360
N         -4.49090      -10.83340        1.07050
H         -4.71320        5.90440        2.47690
H         -2.69110        9.43040       -2.23920
H         -6.33170       10.90840        0.95850
H         -6.58570       12.58450       -2.02860
H         -5.81250       14.50770       -0.64930
H         -3.77530       13.65060        0.74730
H         -1.86210       12.91020       -0.94060
H         -2.72030       13.31330       -3.37820
H         -3.91730       15.39930       -2.27060
H         -5.12070       14.52540       -3.25120
H         -4.72820       11.87070       -3.67340
H         -0.73220        6.87410        0.69170
H          0.41050        5.85620        1.57330
H         -0.04490        7.90760        2.85310
H         -0.67600        6.51410        3.73340
H         -1.77670        7.57700        2.85730
H          6.05860       -0.61110       -0.82190
H          8.14920       -1.80240       -1.33110
H          6.69890       -5.25330        0.73590
H          4.59550       -4.04700        1.25010
H          4.09400        2.36710        0.23300
H          5.98230        3.88730        0.74950
H          7.94420        0.71040        2.83380
H          6.06690       -0.79340        2.32110
H          0.12790       -9.58890       -0.69050
H          0.95280       -8.62410        0.54130
H          2.43890       -9.14580       -1.39340
H          2.21680       -7.40580       -1.19260
H          1.34080       -8.26510       -2.46340
H         -3.33300       -1.25220        1.77490
H         -4.07950        0.32440        1.39220
H         -3.12250        1.26350        3.48570
H         -4.04780       -0.19220        3.84410
H         -2.28230       -0.25930        3.80230
H         -3.36880       -1.66030       -0.19050
H         -3.75670       -3.38880        0.01190
H         -2.14170       -2.17040       -2.28870
H         -3.84250       -2.64340       -2.37370
H         -2.59850       -3.87120       -2.14530
H         -3.54160       -9.04220       -0.54640
H          0.07130      -10.65970       -5.37280
H         -0.40950      -12.87090       -6.46180
H         -3.28580      -13.79840       -3.44820
