110

C         -5.46730        1.83430        4.98400
C         -5.05110        3.11180        5.26440
C         -3.78000        3.71860        4.86220
O         -2.85960        3.18790        4.26070
C         -3.82020        5.11520        5.32350
C         -2.83880        6.08620        5.14140
C         -3.16610        7.31530        5.66120
C         -4.37940        7.55870        6.31810
C         -5.35210        6.60630        6.51160
C         -5.04180        5.34900        5.98650
C         -5.81940        4.11000        5.98210
C         -7.05260        3.94940        6.56220
C         -7.81080        2.76050        6.57770
N         -8.49320        1.83740        6.63990
C         -7.75380        4.96480        7.24570
N         -8.38800        5.73450        7.81500
C         -4.04890        9.00990        6.56010
C         -4.72520       10.06360        5.64820
C         -5.03530        9.36920        4.34530
C         -3.88570        9.13940        3.72510
C         -2.77710        9.67400        4.59780
C         -3.48980       10.87860        5.23290
C         -2.69600        8.73830        5.82960
C         -4.85230        0.80830        4.25750
C         -5.46560       -0.43350        4.01800
C         -6.78280       -0.87810        4.56440
C         -6.63050       -1.39490        5.99760
C         -4.66820       -1.24630        3.22310
C         -3.44400       -0.66440        2.85290
S         -3.26670        0.92550        3.49360
C         -2.71300       -1.51560        2.01950
C         -3.39450       -2.70860        1.73960
S         -4.92110       -2.84320        2.54170
C         -2.63030       -3.40670        0.79480
C         -2.92000       -4.54520        0.00750
N         -3.96600       -5.35200        0.08100
S         -3.87990       -6.41950       -1.13290
N         -2.50370       -5.89270       -1.80220
C         -2.05810       -4.86590       -1.09670
C         -0.86630       -4.12670       -1.27410
C          0.18160       -4.23290       -2.20270
S          0.57640       -5.11380       -3.63840
C          2.09050       -4.24220       -3.72940
C          3.13920       -4.25830       -4.64050
C          4.14620       -3.37120       -4.30070
S          3.77700       -2.51570       -2.79670
C          2.26910       -3.33240       -2.67040
C          1.16970       -3.31970       -1.81140
N          0.76610       -2.63700       -0.69120
C          1.76450       -2.08920        0.20330
C          2.69230       -3.18300        0.73190
C         -0.50120       -3.09090       -0.36990
C         -1.45710       -2.63050        0.56800
N         -1.53850       -1.47590        1.31690
C         -0.79610       -0.24010        1.20060
C          0.00090        0.07590        2.46640
C          5.38660       -3.06190       -4.89250
C          5.86950       -3.32920       -6.14290
C          5.12390       -3.82590       -7.32430
O          4.02270       -4.33880       -7.34960
C          5.99150       -3.54460       -8.48430
C          7.21190       -3.03520       -8.04480
C          8.20840       -2.68100       -8.96430
C          7.95780       -2.84210      -10.30180
C          6.73150       -3.35340      -10.77940
C          6.48230       -3.51020      -12.15800
C          5.28440       -4.00130      -12.59900
C          4.28150       -4.35860      -11.68360
C          4.48600       -4.22240      -10.33830
C          5.71090       -3.71930       -9.85380
C          7.20090       -2.96050       -6.58870
C          8.27970       -2.68010       -5.79180
C          8.27940       -2.72210       -4.38090
N          8.36870       -2.75570       -3.23620
C          9.56610       -2.35800       -6.27310
N         10.63500       -2.08410       -6.59040
H         -6.44400        1.56210        5.35950
H         -1.91850        5.85450        4.62820
H         -6.27850        6.81260        7.02070
H         -4.01300        9.32470        7.60110
H         -5.54740       10.60090        6.11280
H         -6.02360        9.07460        4.04440
H         -3.72150        8.61410        2.80240
H         -1.82510        9.85740        4.10650
H         -2.94960       11.30770        6.07570
H         -3.72340       11.65860        4.50990
H         -1.77570        8.87420        6.39440
H         -7.15900       -1.68470        3.93200
H         -7.51000       -0.06480        4.54950
H         -6.26140       -0.60950        6.65290
H         -7.59360       -1.72950        6.37190
H         -5.93370       -2.22930        6.02690
H          3.17760       -4.87680       -5.51680
H          1.27140       -1.61890        1.04660
H          2.34630       -1.34150       -0.34470
H          3.39970       -2.75040        1.43390
H          3.25130       -3.64760       -0.07530
H          2.11570       -3.95090        1.24360
H         -0.15670       -0.29460        0.31900
H         -1.51900        0.56730        1.03950
H          0.59290       -0.77650        2.79350
H         -0.67260        0.34780        3.27400
H          0.66490        0.91500        2.28050
H          6.03230       -2.47750       -4.24590
H          9.15170       -2.28040       -8.63200
H          8.71370       -2.56910      -11.02400
H          7.25610       -3.23350      -12.85960
H          5.10100       -4.11640      -13.65710
H          3.34220       -4.74300      -12.05240
H          3.72150       -4.49350       -9.62790
