
  xtb     02022221313D
 energy: -184.998871721220 gnorm: 0.000220066765 xtb: 6.4.1 (unknown)
 98113  0     0  0            999 V2000
   -3.3324    0.8591    6.3266 C   0  0  0  0  0  0  0  0  0  0  0  0
   -3.0762    2.1954    6.3422 C   0  0  0  0  0  0  0  0  0  0  0  0
   -3.9737    3.1253    7.0796 C   0  0  0  0  0  0  0  0  0  0  0  0
   -4.8006    2.8266    7.9111 O   0  0  0  0  0  0  0  0  0  0  0  0
   -3.6792    4.4645    6.5303 C   0  0  0  0  0  0  0  0  0  0  0  0
   -4.3429    5.6574    6.8081 C   0  0  0  0  0  0  0  0  0  0  0  0
   -3.8507    6.7449    6.1268 C   0  0  0  0  0  0  0  0  0  0  0  0
   -2.7869    6.6558    5.2182 C   0  0  0  0  0  0  0  0  0  0  0  0
   -2.1190    5.4883    4.9362 C   0  0  0  0  0  0  0  0  0  0  0  0
   -2.5925    4.3755    5.6343 C   0  0  0  0  0  0  0  0  0  0  0  0
   -2.1002    3.0014    5.6418 C   0  0  0  0  0  0  0  0  0  0  0  0
   -0.8200    2.6177    5.3270 C   0  0  0  0  0  0  0  0  0  0  0  0
   -0.3010    1.3473    5.6539 C   0  0  0  0  0  0  0  0  0  0  0  0
    0.1628    0.3365    5.9408 N   0  0  0  0  0  0  0  0  0  0  0  0
    0.1406    3.4668    4.7445 C   0  0  0  0  0  0  0  0  0  0  0  0
    0.9555    4.1078    4.2509 N   0  0  0  0  0  0  0  0  0  0  0  0
   -2.8249    8.1301    4.9053 C   0  0  0  0  0  0  0  0  0  0  0  0
   -1.7348    9.0249    5.5449 C   0  0  0  0  0  0  0  0  0  0  0  0
   -1.3015    8.3306    6.8125 C   0  0  0  0  0  0  0  0  0  0  0  0
   -2.3000    8.4155    7.6814 C   0  0  0  0  0  0  0  0  0  0  0  0
   -3.4263    9.1686    7.0173 C   0  0  0  0  0  0  0  0  0  0  0  0
   -2.6213   10.1343    6.1329 C   0  0  0  0  0  0  0  0  0  0  0  0
   -4.0022    8.2320    5.9257 C   0  0  0  0  0  0  0  0  0  0  0  0
   -2.9043   -0.1158    5.3955 C   0  0  0  0  0  0  0  0  0  0  0  0
   -2.9567   -1.4822    5.5937 C   0  0  0  0  0  0  0  0  0  0  0  0
   -2.5313   -2.2472    4.5096 C   0  0  0  0  0  0  0  0  0  0  0  0
   -2.3747   -3.9794    4.3241 S   0  0  0  0  0  0  0  0  0  0  0  0
   -1.8103   -3.7341    2.7108 C   0  0  0  0  0  0  0  0  0  0  0  0
   -1.3932   -4.4853    1.6034 C   0  0  0  0  0  0  0  0  0  0  0  0
   -1.3632   -5.8819    1.3950 C   0  0  0  0  0  0  0  0  0  0  0  0
   -0.9921   -6.3803    0.1038 C   0  0  0  0  0  0  0  0  0  0  0  0
   -1.0573   -7.7004    0.0331 N   0  0  0  0  0  0  0  0  0  0  0  0
   -1.5387   -8.2676    1.4705 S   0  0  0  0  0  0  0  0  0  0  0  0
   -1.6859   -6.8502    2.2379 N   0  0  0  0  0  0  0  0  0  0  0  0
   -0.5719   -5.4643   -0.8858 C   0  0  0  0  0  0  0  0  0  0  0  0
   -0.0685   -5.6765   -2.1752 C   0  0  0  0  0  0  0  0  0  0  0  0
    0.3064   -4.4254   -2.6794 C   0  0  0  0  0  0  0  0  0  0  0  0
    0.0279   -3.4487   -1.7598 N   0  0  0  0  0  0  0  0  0  0  0  0
    0.6376   -2.1465   -1.9079 C   0  0  0  0  0  0  0  0  0  0  0  0
    1.7576   -1.9329   -0.8933 C   0  0  0  0  0  0  0  0  0  0  0  0
   -0.5260   -4.0578   -0.6466 C   0  0  0  0  0  0  0  0  0  0  0  0
   -1.0415   -3.5588    0.5784 C   0  0  0  0  0  0  0  0  0  0  0  0
   -1.2792   -2.2786    1.0543 N   0  0  0  0  0  0  0  0  0  0  0  0
   -1.7455   -2.3866    2.3369 C   0  0  0  0  0  0  0  0  0  0  0  0
   -2.1630   -1.5294    3.3592 C   0  0  0  0  0  0  0  0  0  0  0  0
   -2.3366    0.3046    3.6311 Se  0  0  0  0  0  2  0  0  0  0  0  0
   -1.4419   -1.0324    0.3424 C   0  0  0  0  0  0  0  0  0  0  0  0
   -2.5375   -1.1298   -0.7159 C   0  0  0  0  0  0  0  0  0  0  0  0
    0.8550   -4.4917   -3.9634 C   0  0  0  0  0  0  0  0  0  0  0  0
    0.8755   -5.8258   -4.4204 C   0  0  0  0  0  0  0  0  0  0  0  0
    0.2333   -6.9815   -3.2668 S   0  0  0  0  0  0  0  0  0  0  0  0
    1.3862   -6.0145   -5.6911 C   0  0  0  0  0  0  0  0  0  0  0  0
    1.8063   -4.8525   -6.3416 C   0  0  0  0  0  0  0  0  0  0  0  0
    1.5477   -3.3229   -5.2449 Se  0  0  0  0  0  2  0  0  0  0  0  0
    2.3300   -4.9019   -7.6415 C   0  0  0  0  0  0  0  0  0  0  0  0
    2.7825   -3.8985   -8.4600 C   0  0  0  0  0  0  0  0  0  0  0  0
    2.8254   -2.4731   -8.1258 C   0  0  0  0  0  0  0  0  0  0  0  0
    2.4797   -1.9483   -7.0746 O   0  0  0  0  0  0  0  0  0  0  0  0
    3.3676   -1.8011   -9.3065 C   0  0  0  0  0  0  0  0  0  0  0  0
    3.6351   -2.7576  -10.2799 C   0  0  0  0  0  0  0  0  0  0  0  0
    4.2823   -2.1047  -11.7390 S   0  0  0  0  0  0  0  0  0  0  0  0
    4.1998   -0.5131  -11.0496 C   0  0  0  0  0  0  0  0  0  0  0  0
    4.5324    0.7715  -11.5179 C   0  0  0  0  0  0  0  0  0  0  0  0
    4.2741    1.7157  -10.5744 C   0  0  0  0  0  0  0  0  0  0  0  0
    3.6248    1.0831   -9.1000 S   0  0  0  0  0  0  0  0  0  0  0  0
    3.6904   -0.5114   -9.7440 C   0  0  0  0  0  0  0  0  0  0  0  0
    3.2939   -4.0737   -9.8122 C   0  0  0  0  0  0  0  0  0  0  0  0
    3.4424   -5.2244  -10.5462 C   0  0  0  0  0  0  0  0  0  0  0  0
    3.1161   -6.5248  -10.1192 C   0  0  0  0  0  0  0  0  0  0  0  0
    2.8714   -7.6103   -9.8338 N   0  0  0  0  0  0  0  0  0  0  0  0
    3.9619   -5.1799  -11.8567 C   0  0  0  0  0  0  0  0  0  0  0  0
    4.3823   -5.1516  -12.9242 N   0  0  0  0  0  0  0  0  0  0  0  0
   -4.0268    0.5104    7.0858 H   0  0  0  0  0  0  0  0  0  0  0  0
   -5.1634    5.6859    7.5079 H   0  0  0  0  0  0  0  0  0  0  0  0
   -1.3057    5.4247    4.2317 H   0  0  0  0  0  0  0  0  0  0  0  0
   -3.0248    8.3937    3.8686 H   0  0  0  0  0  0  0  0  0  0  0  0
   -0.9407    9.3238    4.8662 H   0  0  0  0  0  0  0  0  0  0  0  0
   -0.3654    7.8152    6.9223 H   0  0  0  0  0  0  0  0  0  0  0  0
   -2.3647    7.9852    8.6636 H   0  0  0  0  0  0  0  0  0  0  0  0
   -4.1717    9.6000    7.6801 H   0  0  0  0  0  0  0  0  0  0  0  0
   -2.0555   10.8625    6.7118 H   0  0  0  0  0  0  0  0  0  0  0  0
   -3.2269   10.6473    5.3870 H   0  0  0  0  0  0  0  0  0  0  0  0
   -4.9695    8.5696    5.5584 H   0  0  0  0  0  0  0  0  0  0  0  0
   -3.2623   -1.9120    6.5319 H   0  0  0  0  0  0  0  0  0  0  0  0
   -0.1139   -1.3588   -1.8546 H   0  0  0  0  0  0  0  0  0  0  0  0
    1.0601   -2.1134   -2.9194 H   0  0  0  0  0  0  0  0  0  0  0  0
    2.1896   -0.9442   -1.0213 H   0  0  0  0  0  0  0  0  0  0  0  0
    2.5398   -2.6732   -1.0440 H   0  0  0  0  0  0  0  0  0  0  0  0
    1.3925   -2.0293    0.1268 H   0  0  0  0  0  0  0  0  0  0  0  0
   -1.7302   -0.2824    1.0890 H   0  0  0  0  0  0  0  0  0  0  0  0
   -0.4941   -0.7033   -0.0836 H   0  0  0  0  0  0  0  0  0  0  0  0
   -2.3234   -1.9194   -1.4324 H   0  0  0  0  0  0  0  0  0  0  0  0
   -3.4916   -1.3517   -0.2432 H   0  0  0  0  0  0  0  0  0  0  0  0
   -2.6259   -0.1861   -1.2472 H   0  0  0  0  0  0  0  0  0  0  0  0
    1.4574   -6.9821   -6.1588 H   0  0  0  0  0  0  0  0  0  0  0  0
    2.3684   -5.9072   -8.0473 H   0  0  0  0  0  0  0  0  0  0  0  0
    4.9362    0.9785  -12.4911 H   0  0  0  0  0  0  0  0  0  0  0  0
    4.4282    2.7737  -10.6537 H   0  0  0  0  0  0  0  0  0  0  0  0
  1  2  2  0  0  0  0
  2  3  1  0  0  0  0
  3  4  2  0  0  0  0
  3  5  1  0  0  0  0
  5  6  2  0  0  0  0
  6  7  1  0  0  0  0
  7  8  2  0  0  0  0
  8  9  1  0  0  0  0
  9 10  2  0  0  0  0
 10 11  1  0  0  0  0
 11 12  2  0  0  0  0
 12 13  1  0  0  0  0
 13 14  3  0  0  0  0
 12 15  1  0  0  0  0
 15 16  3  0  0  0  0
  8 17  1  0  0  0  0
 17 18  1  0  0  0  0
 18 19  1  0  0  0  0
 19 20  2  0  0  0  0
 20 21  1  0  0  0  0
 21 22  1  0  0  0  0
 21 23  1  0  0  0  0
  1 24  1  0  0  0  0
 24 25  2  0  0  0  0
 25 26  1  0  0  0  0
 26 27  1  0  0  0  0
 27 28  1  0  0  0  0
 28 29  1  0  0  0  0
 29 30  1  0  0  0  0
 30 31  1  0  0  0  0
 31 32  2  0  0  0  0
 32 33  1  0  0  0  0
 33 34  1  0  0  0  0
 31 35  1  0  0  0  0
 35 36  1  0  0  0  0
 36 37  2  0  0  0  0
 37 38  1  0  0  0  0
 38 39  1  0  0  0  0
 39 40  1  0  0  0  0
 38 41  1  0  0  0  0
 41 42  1  0  0  0  0
 42 43  1  0  0  0  0
 43 44  1  0  0  0  0
 44 45  1  0  0  0  0
 45 46  1  0  0  0  0
 43 47  1  0  0  0  0
 47 48  1  0  0  0  0
 37 49  1  0  0  0  0
 49 50  2  0  0  0  0
 50 51  1  0  0  0  0
 50 52  1  0  0  0  0
 52 53  2  0  0  0  0
 53 54  1  0  0  0  0
 53 55  1  0  0  0  0
 55 56  2  0  0  0  0
 56 57  1  0  0  0  0
 57 58  2  0  0  0  0
 57 59  1  0  0  0  0
 59 60  2  0  0  0  0
 60 61  1  0  0  0  0
 61 62  1  0  0  0  0
 62 63  1  0  0  0  0
 63 64  2  0  0  0  0
 64 65  1  0  0  0  0
 65 66  1  0  0  0  0
 60 67  1  0  0  0  0
 67 68  2  0  0  0  0
 68 69  1  0  0  0  0
 69 70  3  0  0  0  0
 68 71  1  0  0  0  0
 71 72  3  0  0  0  0
 11  2  1  0  0  0  0
 23 17  1  0  0  0  0
 46 24  1  0  0  0  0
 54 49  1  0  0  0  0
 67 56  1  0  0  0  0
 10  5  1  0  0  0  0
 22 18  1  0  0  0  0
 45 26  2  0  0  0  0
 66 59  1  0  0  0  0
 23  7  1  0  0  0  0
 44 28  2  0  0  0  0
 66 62  2  0  0  0  0
 42 29  2  0  0  0  0
 34 30  2  0  0  0  0
 41 35  2  0  0  0  0
 51 36  1  0  0  0  0
  1 73  1  0  0  0  0
  6 74  1  0  0  0  0
  9 75  1  0  0  0  0
 17 76  1  0  0  0  0
 18 77  1  0  0  0  0
 19 78  1  0  0  0  0
 20 79  1  0  0  0  0
 21 80  1  0  0  0  0
 22 81  1  0  0  0  0
 22 82  1  0  0  0  0
 23 83  1  0  0  0  0
 25 84  1  0  0  0  0
 39 85  1  0  0  0  0
 39 86  1  0  0  0  0
 40 87  1  0  0  0  0
 40 88  1  0  0  0  0
 40 89  1  0  0  0  0
 47 90  1  0  0  0  0
 47 91  1  0  0  0  0
 48 92  1  0  0  0  0
 48 93  1  0  0  0  0
 48 94  1  0  0  0  0
 52 95  1  0  0  0  0
 55 96  1  0  0  0  0
 63 97  1  0  0  0  0
 64 98  1  0  0  0  0
M  END
