
  xtb     02022202043D
 energy: -188.855622381396 gnorm: 0.000720717817 xtb: 6.4.1 (unknown)
107120  0     0  0            999 V2000
    3.8214    1.8225    4.1424 C   0  0  0  0  0  0  0  0  0  0  0  0
    4.9843    1.1322    3.9994 C   0  0  0  0  0  0  0  0  0  0  0  0
    6.2698    1.8008    4.3473 C   0  0  0  0  0  0  0  0  0  0  0  0
    6.3979    2.8762    4.8876 O   0  0  0  0  0  0  0  0  0  0  0  0
    7.3297    0.9032    3.8523 C   0  0  0  0  0  0  0  0  0  0  0  0
    8.7025    1.1428    3.8427 C   0  0  0  0  0  0  0  0  0  0  0  0
    9.4449    0.1236    3.2964 C   0  0  0  0  0  0  0  0  0  0  0  0
    8.8669   -1.0480    2.7887 C   0  0  0  0  0  0  0  0  0  0  0  0
    7.5160   -1.3016    2.7986 C   0  0  0  0  0  0  0  0  0  0  0  0
    6.7431   -0.2805    3.3590 C   0  0  0  0  0  0  0  0  0  0  0  0
    5.2971   -0.2096    3.5658 C   0  0  0  0  0  0  0  0  0  0  0  0
    4.4562   -1.2919    3.5862 C   0  0  0  0  0  0  0  0  0  0  0  0
    3.0929   -1.2617    3.9345 C   0  0  0  0  0  0  0  0  0  0  0  0
    1.9781   -1.3478    4.1979 N   0  0  0  0  0  0  0  0  0  0  0  0
    4.8542   -2.6102    3.2810 C   0  0  0  0  0  0  0  0  0  0  0  0
    5.1041   -3.7019    3.0278 N   0  0  0  0  0  0  0  0  0  0  0  0
   10.1995   -1.6259    2.3829 C   0  0  0  0  0  0  0  0  0  0  0  0
   10.5566   -1.5568    0.8830 C   0  0  0  0  0  0  0  0  0  0  0  0
   12.0570   -1.7395    0.8601 C   0  0  0  0  0  0  0  0  0  0  0  0
   12.6056   -0.6326    1.3441 C   0  0  0  0  0  0  0  0  0  0  0  0
   11.4853    0.3171    1.7020 C   0  0  0  0  0  0  0  0  0  0  0  0
   10.4704   -0.0493    0.6114 C   0  0  0  0  0  0  0  0  0  0  0  0
   10.8447   -0.3219    2.9525 C   0  0  0  0  0  0  0  0  0  0  0  0
    2.5288    1.5819    3.6123 C   0  0  0  0  0  0  0  0  0  0  0  0
    1.1830    2.0733    4.6409 S   0  0  0  0  0  0  0  0  0  0  0  0
    0.0846    1.5822    3.4323 C   0  0  0  0  0  0  0  0  0  0  0  0
   -1.3034    1.5388    3.2124 C   0  0  0  0  0  0  0  0  0  0  0  0
   -2.4273    1.7586    4.0415 C   0  0  0  0  0  0  0  0  0  0  0  0
   -3.7431    1.4737    3.5290 C   0  0  0  0  0  0  0  0  0  0  0  0
   -4.6861    1.6507    4.4404 N   0  0  0  0  0  0  0  0  0  0  0  0
   -3.9894    2.1393    5.8168 S   0  0  0  0  0  0  0  0  0  0  0  0
   -2.4551    2.1450    5.3067 N   0  0  0  0  0  0  0  0  0  0  0  0
   -3.8927    1.1282    2.1655 C   0  0  0  0  0  0  0  0  0  0  0  0
   -5.0085    0.9336    1.3371 C   0  0  0  0  0  0  0  0  0  0  0  0
   -6.7306    0.8420    1.4643 S   0  0  0  0  0  0  0  0  0  0  0  0
   -6.8171    0.6054   -0.2718 C   0  0  0  0  0  0  0  0  0  0  0  0
   -7.8843    0.4224   -1.1380 C   0  0  0  0  0  0  0  0  0  0  0  0
   -9.3003    0.3400   -0.6706 C   0  0  0  0  0  0  0  0  0  0  0  0
   -9.7179   -1.1184   -0.4610 C   0  0  0  0  0  0  0  0  0  0  0  0
   -7.4446    0.2674   -2.4670 C   0  0  0  0  0  0  0  0  0  0  0  0
   -5.6860    0.3647   -2.6032 S   0  0  0  0  0  0  0  0  0  0  0  0
   -5.5593    0.6040   -0.9021 C   0  0  0  0  0  0  0  0  0  0  0  0
   -4.5319    0.7869    0.0243 C   0  0  0  0  0  0  0  0  0  0  0  0
   -3.1612    0.8590    0.0129 N   0  0  0  0  0  0  0  0  0  0  0  0
   -2.7540    1.0332    1.3187 C   0  0  0  0  0  0  0  0  0  0  0  0
   -1.4647    1.0808    1.8847 C   0  0  0  0  0  0  0  0  0  0  0  0
   -0.2277    0.7808    1.3265 N   0  0  0  0  0  0  0  0  0  0  0  0
    0.7257    1.1028    2.2804 C   0  0  0  0  0  0  0  0  0  0  0  0
    2.1308    1.1096    2.3642 C   0  0  0  0  0  0  0  0  0  0  0  0
    3.0682    0.9440    1.1996 C   0  0  0  0  0  0  0  0  0  0  0  0
    3.3668   -0.4994    0.7510 C   0  0  0  0  0  0  0  0  0  0  0  0
   -0.0518   -0.4001    0.4968 C   0  0  0  0  0  0  0  0  0  0  0  0
   -0.0930   -1.6696    1.3480 C   0  0  0  0  0  0  0  0  0  0  0  0
   -2.4498    1.2838   -1.1756 C   0  0  0  0  0  0  0  0  0  0  0  0
   -2.9317    2.6558   -1.6455 C   0  0  0  0  0  0  0  0  0  0  0  0
   -8.3212    0.0580   -3.5332 C   0  0  0  0  0  0  0  0  0  0  0  0
   -8.0860   -0.1287   -4.8759 C   0  0  0  0  0  0  0  0  0  0  0  0
   -6.7772   -0.1431   -5.5324 C   0  0  0  0  0  0  0  0  0  0  0  0
   -5.6820    0.0150   -5.0191 O   0  0  0  0  0  0  0  0  0  0  0  0
   -7.0401   -0.3837   -6.9627 C   0  0  0  0  0  0  0  0  0  0  0  0
   -6.1416   -0.4898   -8.0064 C   0  0  0  0  0  0  0  0  0  0  0  0
   -6.6320   -0.7204   -9.2819 C   0  0  0  0  0  0  0  0  0  0  0  0
   -8.0020   -0.8388   -9.4835 C   0  0  0  0  0  0  0  0  0  0  0  0
   -8.5937   -1.1258  -11.0758 Cl  0  0  0  0  0  0  0  0  0  0  0  0
   -8.9174   -0.7332   -8.4400 C   0  0  0  0  0  0  0  0  0  0  0  0
   -8.4257   -0.5027   -7.1671 C   0  0  0  0  0  0  0  0  0  0  0  0
   -9.1065   -0.3446   -5.8794 C   0  0  0  0  0  0  0  0  0  0  0  0
  -10.4651   -0.3950   -5.6978 C   0  0  0  0  0  0  0  0  0  0  0  0
  -11.1413   -0.2448   -4.4696 C   0  0  0  0  0  0  0  0  0  0  0  0
  -11.7689   -0.1360   -3.5131 N   0  0  0  0  0  0  0  0  0  0  0  0
  -11.3973   -0.6053   -6.7358 C   0  0  0  0  0  0  0  0  0  0  0  0
  -12.2134   -0.7701   -7.5263 N   0  0  0  0  0  0  0  0  0  0  0  0
    3.9097    2.7216    4.7476 H   0  0  0  0  0  0  0  0  0  0  0  0
    9.1077    2.0584    4.2439 H   0  0  0  0  0  0  0  0  0  0  0  0
    7.0841   -2.2061    2.4029 H   0  0  0  0  0  0  0  0  0  0  0  0
   10.4598   -2.5791    2.8387 H   0  0  0  0  0  0  0  0  0  0  0  0
    9.9737   -2.2159    0.2454 H   0  0  0  0  0  0  0  0  0  0  0  0
   12.5461   -2.6465    0.5569 H   0  0  0  0  0  0  0  0  0  0  0  0
   13.6447   -0.4302    1.5260 H   0  0  0  0  0  0  0  0  0  0  0  0
   11.7485    1.3658    1.8099 H   0  0  0  0  0  0  0  0  0  0  0  0
   10.8252    0.2103   -0.3846 H   0  0  0  0  0  0  0  0  0  0  0  0
    9.4798    0.3744    0.7670 H   0  0  0  0  0  0  0  0  0  0  0  0
   11.5353   -0.4057    3.7893 H   0  0  0  0  0  0  0  0  0  0  0  0
   -9.9790    0.8122   -1.3821 H   0  0  0  0  0  0  0  0  0  0  0  0
   -9.3767    0.8718    0.2799 H   0  0  0  0  0  0  0  0  0  0  0  0
   -9.0745   -1.5938    0.2757 H   0  0  0  0  0  0  0  0  0  0  0  0
  -10.7442   -1.1594   -0.1080 H   0  0  0  0  0  0  0  0  0  0  0  0
   -9.6519   -1.6759   -1.3923 H   0  0  0  0  0  0  0  0  0  0  0  0
    4.0058    1.4440    1.4493 H   0  0  0  0  0  0  0  0  0  0  0  0
    2.6249    1.4922    0.3634 H   0  0  0  0  0  0  0  0  0  0  0  0
    3.2170   -0.6085   -0.3207 H   0  0  0  0  0  0  0  0  0  0  0  0
    4.4002   -0.7640    0.9566 H   0  0  0  0  0  0  0  0  0  0  0  0
    2.7290   -1.2174    1.2580 H   0  0  0  0  0  0  0  0  0  0  0  0
    0.9020   -0.3127   -0.0218 H   0  0  0  0  0  0  0  0  0  0  0  0
   -0.8507   -0.4532   -0.2407 H   0  0  0  0  0  0  0  0  0  0  0  0
    0.6129   -1.6113    2.1743 H   0  0  0  0  0  0  0  0  0  0  0  0
   -1.0878   -1.8053    1.7671 H   0  0  0  0  0  0  0  0  0  0  0  0
    0.1486   -2.5349    0.7367 H   0  0  0  0  0  0  0  0  0  0  0  0
   -2.6137    0.5450   -1.9662 H   0  0  0  0  0  0  0  0  0  0  0  0
   -1.3874    1.3522   -0.9463 H   0  0  0  0  0  0  0  0  0  0  0  0
   -2.8165    3.3883   -0.8492 H   0  0  0  0  0  0  0  0  0  0  0  0
   -3.9755    2.6207   -1.9432 H   0  0  0  0  0  0  0  0  0  0  0  0
   -2.3421    2.9727   -2.5009 H   0  0  0  0  0  0  0  0  0  0  0  0
   -9.3596    0.0380   -3.2324 H   0  0  0  0  0  0  0  0  0  0  0  0
   -5.0829   -0.3936   -7.8220 H   0  0  0  0  0  0  0  0  0  0  0  0
   -5.9611   -0.8089  -10.1213 H   0  0  0  0  0  0  0  0  0  0  0  0
   -9.9708   -0.8318   -8.6421 H   0  0  0  0  0  0  0  0  0  0  0  0
  1  2  2  0  0  0  0
  2  3  1  0  0  0  0
  3  4  2  0  0  0  0
  3  5  1  0  0  0  0
  5  6  2  0  0  0  0
  6  7  1  0  0  0  0
  7  8  2  0  0  0  0
  8  9  1  0  0  0  0
  9 10  2  0  0  0  0
 10 11  1  0  0  0  0
 11 12  2  0  0  0  0
 12 13  1  0  0  0  0
 13 14  3  0  0  0  0
 12 15  1  0  0  0  0
 15 16  3  0  0  0  0
  8 17  1  0  0  0  0
 17 18  1  0  0  0  0
 18 19  1  0  0  0  0
 19 20  2  0  0  0  0
 20 21  1  0  0  0  0
 21 22  1  0  0  0  0
 21 23  1  0  0  0  0
  1 24  1  0  0  0  0
 24 25  1  0  0  0  0
 25 26  1  0  0  0  0
 26 27  1  0  0  0  0
 27 28  1  0  0  0  0
 28 29  1  0  0  0  0
 29 30  2  0  0  0  0
 30 31  1  0  0  0  0
 31 32  1  0  0  0  0
 29 33  1  0  0  0  0
 33 34  1  0  0  0  0
 34 35  1  0  0  0  0
 35 36  1  0  0  0  0
 36 37  1  0  0  0  0
 37 38  1  0  0  0  0
 38 39  1  0  0  0  0
 37 40  2  0  0  0  0
 40 41  1  0  0  0  0
 41 42  1  0  0  0  0
 42 43  1  0  0  0  0
 43 44  1  0  0  0  0
 44 45  1  0  0  0  0
 45 46  1  0  0  0  0
 46 47  1  0  0  0  0
 47 48  1  0  0  0  0
 48 49  1  0  0  0  0
 49 50  1  0  0  0  0
 50 51  1  0  0  0  0
 47 52  1  0  0  0  0
 52 53  1  0  0  0  0
 44 54  1  0  0  0  0
 54 55  1  0  0  0  0
 40 56  1  0  0  0  0
 56 57  2  0  0  0  0
 57 58  1  0  0  0  0
 58 59  2  0  0  0  0
 58 60  1  0  0  0  0
 60 61  2  0  0  0  0
 61 62  1  0  0  0  0
 62 63  2  0  0  0  0
 63 64  1  0  0  0  0
 63 65  1  0  0  0  0
 65 66  2  0  0  0  0
 66 67  1  0  0  0  0
 67 68  2  0  0  0  0
 68 69  1  0  0  0  0
 69 70  3  0  0  0  0
 68 71  1  0  0  0  0
 71 72  3  0  0  0  0
 11  2  1  0  0  0  0
 23 17  1  0  0  0  0
 49 24  2  0  0  0  0
 67 57  1  0  0  0  0
 10  5  1  0  0  0  0
 22 18  1  0  0  0  0
 48 26  2  0  0  0  0
 66 60  1  0  0  0  0
 23  7  1  0  0  0  0
 46 27  2  0  0  0  0
 32 28  2  0  0  0  0
 45 33  2  0  0  0  0
 43 34  2  0  0  0  0
 42 36  2  0  0  0  0
  1 73  1  0  0  0  0
  6 74  1  0  0  0  0
  9 75  1  0  0  0  0
 17 76  1  0  0  0  0
 18 77  1  0  0  0  0
 19 78  1  0  0  0  0
 20 79  1  0  0  0  0
 21 80  1  0  0  0  0
 22 81  1  0  0  0  0
 22 82  1  0  0  0  0
 23 83  1  0  0  0  0
 38 84  1  0  0  0  0
 38 85  1  0  0  0  0
 39 86  1  0  0  0  0
 39 87  1  0  0  0  0
 39 88  1  0  0  0  0
 50 89  1  0  0  0  0
 50 90  1  0  0  0  0
 51 91  1  0  0  0  0
 51 92  1  0  0  0  0
 51 93  1  0  0  0  0
 52 94  1  0  0  0  0
 52 95  1  0  0  0  0
 53 96  1  0  0  0  0
 53 97  1  0  0  0  0
 53 98  1  0  0  0  0
 54 99  1  0  0  0  0
 54100  1  0  0  0  0
 55101  1  0  0  0  0
 55102  1  0  0  0  0
 55103  1  0  0  0  0
 56104  1  0  0  0  0
 61105  1  0  0  0  0
 62106  1  0  0  0  0
 65107  1  0  0  0  0
M  END
