130

C          6.13900        3.11150        0.01420
C          6.78450        2.50830       -1.03680
C          6.17950        1.60690       -2.02030
O          5.00290        1.29680       -2.11990
C          7.27490        1.13170       -2.88020
C          7.18260        0.21870       -3.92860
C          8.38450       -0.06020       -4.53330
C          9.59010        0.52280       -4.12190
C          9.69400        1.42600       -3.09060
C          8.48150        1.72910       -2.46400
C          8.19750        2.62030       -1.33890
C          9.12110        3.41980       -0.71500
C         10.48370        3.49400       -1.07320
N         11.60140        3.61750       -1.30630
C          8.87420        4.30700        0.35330
N          8.78320        5.05870        1.21800
C         10.39550       -0.21660       -5.16120
C         10.82970        0.59130       -6.40210
C         11.15780       -0.46970       -7.42760
C         10.01530       -1.01920       -7.81930
C          8.89570       -0.33890       -7.06500
C          9.47890        1.07490       -6.94560
C          9.05040       -0.86460       -5.62210
C          4.81100        3.00640        0.44570
C          4.34620        3.64460        1.61330
C          5.09960        4.64010        2.36890
C          5.72020        5.71000        1.72480
C          6.43080        6.64370        2.45000
C          6.54720        6.53670        3.83050
C          7.30510        7.56750        4.61300
C          6.39050        8.73770        4.98210
C          5.90540        5.48400        4.47220
C          5.18500        4.54930        3.75680
C          3.06390        3.21650        1.95190
S          1.99300        3.59220        3.28870
C          0.81740        2.51610        2.61410
C         -0.47110        2.03320        2.89630
C         -1.43060        2.35130        3.88530
C         -2.73330        1.74050        3.82460
N         -3.54220        2.18620        4.77210
S         -2.74050        3.26900        5.66880
N         -1.32820        3.21600        4.88160
C         -2.98000        0.73360        2.86250
C         -4.05850       -0.14030        2.64430
S         -5.63640       -0.46060        3.27470
C         -5.77240       -1.82370        2.18580
C         -6.78360       -2.76380        1.95870
C         -8.04550       -2.77490        2.69670
C         -9.27360       -2.81710        2.04050
C        -10.44930       -2.80350        2.76440
C        -10.43420       -2.74970        4.15320
C        -11.71260       -2.79470        4.93680
C        -12.07940       -4.24290        5.26930
C         -9.20620       -2.69710        4.80200
C         -8.02530       -2.70060        4.08770
C         -6.40460       -3.69550        0.98630
S         -4.83080       -3.31100        0.28610
C         -4.64430       -1.98760        1.36930
C         -3.66370       -1.03560        1.63870
N         -2.38830       -0.74890        1.21790
C         -1.96910        0.35360        1.93950
C         -0.78140        1.10950        1.86100
N          0.24870        1.08150        0.94290
C          1.22850        1.91950        1.41330
C          2.51380        2.31170        1.03100
S          3.59350        1.94740       -0.26350
C          0.13570        0.80700       -0.47620
C          0.04110        2.10170       -1.28280
C         -1.54920       -1.81620        0.70340
C         -1.40910       -2.95280        1.71590
C         -7.14980       -4.80810        0.56510
C         -6.76990       -5.86300       -0.21920
C         -7.80680       -6.62050       -0.96260
O         -9.00420       -6.58380       -0.78780
C         -7.06390       -7.36930       -2.00100
C         -7.55570       -8.13330       -3.04200
C         -6.65380       -8.71600       -3.91930
C         -5.29530       -8.51540       -3.72620
F         -4.43770       -9.07450       -4.59640
C         -4.77510       -7.76330       -2.68140
C         -5.68180       -7.18580       -1.81090
C         -5.48060       -6.37950       -0.60600
C         -4.34290       -6.38410        0.16080
C         -3.11980       -6.95200       -0.24280
N         -2.08720       -7.36120       -0.53430
C         -4.29920       -5.88780        1.48020
N         -4.22920       -5.54620        2.57440
H          6.74450        3.74040        0.65560
H          6.23370       -0.21410       -4.20440
H         10.63190        1.85700       -2.78360
H         11.18150       -0.86460       -4.77840
H         11.59200        1.34180       -6.21240
H         12.15760       -0.74070       -7.71160
H          9.87030       -1.84100       -8.49570
H          7.89630       -0.43570       -7.48080
H          8.93320        1.72410       -6.26340
H          9.57590        1.56320       -7.91380
H          8.94060       -1.94500       -5.54890
H          5.62230        5.81920        0.65410
H          6.91290        7.46130        1.93570
H          7.70390        7.12070        5.52560
H          8.14190        7.93640        4.01760
H          5.99290        9.20580        4.08440
H          5.55440        8.38960        5.58460
H          6.94030        9.48520        5.54920
H          5.97830        5.39040        5.54620
H          4.70720        3.72620        4.26710
H         -9.30780       -2.82630        0.96070
H        -11.39480       -2.83080        2.24230
H        -12.51990       -2.34300        4.35720
H        -11.59860       -2.23040        5.86440
H        -12.20580       -4.82060        4.35640
H        -11.29320       -4.70650        5.86070
H        -13.00730       -4.27900        5.83490
H         -9.17530       -2.64910        5.88090
H         -7.07840       -2.66910        4.60500
H         -0.76770        0.22650       -0.65440
H          1.01370        0.23770       -0.79640
H         -0.10960        1.86240       -2.33160
H         -0.79800        2.70160       -0.93590
H          0.95230        2.68530       -1.19220
H         -0.55700       -1.42400        0.49230
H         -1.99870       -2.19220       -0.22110
H         -0.97650       -2.57930        2.64150
H         -0.75500       -3.71900        1.30930
H         -2.36840       -3.40990        1.94240
H         -8.20130       -4.79930        0.83100
H         -8.61940       -8.26750       -3.16100
H         -6.98540       -9.31950       -4.74930
H         -3.70850       -7.64220       -2.58480
