101

C         -0.96100       -0.62810        4.83120
C         -2.05930       -1.09020        5.49160
C         -3.20270       -1.75700        4.81980
O         -3.26850       -2.12990        3.66820
C         -4.30200       -1.73490        5.80260
C         -5.60570       -2.18540        5.60330
C         -6.43100       -2.00850        6.68760
C         -5.99670       -1.41840        7.88260
C         -4.71700       -0.96240        8.09100
C         -3.85890       -1.13770        7.00060
C         -2.45660       -0.76830        6.84610
C         -1.62710       -0.28780        7.82570
C         -0.25000       -0.04230        7.64140
N          0.87930        0.15080        7.56330
C         -2.02820       -0.01530        9.14910
N         -2.29550        0.22910       10.23870
C         -7.34990       -1.55350        8.53460
C         -7.51220       -2.69680        9.55870
C         -9.00930       -2.88190        9.65770
C         -9.42260       -3.43910        8.52660
C         -8.21180       -3.64070        7.64420
C         -7.14990       -3.92530        8.71410
C         -7.83440       -2.21100        7.20240
C         -0.51050       -1.07300        3.56030
C         -0.35470       -2.35610        3.06010
C         -0.58510       -3.62220        3.82040
C         -1.55810       -4.56020        3.10670
C          0.20970       -2.32750        1.77470
C          0.46840       -1.04170        1.28490
S          0.08200        0.16380        2.45160
C          0.99990       -1.06980       -0.00680
C          1.16250       -2.37740       -0.48180
S          0.66120       -3.58660        0.64710
C          1.66450       -2.28240       -1.79170
C          1.88710       -3.23570       -2.81250
N          1.74300       -4.54980       -2.75490
S          2.02070       -5.16570       -4.22520
N          2.33890       -3.77950       -4.99660
C          2.24370       -2.78230       -4.13220
C          2.50580       -1.40860       -4.34370
C          2.96690       -0.67470       -5.44850
S          3.32320       -0.91740       -7.12490
C          3.75930        0.77490       -7.24860
C          4.18140        1.57570       -8.29280
C          4.38600        2.90160       -7.90720
S          4.05170        3.14250       -6.19630
C          3.63910        1.47660       -6.03280
C          3.18510        0.64080       -5.01140
N          2.86330        0.75340       -3.68070
C          3.49830        1.75870       -2.85080
C          5.02120        1.66850       -2.93920
C          2.40730       -0.48250       -3.26980
C          1.83350       -0.89680       -2.04980
N          1.39760       -0.16500       -0.96010
C          0.80410        1.15770       -0.99280
C         -0.71870        1.07770       -1.09780
C          4.78820        3.88940       -8.81880
C          5.00710        5.22900       -8.64000
C          4.87950        5.97740       -7.37370
O          4.57780        5.53350       -6.28030
C          5.19560        7.37120       -7.70760
C          5.27460        8.61310       -7.05600
C          5.63050        9.59860       -7.92900
S          5.87620        9.04550       -9.54670
C          5.49460        7.44800       -9.06010
C          5.39730        6.15820       -9.69040
C          5.63200        5.92360      -11.02200
C          6.00040        6.98020      -11.88110
N          6.29840        7.83610      -12.58500
C          5.54250        4.67990      -11.67380
N          5.48610        3.69710      -12.26610
H         -0.39960        0.19340        5.26230
H         -5.90220       -2.62560        4.66410
H         -4.39970       -0.49470        9.00820
H         -7.81550       -0.62420        8.85720
H         -6.97340       -2.55230       10.49100
H         -9.60120       -2.54820       10.48960
H        -10.42890       -3.66370        8.22490
H         -8.31150       -4.35690        6.83300
H         -7.33840       -4.85810        9.24300
H         -6.12840       -3.92010        8.33830
H         -8.62210       -1.71860        6.63510
H          0.38080       -4.12650        3.92790
H         -0.95860       -3.38850        4.81800
H         -2.50710       -4.05710        2.94570
H         -1.15780       -4.86930        2.14490
H         -1.72630       -5.44610        3.71390
H          4.33460        1.23780       -9.30170
H          3.20630        1.59730       -1.81450
H          3.16850        2.74890       -3.18070
H          5.46440        2.38640       -2.25500
H          5.35610        0.67030       -2.66500
H          5.36850        1.89280       -3.94340
H          1.08740        1.68750       -0.07790
H          1.17830        1.69850       -1.85920
H         -1.14810        0.59190       -0.22630
H         -1.00440        0.51760       -1.98570
H         -1.12970        2.08070       -1.17020
H          4.93150        3.50470       -9.82190
H          5.08040        8.76790       -6.01100
H          5.76700       10.64120       -7.71820
