
  xtb     02112202583D
 energy: -244.740966930303 gnorm: 0.000551072758 xtb: 6.4.1 (unknown)
147162  0     0  0            999 V2000
    1.2138    3.7598    3.7261 C   0  0  0  0  0  0  0  0  0  0  0  0
    1.6730    5.0338    3.9132 C   0  0  0  0  0  0  0  0  0  0  0  0
    2.0691    6.0373    2.8955 C   0  0  0  0  0  0  0  0  0  0  0  0
    2.1979    5.8945    1.6969 O   0  0  0  0  0  0  0  0  0  0  0  0
    2.2670    7.3000    3.6298 C   0  0  0  0  0  0  0  0  0  0  0  0
    2.5996    8.5354    3.0781 C   0  0  0  0  0  0  0  0  0  0  0  0
    2.7132    9.5476    3.9998 C   0  0  0  0  0  0  0  0  0  0  0  0
    2.5133    9.3451    5.3725 C   0  0  0  0  0  0  0  0  0  0  0  0
    2.1890    8.1314    5.9294 C   0  0  0  0  0  0  0  0  0  0  0  0
    2.0662    7.0871    5.0074 C   0  0  0  0  0  0  0  0  0  0  0  0
    1.7471    5.6780    5.2165 C   0  0  0  0  0  0  0  0  0  0  0  0
    1.6133    5.0760    6.4412 C   0  0  0  0  0  0  0  0  0  0  0  0
    1.7099    5.7504    7.6772 C   0  0  0  0  0  0  0  0  0  0  0  0
    1.7653    6.2253    8.7211 N   0  0  0  0  0  0  0  0  0  0  0  0
    1.3990    3.7012    6.6796 C   0  0  0  0  0  0  0  0  0  0  0  0
    1.2483    2.6022    6.9794 N   0  0  0  0  0  0  0  0  0  0  0  0
    2.7789   10.7916    5.7057 C   0  0  0  0  0  0  0  0  0  0  0  0
    1.5609   11.6966    6.0155 C   0  0  0  0  0  0  0  0  0  0  0  0
    0.3839   11.0945    5.2889 C   0  0  0  0  0  0  0  0  0  0  0  0
    0.5696   11.2852    3.9896 C   0  0  0  0  0  0  0  0  0  0  0  0
    1.8754   12.0203    3.8140 C   0  0  0  0  0  0  0  0  0  0  0  0
    1.8749   12.8810    5.0875 C   0  0  0  0  0  0  0  0  0  0  0  0
    2.9992   11.0177    4.1766 C   0  0  0  0  0  0  0  0  0  0  0  0
    1.1111    2.9598    2.5692 C   0  0  0  0  0  0  0  0  0  0  0  0
    1.5111    3.1358    1.2556 C   0  0  0  0  0  0  0  0  0  0  0  0
    1.2050    2.0391    0.4487 C   0  0  0  0  0  0  0  0  0  0  0  0
    1.5274    1.9434   -0.8519 O   0  0  0  0  0  0  0  0  0  0  0  0
    0.6919    1.0591   -1.6269 C   0  0  0  0  0  0  0  0  0  0  0  0
   -0.6452    1.7631   -1.8443 C   0  0  0  0  0  0  0  0  0  0  0  0
   -1.8656    1.1096   -1.7535 C   0  0  0  0  0  0  0  0  0  0  0  0
   -3.0436    1.8064   -1.9542 C   0  0  0  0  0  0  0  0  0  0  0  0
   -3.0330    3.1636   -2.2460 C   0  0  0  0  0  0  0  0  0  0  0  0
   -4.3177    3.9234   -2.4078 C   0  0  0  0  0  0  0  0  0  0  0  0
   -4.7979    4.4489   -1.0532 C   0  0  0  0  0  0  0  0  0  0  0  0
   -1.8070    3.8107   -2.3363 C   0  0  0  0  0  0  0  0  0  0  0  0
   -0.6269    3.1201   -2.1425 C   0  0  0  0  0  0  0  0  0  0  0  0
    1.4148    0.8275   -2.9412 C   0  0  0  0  0  0  0  0  0  0  0  0
    0.7155    0.6830   -4.1317 C   0  0  0  0  0  0  0  0  0  0  0  0
    1.3905    0.4023   -5.3049 C   0  0  0  0  0  0  0  0  0  0  0  0
    2.7721    0.2620   -5.3191 C   0  0  0  0  0  0  0  0  0  0  0  0
    3.5022   -0.0066   -6.6029 C   0  0  0  0  0  0  0  0  0  0  0  0
    3.8612    1.3076   -7.2994 C   0  0  0  0  0  0  0  0  0  0  0  0
    3.4648    0.4189   -4.1258 C   0  0  0  0  0  0  0  0  0  0  0  0
    2.7959    0.6906   -2.9475 C   0  0  0  0  0  0  0  0  0  0  0  0
    0.4751   -0.2618   -0.9106 C   0  0  0  0  0  0  0  0  0  0  0  0
    0.3280   -0.2475    0.4912 C   0  0  0  0  0  0  0  0  0  0  0  0
    0.5835    0.9989    1.1381 C   0  0  0  0  0  0  0  0  0  0  0  0
    0.3549    1.3892    2.7942 S   0  0  0  0  0  0  0  0  0  0  0  0
    0.0260   -1.4237    1.1813 C   0  0  0  0  0  0  0  0  0  0  0  0
   -0.1283   -2.6124    0.5017 C   0  0  0  0  0  0  0  0  0  0  0  0
    0.0280   -2.6272   -0.8979 C   0  0  0  0  0  0  0  0  0  0  0  0
    0.3299   -1.4496   -1.5886 C   0  0  0  0  0  0  0  0  0  0  0  0
   -0.2084   -3.8668   -1.5619 C   0  0  0  0  0  0  0  0  0  0  0  0
    0.0287   -4.2078   -3.2269 S   0  0  0  0  0  0  0  0  0  0  0  0
   -0.6942   -5.7905   -3.0279 C   0  0  0  0  0  0  0  0  0  0  0  0
   -1.0785   -6.0040   -1.6994 C   0  0  0  0  0  0  0  0  0  0  0  0
   -0.8016   -4.9278   -0.8710 C   0  0  0  0  0  0  0  0  0  0  0  0
   -1.1284   -4.8575    0.4284 O   0  0  0  0  0  0  0  0  0  0  0  0
   -0.3706   -3.9219    1.2287 C   0  0  0  0  0  0  0  0  0  0  0  0
    0.9510   -4.6008    1.5773 C   0  0  0  0  0  0  0  0  0  0  0  0
    2.1867   -3.9914    1.4221 C   0  0  0  0  0  0  0  0  0  0  0  0
    3.3436   -4.6714    1.7605 C   0  0  0  0  0  0  0  0  0  0  0  0
    3.2956   -5.9674    2.2548 C   0  0  0  0  0  0  0  0  0  0  0  0
    4.5570   -6.7129    2.5813 C   0  0  0  0  0  0  0  0  0  0  0  0
    5.0639   -7.4694    1.3517 C   0  0  0  0  0  0  0  0  0  0  0  0
    2.0539   -6.5749    2.3978 C   0  0  0  0  0  0  0  0  0  0  0  0
    0.8957   -5.9009    2.0666 C   0  0  0  0  0  0  0  0  0  0  0  0
   -1.2001   -3.6730    2.4769 C   0  0  0  0  0  0  0  0  0  0  0  0
   -0.6007   -3.4858    3.7153 C   0  0  0  0  0  0  0  0  0  0  0  0
   -1.3740   -3.2149    4.8289 C   0  0  0  0  0  0  0  0  0  0  0  0
   -2.7568   -3.1264    4.7347 C   0  0  0  0  0  0  0  0  0  0  0  0
   -3.5957   -2.8846    5.9557 C   0  0  0  0  0  0  0  0  0  0  0  0
   -3.9885   -4.2148    6.6020 C   0  0  0  0  0  0  0  0  0  0  0  0
   -3.3482   -3.3153    3.4925 C   0  0  0  0  0  0  0  0  0  0  0  0
   -2.5808   -3.5774    2.3736 C   0  0  0  0  0  0  0  0  0  0  0  0
   -0.8911   -6.7530   -4.0237 C   0  0  0  0  0  0  0  0  0  0  0  0
   -0.6096   -6.7162   -5.3702 C   0  0  0  0  0  0  0  0  0  0  0  0
   -0.0239   -5.5846   -6.0908 C   0  0  0  0  0  0  0  0  0  0  0  0
    0.3447   -4.5154   -5.6394 O   0  0  0  0  0  0  0  0  0  0  0  0
    0.0320   -5.9911   -7.5112 C   0  0  0  0  0  0  0  0  0  0  0  0
    0.4910   -5.2663   -8.5923 C   0  0  0  0  0  0  0  0  0  0  0  0
    0.4343   -5.8679   -9.8393 C   0  0  0  0  0  0  0  0  0  0  0  0
    0.8675   -5.2017  -10.9172 F   0  0  0  0  0  0  0  0  0  0  0  0
   -0.0707   -7.1599   -9.9814 C   0  0  0  0  0  0  0  0  0  0  0  0
   -0.1159   -7.7165  -11.1974 F   0  0  0  0  0  0  0  0  0  0  0  0
   -0.5304   -7.8880   -8.8933 C   0  0  0  0  0  0  0  0  0  0  0  0
   -0.4772   -7.2935   -7.6425 C   0  0  0  0  0  0  0  0  0  0  0  0
   -0.8756   -7.7784   -6.3186 C   0  0  0  0  0  0  0  0  0  0  0  0
   -1.3925   -9.0220   -6.0626 C   0  0  0  0  0  0  0  0  0  0  0  0
   -1.6197  -10.0025   -7.0519 C   0  0  0  0  0  0  0  0  0  0  0  0
   -1.8320  -10.8418   -7.8055 N   0  0  0  0  0  0  0  0  0  0  0  0
   -1.7680   -9.5190   -4.7965 C   0  0  0  0  0  0  0  0  0  0  0  0
   -2.0942  -10.0085   -3.8099 N   0  0  0  0  0  0  0  0  0  0  0  0
    0.8496    3.2533    4.6123 H   0  0  0  0  0  0  0  0  0  0  0  0
    2.7471    8.6444    2.0150 H   0  0  0  0  0  0  0  0  0  0  0  0
    2.0369    7.9959    6.9868 H   0  0  0  0  0  0  0  0  0  0  0  0
    3.6162   10.9794    6.3747 H   0  0  0  0  0  0  0  0  0  0  0  0
    1.4151   11.9113    7.0707 H   0  0  0  0  0  0  0  0  0  0  0  0
   -0.4096   10.5581    5.7757 H   0  0  0  0  0  0  0  0  0  0  0  0
   -0.0378   10.9396    3.1736 H   0  0  0  0  0  0  0  0  0  0  0  0
    2.0149   12.5309    2.8647 H   0  0  0  0  0  0  0  0  0  0  0  0
    2.8354   13.3513    5.2939 H   0  0  0  0  0  0  0  0  0  0  0  0
    1.0890   13.6347    5.0861 H   0  0  0  0  0  0  0  0  0  0  0  0
    3.9794   11.3569    3.8471 H   0  0  0  0  0  0  0  0  0  0  0  0
    1.9985    4.0243    0.9008 H   0  0  0  0  0  0  0  0  0  0  0  0
   -1.9046    0.0533   -1.5305 H   0  0  0  0  0  0  0  0  0  0  0  0
   -3.9869    1.2838   -1.8823 H   0  0  0  0  0  0  0  0  0  0  0  0
   -5.0833    3.2711   -2.8328 H   0  0  0  0  0  0  0  0  0  0  0  0
   -4.1680    4.7644   -3.0877 H   0  0  0  0  0  0  0  0  0  0  0  0
   -4.9651    3.6233   -0.3648 H   0  0  0  0  0  0  0  0  0  0  0  0
   -5.7280    5.0006   -1.1671 H   0  0  0  0  0  0  0  0  0  0  0  0
   -4.0519    5.1103   -0.6182 H   0  0  0  0  0  0  0  0  0  0  0  0
   -1.7754    4.8661   -2.5652 H   0  0  0  0  0  0  0  0  0  0  0  0
    0.3220    3.6301   -2.2172 H   0  0  0  0  0  0  0  0  0  0  0  0
   -0.3599    0.7850   -4.1416 H   0  0  0  0  0  0  0  0  0  0  0  0
    0.8331    0.2848   -6.2229 H   0  0  0  0  0  0  0  0  0  0  0  0
    4.4165   -0.5671   -6.3983 H   0  0  0  0  0  0  0  0  0  0  0  0
    2.8746   -0.6057   -7.2654 H   0  0  0  0  0  0  0  0  0  0  0  0
    4.4968    1.9140   -6.6581 H   0  0  0  0  0  0  0  0  0  0  0  0
    4.3900    1.1133   -8.2296 H   0  0  0  0  0  0  0  0  0  0  0  0
    2.9609    1.8754   -7.5230 H   0  0  0  0  0  0  0  0  0  0  0  0
    4.5405    0.3163   -4.1162 H   0  0  0  0  0  0  0  0  0  0  0  0
    3.3449    0.8031   -2.0251 H   0  0  0  0  0  0  0  0  0  0  0  0
   -0.0700   -1.3855    2.2561 H   0  0  0  0  0  0  0  0  0  0  0  0
    0.4276   -1.4899   -2.6629 H   0  0  0  0  0  0  0  0  0  0  0  0
   -1.5489   -6.9113   -1.3673 H   0  0  0  0  0  0  0  0  0  0  0  0
    2.2559   -2.9820    1.0439 H   0  0  0  0  0  0  0  0  0  0  0  0
    4.2994   -4.1819    1.6399 H   0  0  0  0  0  0  0  0  0  0  0  0
    4.3679   -7.4239    3.3879 H   0  0  0  0  0  0  0  0  0  0  0  0
    5.3253   -6.0127    2.9151 H   0  0  0  0  0  0  0  0  0  0  0  0
    5.2713   -6.7760    0.5397 H   0  0  0  0  0  0  0  0  0  0  0  0
    4.3158   -8.1814    1.0103 H   0  0  0  0  0  0  0  0  0  0  0  0
    5.9767   -8.0109    1.5884 H   0  0  0  0  0  0  0  0  0  0  0  0
    1.9939   -7.5838    2.7799 H   0  0  0  0  0  0  0  0  0  0  0  0
   -0.0669   -6.3759    2.1855 H   0  0  0  0  0  0  0  0  0  0  0  0
    0.4733   -3.5519    3.8107 H   0  0  0  0  0  0  0  0  0  0  0  0
   -0.8940   -3.0673    5.7854 H   0  0  0  0  0  0  0  0  0  0  0  0
   -3.0367   -2.2851    6.6765 H   0  0  0  0  0  0  0  0  0  0  0  0
   -4.4996   -2.3369    5.6821 H   0  0  0  0  0  0  0  0  0  0  0  0
   -3.0999   -4.7702    6.8932 H   0  0  0  0  0  0  0  0  0  0  0  0
   -4.5569   -4.8226    5.9015 H   0  0  0  0  0  0  0  0  0  0  0  0
   -4.5968   -4.0430    7.4867 H   0  0  0  0  0  0  0  0  0  0  0  0
   -4.4228   -3.2495    3.3980 H   0  0  0  0  0  0  0  0  0  0  0  0
   -3.0534   -3.7190    1.4134 H   0  0  0  0  0  0  0  0  0  0  0  0
   -1.3534   -7.6583   -3.6496 H   0  0  0  0  0  0  0  0  0  0  0  0
    0.8800   -4.2674   -8.4759 H   0  0  0  0  0  0  0  0  0  0  0  0
   -0.9112   -8.8821   -9.0594 H   0  0  0  0  0  0  0  0  0  0  0  0
  1  2  2  0  0  0  0
  2  3  1  0  0  0  0
  3  4  2  0  0  0  0
  3  5  1  0  0  0  0
  5  6  2  0  0  0  0
  6  7  1  0  0  0  0
  7  8  2  0  0  0  0
  8  9  1  0  0  0  0
  9 10  2  0  0  0  0
 10 11  1  0  0  0  0
 11 12  2  0  0  0  0
 12 13  1  0  0  0  0
 13 14  3  0  0  0  0
 12 15  1  0  0  0  0
 15 16  3  0  0  0  0
  8 17  1  0  0  0  0
 17 18  1  0  0  0  0
 18 19  1  0  0  0  0
 19 20  2  0  0  0  0
 20 21  1  0  0  0  0
 21 22  1  0  0  0  0
 21 23  1  0  0  0  0
  1 24  1  0  0  0  0
 24 25  2  0  0  0  0
 25 26  1  0  0  0  0
 26 27  1  0  0  0  0
 27 28  1  0  0  0  0
 28 29  1  0  0  0  0
 29 30  2  0  0  0  0
 30 31  1  0  0  0  0
 31 32  2  0  0  0  0
 32 33  1  0  0  0  0
 33 34  1  0  0  0  0
 32 35  1  0  0  0  0
 35 36  2  0  0  0  0
 28 37  1  0  0  0  0
 37 38  2  0  0  0  0
 38 39  1  0  0  0  0
 39 40  2  0  0  0  0
 40 41  1  0  0  0  0
 41 42  1  0  0  0  0
 40 43  1  0  0  0  0
 43 44  2  0  0  0  0
 28 45  1  0  0  0  0
 45 46  2  0  0  0  0
 46 47  1  0  0  0  0
 47 48  1  0  0  0  0
 46 49  1  0  0  0  0
 49 50  2  0  0  0  0
 50 51  1  0  0  0  0
 51 52  2  0  0  0  0
 51 53  1  0  0  0  0
 53 54  1  0  0  0  0
 54 55  1  0  0  0  0
 55 56  2  0  0  0  0
 56 57  1  0  0  0  0
 57 58  1  0  0  0  0
 58 59  1  0  0  0  0
 59 60  1  0  0  0  0
 60 61  2  0  0  0  0
 61 62  1  0  0  0  0
 62 63  2  0  0  0  0
 63 64  1  0  0  0  0
 64 65  1  0  0  0  0
 63 66  1  0  0  0  0
 66 67  2  0  0  0  0
 59 68  1  0  0  0  0
 68 69  2  0  0  0  0
 69 70  1  0  0  0  0
 70 71  2  0  0  0  0
 71 72  1  0  0  0  0
 72 73  1  0  0  0  0
 71 74  1  0  0  0  0
 74 75  2  0  0  0  0
 55 76  1  0  0  0  0
 76 77  2  0  0  0  0
 77 78  1  0  0  0  0
 78 79  2  0  0  0  0
 78 80  1  0  0  0  0
 80 81  2  0  0  0  0
 81 82  1  0  0  0  0
 82 83  1  0  0  0  0
 82 84  2  0  0  0  0
 84 85  1  0  0  0  0
 84 86  1  0  0  0  0
 86 87  2  0  0  0  0
 87 88  1  0  0  0  0
 88 89  2  0  0  0  0
 89 90  1  0  0  0  0
 90 91  3  0  0  0  0
 89 92  1  0  0  0  0
 92 93  3  0  0  0  0
 11  2  1  0  0  0  0
 23 17  1  0  0  0  0
 48 24  1  0  0  0  0
 59 50  1  0  0  0  0
 67 60  1  0  0  0  0
 75 68  1  0  0  0  0
 88 77  1  0  0  0  0
 10  5  1  0  0  0  0
 22 18  1  0  0  0  0
 47 26  2  0  0  0  0
 57 53  2  0  0  0  0
 87 80  1  0  0  0  0
 23  7  1  0  0  0  0
 36 29  1  0  0  0  0
 44 37  1  0  0  0  0
 52 45  1  0  0  0  0
  1 94  1  0  0  0  0
  6 95  1  0  0  0  0
  9 96  1  0  0  0  0
 17 97  1  0  0  0  0
 18 98  1  0  0  0  0
 19 99  1  0  0  0  0
 20100  1  0  0  0  0
 21101  1  0  0  0  0
 22102  1  0  0  0  0
 22103  1  0  0  0  0
 23104  1  0  0  0  0
 25105  1  0  0  0  0
 30106  1  0  0  0  0
 31107  1  0  0  0  0
 33108  1  0  0  0  0
 33109  1  0  0  0  0
 34110  1  0  0  0  0
 34111  1  0  0  0  0
 34112  1  0  0  0  0
 35113  1  0  0  0  0
 36114  1  0  0  0  0
 38115  1  0  0  0  0
 39116  1  0  0  0  0
 41117  1  0  0  0  0
 41118  1  0  0  0  0
 42119  1  0  0  0  0
 42120  1  0  0  0  0
 42121  1  0  0  0  0
 43122  1  0  0  0  0
 44123  1  0  0  0  0
 49124  1  0  0  0  0
 52125  1  0  0  0  0
 56126  1  0  0  0  0
 61127  1  0  0  0  0
 62128  1  0  0  0  0
 64129  1  0  0  0  0
 64130  1  0  0  0  0
 65131  1  0  0  0  0
 65132  1  0  0  0  0
 65133  1  0  0  0  0
 66134  1  0  0  0  0
 67135  1  0  0  0  0
 69136  1  0  0  0  0
 70137  1  0  0  0  0
 72138  1  0  0  0  0
 72139  1  0  0  0  0
 73140  1  0  0  0  0
 73141  1  0  0  0  0
 73142  1  0  0  0  0
 74143  1  0  0  0  0
 75144  1  0  0  0  0
 76145  1  0  0  0  0
 81146  1  0  0  0  0
 86147  1  0  0  0  0
M  END
