139

C         -3.94050        2.45270        5.72140
C         -3.86250        3.70590        6.25350
C         -3.02920        4.80040        5.69610
O         -2.47390        4.83670        4.61830
C         -2.91050        5.79330        6.78050
C         -2.16280        6.96830        6.75370
C         -2.21010        7.68890        7.92260
C         -2.94400        7.27130        9.04150
C         -3.68920        6.11710        9.08110
C         -3.65520        5.36980        7.90040
C         -4.29990        4.10240        7.57700
C         -5.22420        3.44090        8.34190
C         -5.89950        2.27270        7.92900
N         -6.50010        1.33820        7.63820
C         -5.65270        3.86000        9.61800
N         -6.03690        4.13910       10.66330
C         -2.51560        8.45920        9.86520
C         -1.41190        8.23650       10.92920
C         -0.58290        7.06980       10.45230
C          0.10790        7.46960        9.39300
C         -0.24220        8.91420        9.13400
C         -0.47160        9.39940       10.57430
C         -1.70240        8.92750        8.61740
C         -3.58650        2.09380        4.39780
C         -3.79990        2.74700        3.19380
C         -4.62870        3.97600        3.02670
C         -5.75860        3.77330        2.01800
C         -3.23150        2.03070        2.12790
S         -3.10470        2.35710        0.41440
C         -2.17370        0.91620        0.22610
C         -1.55830        0.17770       -0.79520
C         -1.57260        0.38500       -2.19650
N         -2.09330        1.48590       -2.73190
C         -2.15420        1.58580       -4.05040
C         -2.55740        2.88400       -4.54170
S         -2.01730        3.54100       -6.05870
C         -2.80590        5.05130       -5.75940
C         -2.73490        6.18340       -6.72400
C         -1.32610        6.77630       -6.78460
C         -3.42790        5.01030       -4.54420
C         -3.28900        3.80300       -3.83860
F         -4.12930        6.05110       -4.06010
C         -1.78270        0.47620       -4.86850
C         -2.08350        0.36110       -6.27420
C         -3.14870        0.83330       -6.99220
C         -3.10180        0.39810       -8.32720
F         -4.04200        0.74550       -9.22610
C         -2.03500       -0.39310       -8.64800
C         -1.71450       -1.01190       -9.96460
C         -1.73220       -2.53850       -9.88420
S         -1.05240       -0.64040       -7.24820
N         -1.14880       -0.55930       -4.34200
C         -0.98960       -0.60860       -3.02250
C         -0.25120       -1.64420       -2.39740
C          0.56920       -2.62720       -2.96770
S          1.06650       -3.16430       -4.53260
C          2.14360       -4.31440       -3.75740
C          3.05120       -5.23210       -4.26170
C          3.23090       -5.47160       -5.72450
C          2.37530       -6.65430       -6.18760
C          3.71900       -5.91850       -3.22670
S          3.18060       -5.39320       -1.62790
C          2.09210       -4.27270       -2.35030
C          1.18040       -3.31260       -1.91050
N          0.73370       -2.82320       -0.70890
C          1.53760       -3.06480        0.46970
C          2.61310       -1.99120        0.62210
C         -0.15020       -1.79550       -0.98250
C         -0.93430       -0.94060       -0.17170
N         -1.22650       -0.90910        1.17850
C         -1.96930        0.21640        1.41940
C         -2.58940        0.84340        2.50510
S         -2.75200        0.55400        4.19520
C         -1.14640       -1.94960        2.17830
C         -0.09640       -1.64770        3.24630
C          4.70210       -6.87740       -3.46350
C          5.46670       -7.62810       -2.59600
C          5.39150       -7.59800       -1.13740
O          4.65480       -6.92180       -0.44170
C          6.40290       -8.56420       -0.65740
C          7.05170       -9.14380       -1.76320
C          8.04980      -10.08330       -1.56340
C          8.38600      -10.43040       -0.26250
C          7.74390       -9.85620        0.82310
Br         8.24910      -10.36970        2.57060
C          6.73300       -8.90530        0.64340
Cl         5.93810       -8.19210        1.98130
C          6.48530       -8.57540       -2.98780
C          6.88480       -8.90090       -4.26080
C          6.36330       -8.35860       -5.45320
N          5.99860       -7.96830       -6.47100
C          7.89570       -9.83780       -4.55940
N          8.70620      -10.58880       -4.87160
H         -4.21240        1.62840        6.37120
H         -1.60830        7.25160        5.87270
H         -4.24450        5.80350        9.94950
H         -3.31460        9.10360       10.22590
H         -1.77610        8.18010       11.95140
H         -0.62540        6.08790       10.88630
H          0.75750        6.88860        8.76480
H          0.45870        9.47590        8.52200
H         -0.94880       10.37670       10.63230
H          0.44080        9.39960       11.16860
H         -1.97300        9.87710        8.16010
H         -5.05250        4.25910        3.99110
H         -3.97770        4.78930        2.69600
H         -6.39190        2.94180        2.32000
H         -5.36760        3.57110        1.02500
H         -6.36890        4.67130        1.96920
H         -3.44620        6.94940       -6.40800
H         -3.02130        5.83390       -7.71900
H         -0.61280        6.02000       -7.10440
H         -1.02730        7.14380       -5.80570
H         -1.29860        7.60300       -7.48950
H         -3.70590        3.61280       -2.86790
H         -3.94420        1.43500       -6.59380
H         -0.72480       -0.68130      -10.29050
H         -2.44910       -0.66740      -10.69550
H         -1.49350       -2.96760      -10.85360
H         -2.71540       -2.89080       -9.58100
H         -1.00070       -2.88410       -9.15740
H          2.91480       -4.57300       -6.25780
H          4.27660       -5.66450       -5.96800
H          2.50790       -6.80830       -7.25450
H          2.66510       -7.56540       -5.66960
H          1.32390       -6.46030       -5.98910
H          2.01030       -4.04090        0.33500
H          0.92090       -3.11160        1.36150
H          3.21770       -2.19510        1.50140
H          3.26320       -1.98430       -0.24950
H          2.16150       -1.00580        0.72130
H         -0.96660       -2.90290        1.67930
H         -2.12670       -2.01470        2.66410
H         -0.39450       -0.77660        3.82320
H          0.87550       -1.44550        2.80560
H         -0.00920       -2.49220        3.92430
H          4.89080       -7.04460       -4.51490
H          8.56810      -10.54770       -2.38510
H          9.16120      -11.16010       -0.08650
