152

C          0.50060       -2.36100       -7.35960
C         -0.32340       -3.42020       -7.64380
C         -1.45860       -3.87910       -6.83870
O         -1.93800       -3.34020       -5.85390
C         -1.92190       -5.13450       -7.44990
C         -2.94130       -5.96420       -6.98980
C         -3.13450       -7.08880       -7.75530
C         -2.36830       -7.36790       -8.89470
C         -1.36030       -6.55630       -9.35970
C         -1.14840       -5.40450       -8.59710
C         -0.17220       -4.32850       -8.76460
C          0.70180       -4.20850       -9.81500
C          0.78270       -5.11390      -10.89380
N          0.90660       -5.80300      -11.80390
C          1.63320       -3.16500       -9.99560
N          2.41560       -2.35280      -10.21770
C         -3.10080       -8.65740       -9.16870
C         -4.15760       -8.66160      -10.30050
C         -4.66260       -7.24520      -10.42110
C         -5.38850       -6.98080       -9.34300
C         -5.38700       -8.21370       -8.47340
C         -5.33570       -9.30660       -9.55290
C         -3.95470       -8.34600       -7.89920
C          0.49280       -1.45660       -6.29040
C          1.49800       -0.49500       -6.09300
C          2.70030       -0.29920       -6.95780
C          3.81270       -1.27950       -6.57540
C          1.28260        0.22950       -4.92710
S          2.21620        1.47430       -4.11540
C          1.03790        1.49120       -2.84990
C          0.85070        2.06470       -1.58250
C          1.73910        2.83490       -0.79000
C          1.38880        3.08870        0.56370
N          2.17520        3.83930        1.33090
C          3.31760        4.28200        0.83300
C          4.04430        5.24010        1.67380
C          4.72090        6.32800        1.12400
C          5.37540        7.22670        1.94230
C          5.34830        7.04910        3.32040
C          6.09570        8.00410        4.20560
F          5.56070        8.10970        5.43180
F          7.37650        7.62090        4.39080
F          6.14990        9.24800        3.70520
C          4.65900        5.98140        3.88170
C          4.00460        5.08700        3.05890
C          3.75100        3.86360       -0.45410
C          5.10560        4.08100       -0.97430
C          5.27630        4.30710       -2.33920
C          6.53810        4.49670       -2.86580
C          7.64410        4.44550       -2.02670
C          9.01720        4.69130       -2.58220
F          9.97330        4.00900       -1.93300
F          9.36720        5.99220       -2.49980
F          9.12570        4.36020       -3.87780
C          7.48960        4.19560       -0.66830
C          6.22530        4.00880       -0.14670
N          2.93350        3.19720       -1.25180
C          0.14440        2.60440        1.03970
C         -0.45150        2.69860        2.31010
S         -0.05240        3.20580        3.91290
C         -1.63340        2.68890        4.45560
C         -2.23130        2.60950        5.72460
C         -1.62100        3.15810        6.97050
C         -1.25840        4.63510        6.82080
C         -3.49790        2.05700        5.64000
S         -3.97710        1.69940        3.98070
C         -2.42670        2.19050        3.41550
C         -1.74260        2.17560        2.19680
N         -1.96580        1.73770        0.91550
C         -0.80220        1.95480        0.20140
C         -0.38320        1.55300       -1.08710
N         -0.89460        0.66110       -2.00210
C         -0.03220        0.61460       -3.06570
C          0.10930       -0.12690       -4.24180
S         -0.73360       -1.40900       -5.02420
C         -1.92280       -0.34450       -1.85370
C         -3.12710       -0.07180       -2.75420
C         -3.32360        1.65810        0.42130
C         -3.99730        3.03000        0.44450
C         -4.43280        1.73160        6.65640
C         -4.12890        1.11440        7.83210
C         -2.88270        0.34100        8.06420
O         -1.86010        0.36340        7.41310
C         -3.19130       -0.56020        9.19100
C         -2.37640       -1.57330        9.69280
C         -2.94490       -2.29420       10.71520
C         -4.23210       -2.03230       11.20460
C         -5.04700       -1.03680       10.72070
C         -4.48640       -0.29050        9.67940
C         -5.05800        0.80020        8.89950
C         -6.22100        1.47380        9.16140
C         -6.66470        2.58400        8.41160
N         -7.06170        3.50350        7.85050
C         -7.08820        1.17860       10.23290
N         -7.83120        0.98030       11.08530
C         -4.16440       -3.15400       12.21080
C         -3.89980       -2.75500       13.67770
C         -3.41650       -4.03630       14.31810
C         -2.19750       -4.28350       13.85620
C         -1.83610       -3.17340       12.89570
C         -2.56920       -2.00060       13.55940
C         -2.72880       -3.44470       11.66640
H          1.32220       -2.20280       -8.04460
H         -3.50270       -5.71320       -6.10340
H         -0.77690       -6.79130      -10.23390
H         -2.49290       -9.55990       -9.16560
H         -3.82940       -9.13420      -11.22220
H         -4.40090       -6.58310      -11.22550
H         -5.85450       -6.05320       -9.06630
H         -6.17880       -8.27950       -7.73150
H         -6.24330       -9.34850      -10.15310
H         -5.10960      -10.29620       -9.15810
H         -3.90430       -9.04570       -7.06700
H          2.44960       -0.42680       -8.01190
H          3.06150        0.72090       -6.81310
H          4.68070       -1.11660       -7.20780
H          3.48100       -2.30760       -6.70260
H          4.10420       -1.13470       -5.53770
H          4.72340        6.48020        0.05550
H          5.89900        8.06960        1.51830
H          4.63200        5.86110        4.95380
H          3.45230        4.25930        3.47490
H          4.40580        4.32900       -2.97530
H          6.67030        4.67630       -3.92170
H          8.35730        4.13960       -0.02920
H          6.10860        3.79190        0.90410
H         -0.72420        2.57720        7.19940
H         -2.31940        3.03800        7.79950
H         -2.14290        5.21910        6.57530
H         -0.51730        4.77950        6.03930
H         -0.84840        5.00790        7.75580
H         -1.48790       -1.30700       -2.14480
H         -2.20370       -0.41170       -0.80200
H         -2.85020       -0.20760       -3.79580
H         -3.92480       -0.77090       -2.52040
H         -3.49970        0.94340       -2.63290
H         -3.87920        0.96150        1.05700
H         -3.31910        1.29160       -0.59890
H         -3.43680        3.73560       -0.16530
H         -4.05790        3.41730        1.45780
H         -5.00510        2.94710        0.04740
H         -5.47510        1.90330        6.41120
H         -1.39550       -1.75010        9.28030
H         -6.04190       -0.85450       11.09220
H         -4.92570       -3.92530       12.11020
H         -4.72480       -2.24380       14.16610
H         -4.01330       -4.64030       14.97600
H         -1.57260       -5.13530       14.05090
H         -0.78050       -3.04380       12.67250
H         -2.14990       -1.75100       14.53250
H         -2.62070       -1.10410       12.94420
H         -2.53290       -4.41010       11.20320
