
  xtb     02012219443D
 energy: -226.361885820869 gnorm: 0.000794121326 xtb: 6.4.1 (unknown)
130146  0     0  0            999 V2000
    0.0571    5.4120   -3.9451 C   0  0  0  0  0  0  0  0  0  0  0  0
    0.6817    4.9076   -5.0561 C   0  0  0  0  0  0  0  0  0  0  0  0
    1.1066    3.5189   -5.2493 C   0  0  0  0  0  0  0  0  0  0  0  0
    1.0138    2.5974   -4.4541 O   0  0  0  0  0  0  0  0  0  0  0  0
    1.6717    3.4436   -6.6063 C   0  0  0  0  0  0  0  0  0  0  0  0
    2.2029    2.3191   -7.2327 C   0  0  0  0  0  0  0  0  0  0  0  0
    2.6704    2.5551   -8.5032 C   0  0  0  0  0  0  0  0  0  0  0  0
    2.6172    3.8191   -9.1049 C   0  0  0  0  0  0  0  0  0  0  0  0
    2.0949    4.9367   -8.4976 C   0  0  0  0  0  0  0  0  0  0  0  0
    1.6096    4.7186   -7.2055 C   0  0  0  0  0  0  0  0  0  0  0  0
    1.0083    5.6534   -6.2543 C   0  0  0  0  0  0  0  0  0  0  0  0
    0.8296    6.9974   -6.4644 C   0  0  0  0  0  0  0  0  0  0  0  0
    1.1545    7.6668   -7.6626 C   0  0  0  0  0  0  0  0  0  0  0  0
    1.3859    8.2773   -8.6073 N   0  0  0  0  0  0  0  0  0  0  0  0
    0.3205    7.9220   -5.5276 C   0  0  0  0  0  0  0  0  0  0  0  0
   -0.0633    8.7498   -4.8289 N   0  0  0  0  0  0  0  0  0  0  0  0
    3.2630    3.3291  -10.3767 C   0  0  0  0  0  0  0  0  0  0  0  0
    2.3522    3.0920  -11.6059 C   0  0  0  0  0  0  0  0  0  0  0  0
    0.9765    2.7879  -11.0667 C   0  0  0  0  0  0  0  0  0  0  0  0
    1.0205    1.5909  -10.4973 C   0  0  0  0  0  0  0  0  0  0  0  0
    2.4267    1.0636  -10.6415 C   0  0  0  0  0  0  0  0  0  0  0  0
    2.8083    1.6776  -11.9981 C   0  0  0  0  0  0  0  0  0  0  0  0
    3.3179    1.9194   -9.7077 C   0  0  0  0  0  0  0  0  0  0  0  0
   -0.2552    4.8059   -2.7221 C   0  0  0  0  0  0  0  0  0  0  0  0
   -0.8607    5.5305   -1.6808 C   0  0  0  0  0  0  0  0  0  0  0  0
   -1.3344    6.9138   -1.8374 C   0  0  0  0  0  0  0  0  0  0  0  0
   -2.4398    7.1433   -2.6521 C   0  0  0  0  0  0  0  0  0  0  0  0
   -2.9263    8.4230   -2.8329 C   0  0  0  0  0  0  0  0  0  0  0  0
   -2.3028    9.4864   -2.2045 C   0  0  0  0  0  0  0  0  0  0  0  0
   -1.2000    9.2618   -1.4018 C   0  0  0  0  0  0  0  0  0  0  0  0
   -0.6998    7.9826   -1.2017 C   0  0  0  0  0  0  0  0  0  0  0  0
    0.5527    7.7832   -0.3968 C   0  0  0  0  0  0  0  0  0  0  0  0
    1.7707    7.7017   -1.3199 C   0  0  0  0  0  0  0  0  0  0  0  0
   -0.9888    4.7618   -0.5303 C   0  0  0  0  0  0  0  0  0  0  0  0
   -1.6467    5.0962    1.0608 S   0  0  0  0  0  0  0  0  0  0  0  0
   -1.2728    3.4702    1.5222 C   0  0  0  0  0  0  0  0  0  0  0  0
   -1.3665    2.6374    2.6488 C   0  0  0  0  0  0  0  0  0  0  0  0
   -1.7176    2.8700    3.9997 C   0  0  0  0  0  0  0  0  0  0  0  0
   -1.5479    1.8125    4.9627 C   0  0  0  0  0  0  0  0  0  0  0  0
   -1.8375    2.2028    6.1930 N   0  0  0  0  0  0  0  0  0  0  0  0
   -2.2922    3.7554    6.1504 S   0  0  0  0  0  0  0  0  0  0  0  0
   -2.1345    3.9947    4.5573 N   0  0  0  0  0  0  0  0  0  0  0  0
   -1.1891    0.5197    4.5128 C   0  0  0  0  0  0  0  0  0  0  0  0
   -1.1013   -0.7290    5.1482 C   0  0  0  0  0  0  0  0  0  0  0  0
   -1.1996   -1.3979    6.7420 S   0  0  0  0  0  0  0  0  0  0  0  0
   -0.9678   -2.9927    6.0510 C   0  0  0  0  0  0  0  0  0  0  0  0
   -0.8883   -4.2581    6.6118 C   0  0  0  0  0  0  0  0  0  0  0  0
   -1.0328   -4.5302    8.0498 C   0  0  0  0  0  0  0  0  0  0  0  0
    0.0489   -4.9290    8.8383 C   0  0  0  0  0  0  0  0  0  0  0  0
    1.4422   -5.0081    8.2827 C   0  0  0  0  0  0  0  0  0  0  0  0
    2.1124   -3.6340    8.3521 C   0  0  0  0  0  0  0  0  0  0  0  0
   -0.1703   -5.1709   10.1877 C   0  0  0  0  0  0  0  0  0  0  0  0
   -1.4248   -5.0251   10.7490 C   0  0  0  0  0  0  0  0  0  0  0  0
   -2.4887   -4.6125    9.9651 C   0  0  0  0  0  0  0  0  0  0  0  0
   -2.2906   -4.3626    8.6214 C   0  0  0  0  0  0  0  0  0  0  0  0
   -0.7033   -5.2517    5.6300 C   0  0  0  0  0  0  0  0  0  0  0  0
   -0.6057   -4.5710    4.0058 S   0  0  0  0  0  0  0  0  0  0  0  0
   -0.8181   -2.9872    4.6511 C   0  0  0  0  0  0  0  0  0  0  0  0
   -0.8909   -1.6892    4.1455 C   0  0  0  0  0  0  0  0  0  0  0  0
   -0.8168   -1.0797    2.9173 N   0  0  0  0  0  0  0  0  0  0  0  0
   -0.9632    0.2753    3.1306 C   0  0  0  0  0  0  0  0  0  0  0  0
   -0.8804    1.3661    2.2399 C   0  0  0  0  0  0  0  0  0  0  0  0
   -0.4339    1.4390    0.9363 N   0  0  0  0  0  0  0  0  0  0  0  0
   -0.6820    2.7154    0.4975 C   0  0  0  0  0  0  0  0  0  0  0  0
   -0.5058    3.4499   -0.6778 C   0  0  0  0  0  0  0  0  0  0  0  0
    0.1252    3.1520   -2.2557 S   0  0  0  0  0  0  0  0  0  0  0  0
    0.6217    0.6468    0.3364 C   0  0  0  0  0  0  0  0  0  0  0  0
    1.9642    1.3735    0.4061 C   0  0  0  0  0  0  0  0  0  0  0  0
   -1.1720   -1.8108    1.7163 C   0  0  0  0  0  0  0  0  0  0  0  0
   -2.5924   -2.3669    1.8093 C   0  0  0  0  0  0  0  0  0  0  0  0
   -0.6288   -6.6062    5.9615 C   0  0  0  0  0  0  0  0  0  0  0  0
   -0.4894   -7.7172    5.1619 C   0  0  0  0  0  0  0  0  0  0  0  0
   -0.4682   -7.7188    3.6974 C   0  0  0  0  0  0  0  0  0  0  0  0
   -0.4677   -6.7548    2.9540 O   0  0  0  0  0  0  0  0  0  0  0  0
   -0.4582   -9.1409    3.2973 C   0  0  0  0  0  0  0  0  0  0  0  0
   -0.4734   -9.7228    2.0435 C   0  0  0  0  0  0  0  0  0  0  0  0
   -0.4908   -8.9739    0.9352 F   0  0  0  0  0  0  0  0  0  0  0  0
   -0.4731  -11.1069    1.9202 C   0  0  0  0  0  0  0  0  0  0  0  0
   -0.4582  -11.8932    3.0585 C   0  0  0  0  0  0  0  0  0  0  0  0
   -0.4393  -11.3309    4.3298 C   0  0  0  0  0  0  0  0  0  0  0  0
   -0.4380   -9.9515    4.4478 C   0  0  0  0  0  0  0  0  0  0  0  0
   -0.4135   -9.0826    5.6276 C   0  0  0  0  0  0  0  0  0  0  0  0
   -0.2826   -9.5153    6.9229 C   0  0  0  0  0  0  0  0  0  0  0  0
   -0.2131  -10.8716    7.3035 C   0  0  0  0  0  0  0  0  0  0  0  0
   -0.1551  -11.9536    7.6837 N   0  0  0  0  0  0  0  0  0  0  0  0
   -0.1543   -8.6897    8.0596 C   0  0  0  0  0  0  0  0  0  0  0  0
   -0.0140   -8.1021    9.0369 N   0  0  0  0  0  0  0  0  0  0  0  0
   -0.2433    6.4524   -3.9825 H   0  0  0  0  0  0  0  0  0  0  0  0
    2.2303    1.3651   -6.7296 H   0  0  0  0  0  0  0  0  0  0  0  0
    2.0628    5.9010   -8.9760 H   0  0  0  0  0  0  0  0  0  0  0  0
    4.2056    3.8028  -10.6435 H   0  0  0  0  0  0  0  0  0  0  0  0
    2.4094    3.8662  -12.3663 H   0  0  0  0  0  0  0  0  0  0  0  0
    0.1536    3.4775  -11.1030 H   0  0  0  0  0  0  0  0  0  0  0  0
    0.2415    1.0801   -9.9622 H   0  0  0  0  0  0  0  0  0  0  0  0
    2.5509   -0.0098  -10.5253 H   0  0  0  0  0  0  0  0  0  0  0  0
    3.8724    1.6109  -12.2205 H   0  0  0  0  0  0  0  0  0  0  0  0
    2.2331    1.2634  -12.8247 H   0  0  0  0  0  0  0  0  0  0  0  0
    4.2959    1.4712   -9.5430 H   0  0  0  0  0  0  0  0  0  0  0  0
   -2.9180    6.3042   -3.1381 H   0  0  0  0  0  0  0  0  0  0  0  0
   -3.7844    8.5884   -3.4664 H   0  0  0  0  0  0  0  0  0  0  0  0
   -2.6702   10.4912   -2.3470 H   0  0  0  0  0  0  0  0  0  0  0  0
   -0.7078   10.0961   -0.9232 H   0  0  0  0  0  0  0  0  0  0  0  0
    0.4873    6.8711    0.1981 H   0  0  0  0  0  0  0  0  0  0  0  0
    0.6785    8.6237    0.2878 H   0  0  0  0  0  0  0  0  0  0  0  0
    1.8224    8.5849   -1.9525 H   0  0  0  0  0  0  0  0  0  0  0  0
    1.7073    6.8269   -1.9638 H   0  0  0  0  0  0  0  0  0  0  0  0
    2.6857    7.6347   -0.7359 H   0  0  0  0  0  0  0  0  0  0  0  0
    2.0207   -5.7263    8.8655 H   0  0  0  0  0  0  0  0  0  0  0  0
    1.4300   -5.3473    7.2458 H   0  0  0  0  0  0  0  0  0  0  0  0
    3.1264   -3.6861    7.9623 H   0  0  0  0  0  0  0  0  0  0  0  0
    2.1522   -3.2841    9.3809 H   0  0  0  0  0  0  0  0  0  0  0  0
    1.5523   -2.9077    7.7669 H   0  0  0  0  0  0  0  0  0  0  0  0
    0.6590   -5.4873   10.8020 H   0  0  0  0  0  0  0  0  0  0  0  0
   -1.5728   -5.2294   11.7986 H   0  0  0  0  0  0  0  0  0  0  0  0
   -3.4705   -4.4876   10.3966 H   0  0  0  0  0  0  0  0  0  0  0  0
   -3.1141   -4.0457    7.9976 H   0  0  0  0  0  0  0  0  0  0  0  0
    0.7134   -0.2938    0.8761 H   0  0  0  0  0  0  0  0  0  0  0  0
    0.3621    0.4515   -0.7085 H   0  0  0  0  0  0  0  0  0  0  0  0
    1.9406    2.2930   -0.1713 H   0  0  0  0  0  0  0  0  0  0  0  0
    2.2106    1.6117    1.4388 H   0  0  0  0  0  0  0  0  0  0  0  0
    2.7417    0.7331   -0.0007 H   0  0  0  0  0  0  0  0  0  0  0  0
   -0.4619   -2.6327    1.5849 H   0  0  0  0  0  0  0  0  0  0  0  0
   -1.1224   -1.1404    0.8607 H   0  0  0  0  0  0  0  0  0  0  0  0
   -2.8486   -2.8575    0.8748 H   0  0  0  0  0  0  0  0  0  0  0  0
   -2.6755   -3.0943    2.6114 H   0  0  0  0  0  0  0  0  0  0  0  0
   -3.3015   -1.5612    1.9890 H   0  0  0  0  0  0  0  0  0  0  0  0
   -0.7129   -6.7833    7.0279 H   0  0  0  0  0  0  0  0  0  0  0  0
   -0.4860  -11.5469    0.9356 H   0  0  0  0  0  0  0  0  0  0  0  0
   -0.4613  -12.9676    2.9582 H   0  0  0  0  0  0  0  0  0  0  0  0
   -0.4300  -11.9704    5.1963 H   0  0  0  0  0  0  0  0  0  0  0  0
  1  2  2  0  0  0  0
  2  3  1  0  0  0  0
  3  4  2  0  0  0  0
  3  5  1  0  0  0  0
  5  6  2  0  0  0  0
  6  7  1  0  0  0  0
  7  8  2  0  0  0  0
  8  9  1  0  0  0  0
  9 10  2  0  0  0  0
 10 11  1  0  0  0  0
 11 12  2  0  0  0  0
 12 13  1  0  0  0  0
 13 14  3  0  0  0  0
 12 15  1  0  0  0  0
 15 16  3  0  0  0  0
  8 17  1  0  0  0  0
 17 18  1  0  0  0  0
 18 19  1  0  0  0  0
 19 20  2  0  0  0  0
 20 21  1  0  0  0  0
 21 22  1  0  0  0  0
 21 23  1  0  0  0  0
  1 24  1  0  0  0  0
 24 25  2  0  0  0  0
 25 26  1  0  0  0  0
 26 27  2  0  0  0  0
 27 28  1  0  0  0  0
 28 29  2  0  0  0  0
 29 30  1  0  0  0  0
 30 31  2  0  0  0  0
 31 32  1  0  0  0  0
 32 33  1  0  0  0  0
 25 34  1  0  0  0  0
 34 35  1  0  0  0  0
 35 36  1  0  0  0  0
 36 37  1  0  0  0  0
 37 38  1  0  0  0  0
 38 39  1  0  0  0  0
 39 40  2  0  0  0  0
 40 41  1  0  0  0  0
 41 42  1  0  0  0  0
 39 43  1  0  0  0  0
 43 44  1  0  0  0  0
 44 45  1  0  0  0  0
 45 46  1  0  0  0  0
 46 47  1  0  0  0  0
 47 48  1  0  0  0  0
 48 49  2  0  0  0  0
 49 50  1  0  0  0  0
 50 51  1  0  0  0  0
 49 52  1  0  0  0  0
 52 53  2  0  0  0  0
 53 54  1  0  0  0  0
 54 55  2  0  0  0  0
 47 56  2  0  0  0  0
 56 57  1  0  0  0  0
 57 58  1  0  0  0  0
 58 59  1  0  0  0  0
 59 60  1  0  0  0  0
 60 61  1  0  0  0  0
 61 62  1  0  0  0  0
 62 63  1  0  0  0  0
 63 64  1  0  0  0  0
 64 65  1  0  0  0  0
 65 66  1  0  0  0  0
 63 67  1  0  0  0  0
 67 68  1  0  0  0  0
 60 69  1  0  0  0  0
 69 70  1  0  0  0  0
 56 71  1  0  0  0  0
 71 72  2  0  0  0  0
 72 73  1  0  0  0  0
 73 74  2  0  0  0  0
 73 75  1  0  0  0  0
 75 76  2  0  0  0  0
 76 77  1  0  0  0  0
 76 78  1  0  0  0  0
 78 79  2  0  0  0  0
 79 80  1  0  0  0  0
 80 81  2  0  0  0  0
 81 82  1  0  0  0  0
 82 83  2  0  0  0  0
 83 84  1  0  0  0  0
 84 85  3  0  0  0  0
 83 86  1  0  0  0  0
 86 87  3  0  0  0  0
 11  2  1  0  0  0  0
 23 17  1  0  0  0  0
 66 24  1  0  0  0  0
 82 72  1  0  0  0  0
 10  5  1  0  0  0  0
 22 18  1  0  0  0  0
 31 26  1  0  0  0  0
 65 34  2  0  0  0  0
 81 75  1  0  0  0  0
 23  7  1  0  0  0  0
 64 36  2  0  0  0  0
 62 37  2  0  0  0  0
 42 38  2  0  0  0  0
 61 43  2  0  0  0  0
 59 44  2  0  0  0  0
 58 46  2  0  0  0  0
 55 48  1  0  0  0  0
  1 88  1  0  0  0  0
  6 89  1  0  0  0  0
  9 90  1  0  0  0  0
 17 91  1  0  0  0  0
 18 92  1  0  0  0  0
 19 93  1  0  0  0  0
 20 94  1  0  0  0  0
 21 95  1  0  0  0  0
 22 96  1  0  0  0  0
 22 97  1  0  0  0  0
 23 98  1  0  0  0  0
 27 99  1  0  0  0  0
 28100  1  0  0  0  0
 29101  1  0  0  0  0
 30102  1  0  0  0  0
 32103  1  0  0  0  0
 32104  1  0  0  0  0
 33105  1  0  0  0  0
 33106  1  0  0  0  0
 33107  1  0  0  0  0
 50108  1  0  0  0  0
 50109  1  0  0  0  0
 51110  1  0  0  0  0
 51111  1  0  0  0  0
 51112  1  0  0  0  0
 52113  1  0  0  0  0
 53114  1  0  0  0  0
 54115  1  0  0  0  0
 55116  1  0  0  0  0
 67117  1  0  0  0  0
 67118  1  0  0  0  0
 68119  1  0  0  0  0
 68120  1  0  0  0  0
 68121  1  0  0  0  0
 69122  1  0  0  0  0
 69123  1  0  0  0  0
 70124  1  0  0  0  0
 70125  1  0  0  0  0
 70126  1  0  0  0  0
 71127  1  0  0  0  0
 78128  1  0  0  0  0
 79129  1  0  0  0  0
 80130  1  0  0  0  0
M  END
