147

C         -1.03240       -7.39330       -1.89690
C         -1.68420       -8.40220       -1.24490
C         -2.26280       -8.28590        0.11390
O         -2.11360       -7.38440        0.91290
C         -3.17150       -9.44020        0.25550
C         -3.97920       -9.73280        1.35230
C         -4.74320      -10.86440        1.19820
C         -4.71340      -11.64670        0.03570
C         -3.92090      -11.37100       -1.05290
C         -3.13240      -10.22430       -0.91490
C         -2.18300       -9.62190       -1.84470
C         -1.76370      -10.15580       -3.03580
C         -2.25280      -11.35570       -3.59040
N         -2.61500      -12.31910       -4.09980
C         -0.75530       -9.59260       -3.84600
N          0.07410       -9.20400       -4.53900
C         -5.74440      -12.61310        0.56350
C         -7.17900      -12.45810        0.01540
C         -8.03390      -13.18040        1.03160
C         -8.05950      -12.44300        2.13440
C         -7.22250      -11.20980        1.88210
C         -7.49940      -11.00450        0.38710
C         -5.77440      -11.74350        1.86110
C         -0.44090       -6.25900       -1.29850
C          0.26250       -6.11680       -0.10890
C          0.67520       -7.24880        0.77040
C          2.17110       -7.23210        1.07880
C          0.63940       -4.78070        0.09510
S          1.45950       -3.96210        1.40890
C          1.24590       -2.46330        0.58170
C          1.50880       -1.10000        0.77200
C          2.09730       -0.47120        1.89480
N          2.44940       -1.16630        2.97360
C          2.98570       -0.51850        3.99570
C          3.16680       -1.31140        5.18770
S          3.37470       -3.02450        4.99570
C          3.39830       -3.27310        6.70570
C          3.60800       -4.61730        7.31260
C          5.00550       -5.15650        7.00530
C          3.22650       -2.07880        7.34630
C          3.08680       -0.96010        6.50770
F          3.18790       -1.97610        8.68870
C          3.30060        0.86890        3.88820
C          4.13700        1.60510        4.81010
C          4.11670        2.96220        4.98580
C          5.12140        3.38960        5.87100
F          5.27640        4.68080        6.21570
C          5.92610        2.40180        6.36200
C          7.08670        2.52790        7.28660
C          8.40380        2.20880        6.57760
S          5.42940        0.87510        5.71660
N          2.86500        1.57300        2.85470
C          2.22510        0.93670        1.87590
C          1.72480        1.63210        0.74860
C          1.72880        3.01120        0.50660
S          2.20570        4.47430        1.29200
C          1.63740        5.36930       -0.10620
C          1.59690        6.72770       -0.39450
C          2.06850        7.77040        0.56580
C          0.90780        8.28800        1.41960
C          1.01060        6.96750       -1.64820
S          0.53590        5.47480       -2.45900
C          1.11270        4.55280       -1.12180
C          1.17180        3.20360       -0.76000
N          0.84050        1.99550       -1.31120
C          0.31220        1.97730       -2.65480
C         -1.19570        2.22790       -2.67230
C          1.14340        1.00510       -0.39680
C          1.00310       -0.40850       -0.36990
N          0.43160       -1.34600       -1.21150
C          0.59000       -2.58180       -0.64480
C          0.24350       -3.90620       -0.92740
S         -0.55440       -4.74670       -2.20080
C         -0.25930       -1.25130       -2.47500
C          0.68520       -1.49720       -3.65160
C          0.82700        8.25410       -2.16950
C          0.24620        8.67800       -3.33720
C         -0.36020        7.82940       -4.36970
O         -0.42470        6.61010       -4.38890
C         -0.88310        8.74490       -5.39120
C         -1.55530        8.43910       -6.56260
C         -1.96670        9.47610       -7.38640
O         -2.62990        9.32700       -8.55400
C         -2.93480        8.02360       -8.99200
C         -1.69320       10.82380       -7.01620
O         -2.14030       11.75280       -7.88650
C         -1.91740       13.11580       -7.60080
C         -1.01540       11.11080       -5.83910
C         -0.60640       10.06640       -5.01970
C          0.10790       10.06250       -3.74920
C          0.56190       11.17990       -3.09190
C          0.38540       12.49480       -3.56770
N          0.27020       13.58780       -3.90220
C          1.26450       11.19530       -1.87040
N          1.84200       11.29700       -0.88150
H         -1.02300       -7.40340       -2.98120
H         -3.97280       -9.10270        2.22790
H         -3.90900      -11.97870       -1.94240
H         -5.42770      -13.65150        0.63830
H         -7.30290      -12.74900       -1.02410
H         -8.47140      -14.14770        0.86830
H         -8.52260      -12.67130        3.07650
H         -7.38660      -10.36310        2.54320
H         -6.85040      -10.27100       -0.08780
H         -8.53990      -10.74990        0.19250
H         -5.47540      -12.20160        2.80210
H          0.10440       -7.18850        1.70110
H          0.41620       -8.19120        0.28450
H          2.43370       -8.11790        1.65160
H          2.44430       -6.35580        1.65940
H          2.74880       -7.23440        0.15690
H          3.47080       -4.53350        8.39270
H          2.86100       -5.31350        6.92310
H          5.76530       -4.48500        7.39770
H          5.14440       -5.24740        5.93070
H          5.13800       -6.13470        7.46010
H          2.91220        0.03470        6.87290
H          3.41140        3.61270        4.50450
H          6.95740        1.84440        8.12970
H          7.10980        3.54990        7.67080
H          8.38950        1.18960        6.19780
H          9.23540        2.31230        7.26960
H          8.55920        2.88830        5.74290
H          2.81620        7.31730        1.21980
H          2.53400        8.60650        0.04230
H          0.46130        7.47300        1.98450
H          1.26960        9.03930        2.11580
H          0.14090        8.73880        0.79390
H          0.80250        2.78940       -3.20100
H          0.57910        1.04500       -3.14510
H         -1.57850        2.11040       -3.68210
H         -1.40370        3.24300       -2.34490
H         -1.72130        1.54300       -2.00930
H         -0.76510       -0.29330       -2.55210
H         -1.02890       -2.02990       -2.47650
H          0.15570       -1.35270       -4.58920
H          1.05700       -2.51810       -3.62060
H          1.54090       -0.82550       -3.62020
H          1.20310        9.03240       -1.51990
H         -1.74200        7.40540       -6.80420
H         -3.45760        8.14870       -9.93840
H         -3.58670        7.50420       -8.28280
H         -2.02800        7.43240       -9.15340
H         -2.36380       13.66230       -8.42930
H         -0.84930       13.34610       -7.54640
H         -2.40000       13.41510       -6.66570
H         -0.81260       12.13170       -5.56850
