
  xtb     02022210203D
 energy: -235.961083200109 gnorm: 0.000304396354 xtb: 6.4.1 (unknown)
136153  0     0  0            999 V2000
   -3.8847    1.9280   -6.1615 C   0  0  0  0  0  0  0  0  0  0  0  0
   -4.5173    3.0400   -5.6917 C   0  0  0  0  0  0  0  0  0  0  0  0
   -5.8776    3.3788   -6.1813 C   0  0  0  0  0  0  0  0  0  0  0  0
   -6.4212    2.9524   -7.1757 O   0  0  0  0  0  0  0  0  0  0  0  0
   -6.4373    4.2883   -5.1597 C   0  0  0  0  0  0  0  0  0  0  0  0
   -7.7446    4.7631   -5.0778 C   0  0  0  0  0  0  0  0  0  0  0  0
   -7.9839    5.5591   -3.9832 C   0  0  0  0  0  0  0  0  0  0  0  0
   -6.9992    5.8637   -3.0335 C   0  0  0  0  0  0  0  0  0  0  0  0
   -5.7033    5.4099   -3.1042 C   0  0  0  0  0  0  0  0  0  0  0  0
   -5.4401    4.5995   -4.2112 C   0  0  0  0  0  0  0  0  0  0  0  0
   -4.1954    3.9585   -4.6256 C   0  0  0  0  0  0  0  0  0  0  0  0
   -2.9290    4.3442   -4.2661 C   0  0  0  0  0  0  0  0  0  0  0  0
   -1.7858    3.8875   -4.9541 C   0  0  0  0  0  0  0  0  0  0  0  0
   -0.8508    3.5688   -5.5395 N   0  0  0  0  0  0  0  0  0  0  0  0
   -2.6412    5.2883   -3.2636 C   0  0  0  0  0  0  0  0  0  0  0  0
   -2.3548    6.0318   -2.4364 N   0  0  0  0  0  0  0  0  0  0  0  0
   -7.9450    6.6949   -2.2023 C   0  0  0  0  0  0  0  0  0  0  0  0
   -7.8098    8.2273   -2.3245 C   0  0  0  0  0  0  0  0  0  0  0  0
   -9.1297    8.7489   -1.8035 C   0  0  0  0  0  0  0  0  0  0  0  0
  -10.0606    8.4631   -2.7048 C   0  0  0  0  0  0  0  0  0  0  0  0
   -9.3858    7.7432   -3.8501 C   0  0  0  0  0  0  0  0  0  0  0  0
   -8.0183    8.4381   -3.8297 C   0  0  0  0  0  0  0  0  0  0  0  0
   -9.0416    6.3581   -3.2631 C   0  0  0  0  0  0  0  0  0  0  0  0
   -2.8829    1.1447   -5.5536 C   0  0  0  0  0  0  0  0  0  0  0  0
   -2.2207    0.0719   -6.1534 C   0  0  0  0  0  0  0  0  0  0  0  0
   -2.2494   -0.1900   -7.5843 C   0  0  0  0  0  0  0  0  0  0  0  0
   -2.2123    0.8662   -8.4961 C   0  0  0  0  0  0  0  0  0  0  0  0
   -2.2286    0.6157   -9.8531 C   0  0  0  0  0  0  0  0  0  0  0  0
   -2.2829   -0.6852  -10.3398 C   0  0  0  0  0  0  0  0  0  0  0  0
   -2.2510   -0.9510  -11.8158 C   0  0  0  0  0  0  0  0  0  0  0  0
   -0.8043   -1.0606  -12.3033 C   0  0  0  0  0  0  0  0  0  0  0  0
   -2.3067   -1.7351   -9.4282 C   0  0  0  0  0  0  0  0  0  0  0  0
   -2.2865   -1.4970   -8.0695 C   0  0  0  0  0  0  0  0  0  0  0  0
   -1.4883   -0.6709   -5.2139 C   0  0  0  0  0  0  0  0  0  0  0  0
   -0.5142   -2.1179   -5.3379 S   0  0  0  0  0  0  0  0  0  0  0  0
   -0.1955   -2.0221   -3.6418 C   0  0  0  0  0  0  0  0  0  0  0  0
    0.4624   -2.7509   -2.6411 C   0  0  0  0  0  0  0  0  0  0  0  0
    1.0679   -4.0273   -2.6706 C   0  0  0  0  0  0  0  0  0  0  0  0
    1.4952   -4.6183   -1.4358 C   0  0  0  0  0  0  0  0  0  0  0  0
    1.9714   -5.8420   -1.5991 N   0  0  0  0  0  0  0  0  0  0  0  0
    1.8955   -6.2166   -3.1724 S   0  0  0  0  0  0  0  0  0  0  0  0
    1.2475   -4.8318   -3.7057 N   0  0  0  0  0  0  0  0  0  0  0  0
    1.4303   -3.8485   -0.2526 C   0  0  0  0  0  0  0  0  0  0  0  0
    1.8928   -4.1101    1.0436 C   0  0  0  0  0  0  0  0  0  0  0  0
    2.5842   -5.4104    1.9513 S   0  0  0  0  0  0  0  0  0  0  0  0
    2.6966   -4.3396    3.3353 C   0  0  0  0  0  0  0  0  0  0  0  0
    3.1404   -4.5283    4.6402 C   0  0  0  0  0  0  0  0  0  0  0  0
    3.5622   -5.8128    5.1867 C   0  0  0  0  0  0  0  0  0  0  0  0
    4.4549   -6.6232    4.4887 C   0  0  0  0  0  0  0  0  0  0  0  0
    4.8590   -7.8307    5.0214 C   0  0  0  0  0  0  0  0  0  0  0  0
    4.3724   -8.2709    6.2467 C   0  0  0  0  0  0  0  0  0  0  0  0
    4.8736   -9.5396    6.8674 C   0  0  0  0  0  0  0  0  0  0  0  0
    6.0500   -9.2245    7.7949 C   0  0  0  0  0  0  0  0  0  0  0  0
    3.4509   -7.4780    6.9206 C   0  0  0  0  0  0  0  0  0  0  0  0
    3.0499   -6.2648    6.4031 C   0  0  0  0  0  0  0  0  0  0  0  0
    3.0927   -3.3282    5.3826 C   0  0  0  0  0  0  0  0  0  0  0  0
    2.3836   -2.0059    4.4558 S   0  0  0  0  0  0  0  0  0  0  0  0
    2.2218   -3.0408    3.0845 C   0  0  0  0  0  0  0  0  0  0  0  0
    1.7390   -2.9271    1.7778 C   0  0  0  0  0  0  0  0  0  0  0  0
    1.1519   -1.9658    0.9998 N   0  0  0  0  0  0  0  0  0  0  0  0
    0.9318   -2.5120   -0.2512 C   0  0  0  0  0  0  0  0  0  0  0  0
    0.3114   -2.0179   -1.4290 C   0  0  0  0  0  0  0  0  0  0  0  0
   -0.4665   -0.9025   -1.6886 N   0  0  0  0  0  0  0  0  0  0  0  0
   -0.7850   -0.9159   -3.0188 C   0  0  0  0  0  0  0  0  0  0  0  0
   -1.5454   -0.1567   -3.9131 C   0  0  0  0  0  0  0  0  0  0  0  0
   -2.5491    1.2435   -3.8269 S   0  0  0  0  0  0  0  0  0  0  0  0
   -1.1881   -0.0404   -0.7801 C   0  0  0  0  0  0  0  0  0  0  0  0
   -2.1190   -0.8359    0.1309 C   0  0  0  0  0  0  0  0  0  0  0  0
    1.1932   -0.5806    1.4160 C   0  0  0  0  0  0  0  0  0  0  0  0
    2.1235    0.2443    0.5312 C   0  0  0  0  0  0  0  0  0  0  0  0
    3.6742   -3.2131    6.6463 C   0  0  0  0  0  0  0  0  0  0  0  0
    3.8075   -2.1209    7.4747 C   0  0  0  0  0  0  0  0  0  0  0  0
    3.3096   -0.7733    7.2017 C   0  0  0  0  0  0  0  0  0  0  0  0
    2.6467   -0.4021    6.2453 O   0  0  0  0  0  0  0  0  0  0  0  0
    3.7712    0.0712    8.3156 C   0  0  0  0  0  0  0  0  0  0  0  0
    3.5979    1.4114    8.5027 C   0  0  0  0  0  0  0  0  0  0  0  0
    4.1558    2.0235    9.6474 C   0  0  0  0  0  0  0  0  0  0  0  0
    4.0146    3.4048    9.8892 C   0  0  0  0  0  0  0  0  0  0  0  0
    4.5638    3.9855   10.9987 C   0  0  0  0  0  0  0  0  0  0  0  0
    5.2749    3.1837   11.9010 C   0  0  0  0  0  0  0  0  0  0  0  0
    5.8089    3.7728   12.9872 F   0  0  0  0  0  0  0  0  0  0  0  0
    5.4413    1.8395   11.7143 C   0  0  0  0  0  0  0  0  0  0  0  0
    4.8826    1.2251   10.5770 C   0  0  0  0  0  0  0  0  0  0  0  0
    5.0418   -0.1637   10.3557 C   0  0  0  0  0  0  0  0  0  0  0  0
    4.4937   -0.7353    9.2394 C   0  0  0  0  0  0  0  0  0  0  0  0
    4.5043   -2.1112    8.7427 C   0  0  0  0  0  0  0  0  0  0  0  0
    5.0726   -3.1760    9.3972 C   0  0  0  0  0  0  0  0  0  0  0  0
    5.7209   -3.0767   10.6459 C   0  0  0  0  0  0  0  0  0  0  0  0
    6.2588   -3.0721   11.6607 N   0  0  0  0  0  0  0  0  0  0  0  0
    5.0947   -4.5163    8.9616 C   0  0  0  0  0  0  0  0  0  0  0  0
    5.1653   -5.6346    8.7046 N   0  0  0  0  0  0  0  0  0  0  0  0
   -4.2993    1.5138   -7.0764 H   0  0  0  0  0  0  0  0  0  0  0  0
   -8.4774    4.5021   -5.8251 H   0  0  0  0  0  0  0  0  0  0  0  0
   -4.9522    5.6375   -2.3651 H   0  0  0  0  0  0  0  0  0  0  0  0
   -8.0929    6.3610   -1.1769 H   0  0  0  0  0  0  0  0  0  0  0  0
   -6.9091    8.6417   -1.8801 H   0  0  0  0  0  0  0  0  0  0  0  0
   -9.2558    9.2069   -0.8400 H   0  0  0  0  0  0  0  0  0  0  0  0
  -11.1194    8.6345   -2.6445 H   0  0  0  0  0  0  0  0  0  0  0  0
   -9.9213    7.7174   -4.7952 H   0  0  0  0  0  0  0  0  0  0  0  0
   -7.2666    7.9575   -4.4530 H   0  0  0  0  0  0  0  0  0  0  0  0
   -8.0886    9.4925   -4.0916 H   0  0  0  0  0  0  0  0  0  0  0  0
   -9.9209    5.8010   -2.9444 H   0  0  0  0  0  0  0  0  0  0  0  0
   -2.1297    1.8801   -8.1333 H   0  0  0  0  0  0  0  0  0  0  0  0
   -2.1952    1.4429  -10.5471 H   0  0  0  0  0  0  0  0  0  0  0  0
   -2.7497   -0.1394  -12.3491 H   0  0  0  0  0  0  0  0  0  0  0  0
   -2.7769   -1.8817  -12.0371 H   0  0  0  0  0  0  0  0  0  0  0  0
   -0.7777   -1.2517  -13.3733 H   0  0  0  0  0  0  0  0  0  0  0  0
   -0.2660   -0.1374  -12.1012 H   0  0  0  0  0  0  0  0  0  0  0  0
   -0.2931   -1.8729  -11.7916 H   0  0  0  0  0  0  0  0  0  0  0  0
   -2.3451   -2.7527   -9.7893 H   0  0  0  0  0  0  0  0  0  0  0  0
   -2.3230   -2.3242   -7.3767 H   0  0  0  0  0  0  0  0  0  0  0  0
    4.8516   -6.2865    3.5424 H   0  0  0  0  0  0  0  0  0  0  0  0
    5.5682   -8.4400    4.4798 H   0  0  0  0  0  0  0  0  0  0  0  0
    5.1955  -10.2379    6.0922 H   0  0  0  0  0  0  0  0  0  0  0  0
    4.0758  -10.0103    7.4453 H   0  0  0  0  0  0  0  0  0  0  0  0
    6.3960  -10.1277    8.2921 H   0  0  0  0  0  0  0  0  0  0  0  0
    5.7507   -8.4990    8.5468 H   0  0  0  0  0  0  0  0  0  0  0  0
    6.8748   -8.8011    7.2265 H   0  0  0  0  0  0  0  0  0  0  0  0
    3.0500   -7.8121    7.8657 H   0  0  0  0  0  0  0  0  0  0  0  0
    2.3161   -5.6697    6.9279 H   0  0  0  0  0  0  0  0  0  0  0  0
   -0.4962    0.5775   -0.2065 H   0  0  0  0  0  0  0  0  0  0  0  0
   -1.7821    0.6358   -1.3999 H   0  0  0  0  0  0  0  0  0  0  0  0
   -2.6487   -0.1603    0.7970 H   0  0  0  0  0  0  0  0  0  0  0  0
   -2.8496   -1.3771   -0.4659 H   0  0  0  0  0  0  0  0  0  0  0  0
   -1.5669   -1.5575    0.7280 H   0  0  0  0  0  0  0  0  0  0  0  0
    1.5733   -0.5764    2.4404 H   0  0  0  0  0  0  0  0  0  0  0  0
    0.1884   -0.1572    1.4463 H   0  0  0  0  0  0  0  0  0  0  0  0
    2.1362    1.2758    0.8720 H   0  0  0  0  0  0  0  0  0  0  0  0
    1.8080    0.2219   -0.5092 H   0  0  0  0  0  0  0  0  0  0  0  0
    3.1353   -0.1504    0.5873 H   0  0  0  0  0  0  0  0  0  0  0  0
    4.1245   -4.1355    6.9933 H   0  0  0  0  0  0  0  0  0  0  0  0
    3.0462    1.9990    7.7841 H   0  0  0  0  0  0  0  0  0  0  0  0
    3.4627    4.0019    9.1787 H   0  0  0  0  0  0  0  0  0  0  0  0
    4.4657    5.0409   11.1981 H   0  0  0  0  0  0  0  0  0  0  0  0
    5.9956    1.2529   12.4302 H   0  0  0  0  0  0  0  0  0  0  0  0
    5.6005   -0.7363   11.0780 H   0  0  0  0  0  0  0  0  0  0  0  0
  1  2  2  0  0  0  0
  2  3  1  0  0  0  0
  3  4  2  0  0  0  0
  3  5  1  0  0  0  0
  5  6  2  0  0  0  0
  6  7  1  0  0  0  0
  7  8  2  0  0  0  0
  8  9  1  0  0  0  0
  9 10  2  0  0  0  0
 10 11  1  0  0  0  0
 11 12  2  0  0  0  0
 12 13  1  0  0  0  0
 13 14  3  0  0  0  0
 12 15  1  0  0  0  0
 15 16  3  0  0  0  0
  8 17  1  0  0  0  0
 17 18  1  0  0  0  0
 18 19  1  0  0  0  0
 19 20  2  0  0  0  0
 20 21  1  0  0  0  0
 21 22  1  0  0  0  0
 21 23  1  0  0  0  0
  1 24  1  0  0  0  0
 24 25  2  0  0  0  0
 25 26  1  0  0  0  0
 26 27  2  0  0  0  0
 27 28  1  0  0  0  0
 28 29  2  0  0  0  0
 29 30  1  0  0  0  0
 30 31  1  0  0  0  0
 29 32  1  0  0  0  0
 32 33  2  0  0  0  0
 25 34  1  0  0  0  0
 34 35  1  0  0  0  0
 35 36  1  0  0  0  0
 36 37  1  0  0  0  0
 37 38  1  0  0  0  0
 38 39  1  0  0  0  0
 39 40  2  0  0  0  0
 40 41  1  0  0  0  0
 41 42  1  0  0  0  0
 39 43  1  0  0  0  0
 43 44  1  0  0  0  0
 44 45  1  0  0  0  0
 45 46  1  0  0  0  0
 46 47  1  0  0  0  0
 47 48  1  0  0  0  0
 48 49  2  0  0  0  0
 49 50  1  0  0  0  0
 50 51  2  0  0  0  0
 51 52  1  0  0  0  0
 52 53  1  0  0  0  0
 51 54  1  0  0  0  0
 54 55  2  0  0  0  0
 47 56  2  0  0  0  0
 56 57  1  0  0  0  0
 57 58  1  0  0  0  0
 58 59  1  0  0  0  0
 59 60  1  0  0  0  0
 60 61  1  0  0  0  0
 61 62  1  0  0  0  0
 62 63  1  0  0  0  0
 63 64  1  0  0  0  0
 64 65  1  0  0  0  0
 65 66  1  0  0  0  0
 63 67  1  0  0  0  0
 67 68  1  0  0  0  0
 60 69  1  0  0  0  0
 69 70  1  0  0  0  0
 56 71  1  0  0  0  0
 71 72  2  0  0  0  0
 72 73  1  0  0  0  0
 73 74  2  0  0  0  0
 73 75  1  0  0  0  0
 75 76  2  0  0  0  0
 76 77  1  0  0  0  0
 77 78  2  0  0  0  0
 78 79  1  0  0  0  0
 79 80  2  0  0  0  0
 80 81  1  0  0  0  0
 80 82  1  0  0  0  0
 82 83  2  0  0  0  0
 83 84  1  0  0  0  0
 84 85  2  0  0  0  0
 85 86  1  0  0  0  0
 86 87  2  0  0  0  0
 87 88  1  0  0  0  0
 88 89  3  0  0  0  0
 87 90  1  0  0  0  0
 90 91  3  0  0  0  0
 11  2  1  0  0  0  0
 23 17  1  0  0  0  0
 66 24  1  0  0  0  0
 86 72  1  0  0  0  0
 10  5  1  0  0  0  0
 22 18  1  0  0  0  0
 33 26  1  0  0  0  0
 65 34  2  0  0  0  0
 85 75  1  0  0  0  0
 23  7  1  0  0  0  0
 64 36  2  0  0  0  0
 83 77  1  0  0  0  0
 62 37  2  0  0  0  0
 42 38  2  0  0  0  0
 61 43  2  0  0  0  0
 59 44  2  0  0  0  0
 58 46  2  0  0  0  0
 55 48  1  0  0  0  0
  1 92  1  0  0  0  0
  6 93  1  0  0  0  0
  9 94  1  0  0  0  0
 17 95  1  0  0  0  0
 18 96  1  0  0  0  0
 19 97  1  0  0  0  0
 20 98  1  0  0  0  0
 21 99  1  0  0  0  0
 22100  1  0  0  0  0
 22101  1  0  0  0  0
 23102  1  0  0  0  0
 27103  1  0  0  0  0
 28104  1  0  0  0  0
 30105  1  0  0  0  0
 30106  1  0  0  0  0
 31107  1  0  0  0  0
 31108  1  0  0  0  0
 31109  1  0  0  0  0
 32110  1  0  0  0  0
 33111  1  0  0  0  0
 49112  1  0  0  0  0
 50113  1  0  0  0  0
 52114  1  0  0  0  0
 52115  1  0  0  0  0
 53116  1  0  0  0  0
 53117  1  0  0  0  0
 53118  1  0  0  0  0
 54119  1  0  0  0  0
 55120  1  0  0  0  0
 67121  1  0  0  0  0
 67122  1  0  0  0  0
 68123  1  0  0  0  0
 68124  1  0  0  0  0
 68125  1  0  0  0  0
 69126  1  0  0  0  0
 69127  1  0  0  0  0
 70128  1  0  0  0  0
 70129  1  0  0  0  0
 70130  1  0  0  0  0
 71131  1  0  0  0  0
 76132  1  0  0  0  0
 78133  1  0  0  0  0
 79134  1  0  0  0  0
 82135  1  0  0  0  0
 84136  1  0  0  0  0
M  END
