111

C         -1.92460        1.10270        4.36320
C         -1.21640        1.92450        5.20160
C          0.10730        2.51140        4.95490
O          0.85720        2.29090        4.02180
C          0.35910        3.44140        6.07070
C          1.46940        4.26440        6.23960
C          1.41790        5.04780        7.36770
C          0.34190        5.01170        8.26430
C         -0.75560        4.19780        8.11320
C         -0.72470        3.39420        6.97010
C         -1.70020        2.42550        6.47310
C         -2.84390        2.04680        7.13190
C         -3.77390        1.08540        6.68720
N         -4.58020        0.31530        6.40510
C         -3.25280        2.55540        8.38220
N         -3.65690        2.91830        9.39420
C          0.94250        6.07220        9.15240
C          0.36500        7.50590        9.05210
C         -0.19870        7.64540        7.65980
C          0.82050        7.67940        6.81180
C          2.09200        7.56330        7.61550
C          1.67080        8.30150        8.89620
C          2.14210        6.11170        8.15400
C         -1.60760        0.55440        3.11230
C         -2.52820       -0.21080        2.36600
C         -3.90670       -0.54120        2.85710
C         -4.89640        0.60340        2.61540
C         -1.96000       -0.61360        1.15680
C         -0.61630       -0.21790        1.01950
S         -0.03860        0.72230        2.32400
C         -0.15050       -0.72390       -0.20060
C          1.06800       -0.55960       -0.88910
N          2.19460        0.09010       -0.59380
N          2.94130       -0.06650       -1.65680
C          4.24580        0.52260       -1.75070
C          4.13850        2.02200       -2.01000
N          2.42490       -0.76000       -2.64060
C          1.21550       -1.10360       -2.19300
C          0.18710       -1.90420       -2.72860
C          0.07510       -2.62770       -3.91710
S          0.93930       -2.83880       -5.37590
C         -0.33670       -3.90810       -5.96510
C         -1.36620       -4.09890       -5.04060
C         -2.56380       -4.94090       -5.36430
C         -2.34070       -6.41000       -4.98950
C         -1.12720       -3.35570       -3.87630
N         -1.77040       -3.08410       -2.68760
C         -2.74770       -3.99090       -2.12100
C         -2.27390       -4.60330       -0.80520
C         -1.00220       -2.16110       -1.98770
C         -1.22120       -1.45990       -0.77820
N         -2.33690       -1.35230        0.04920
C         -3.71830       -1.38240       -0.39460
C         -3.92100       -0.65620       -1.72230
C         -0.22040       -4.52530       -7.22640
C          0.52800       -4.12470       -8.29830
C          0.93330       -5.10630       -9.32900
O          0.52500       -6.23770       -9.46560
C          1.98490       -4.42090      -10.11870
C          2.77230       -4.92840      -11.13300
C          3.71290       -4.08400      -11.70160
F          4.49940       -4.53680      -12.68710
C          3.85220       -2.76900      -11.25800
F          4.77950       -1.98240      -11.81760
C          3.05420       -2.25380      -10.24710
C          2.11210       -3.09230       -9.67530
C          1.10970       -2.84780       -8.63850
C          0.61440       -1.61700       -8.29120
C         -0.57040       -1.45330       -7.54360
N         -1.56710       -1.29060       -6.99720
C          1.16480       -0.39600       -8.72640
N          1.58960        0.62240       -9.04300
H         -2.91580        0.84460        4.70790
H          2.27560        4.26060        5.52280
H         -1.57500        4.18510        8.81210
H          1.14330        5.77690       10.18030
H         -0.29700        7.78360        9.86790
H         -1.24960        7.64690        7.43660
H          0.79120        7.71450        5.73840
H          3.00290        7.89420        7.12350
H          2.36430        8.16390        9.72460
H          1.49940        9.36440        8.73240
H          3.12730        5.84230        8.52980
H         -3.87900       -0.75700        3.92670
H         -4.25880       -1.44840        2.36320
H         -4.58100        1.49790        3.14620
H         -5.88210        0.32160        2.97580
H         -4.96850        0.85060        1.55770
H          4.76600        0.34130       -0.80710
H          4.76420        0.01990       -2.56880
H          5.13120        2.46030       -2.05630
H          3.62890        2.20750       -2.95240
H          3.58010        2.49580       -1.20660
H         -2.76510       -4.87240       -6.43380
H         -3.44130       -4.54850       -4.84790
H         -1.50750       -6.82440       -5.55120
H         -3.23120       -6.99110       -5.21590
H         -2.11520       -6.52120       -3.93060
H         -2.88870       -4.79480       -2.84020
H         -3.71120       -3.49080       -1.99960
H         -1.33000       -5.12290       -0.95570
H         -3.01100       -5.32020       -0.45230
H         -2.12740       -3.84960       -0.03730
H         -4.30470       -0.86730        0.36320
H         -4.08430       -2.41080       -0.44480
H         -4.97950       -0.64430       -1.97030
H         -3.38050       -1.12970       -2.53630
H         -3.57420        0.37150       -1.63850
H         -0.70760       -5.48700       -7.34980
H          2.66410       -5.94480      -11.47630
H          3.19680       -1.23240       -9.93360
