
  xtb     02102221503D
 energy: -174.191594331193 gnorm: 0.000191869186 xtb: 6.4.1 (unknown)
 98111  0     0  0            999 V2000
   -0.8197   -2.2207    5.2859 C   0  0  0  0  0  0  0  0  0  0  0  0
    0.4232   -2.7068    5.5880 C   0  0  0  0  0  0  0  0  0  0  0  0
    1.6960   -2.5403    4.8494 C   0  0  0  0  0  0  0  0  0  0  0  0
    2.0019   -1.7002    4.0250 O   0  0  0  0  0  0  0  0  0  0  0  0
    2.5776   -3.6225    5.3221 C   0  0  0  0  0  0  0  0  0  0  0  0
    3.8308   -3.9548    4.8107 C   0  0  0  0  0  0  0  0  0  0  0  0
    4.4128   -5.0385    5.4215 C   0  0  0  0  0  0  0  0  0  0  0  0
    3.7959   -5.7411    6.4657 C   0  0  0  0  0  0  0  0  0  0  0  0
    2.5641   -5.4191    6.9842 C   0  0  0  0  0  0  0  0  0  0  0  0
    1.9547   -4.3165    6.3768 C   0  0  0  0  0  0  0  0  0  0  0  0
    0.6614   -3.6906    6.6348 C   0  0  0  0  0  0  0  0  0  0  0  0
   -0.1391   -3.9411    7.7171 C   0  0  0  0  0  0  0  0  0  0  0  0
    0.1573   -4.8894    8.7187 C   0  0  0  0  0  0  0  0  0  0  0  0
    0.3378   -5.6437    9.5652 N   0  0  0  0  0  0  0  0  0  0  0  0
   -1.3321   -3.2525    8.0269 C   0  0  0  0  0  0  0  0  0  0  0  0
   -2.2943   -2.7257    8.3666 N   0  0  0  0  0  0  0  0  0  0  0  0
    4.9397   -6.7171    6.5903 C   0  0  0  0  0  0  0  0  0  0  0  0
    5.9099   -6.4985    7.7703 C   0  0  0  0  0  0  0  0  0  0  0  0
    7.1481   -7.2661    7.3666 C   0  0  0  0  0  0  0  0  0  0  0  0
    7.7323   -6.5997    6.3791 C   0  0  0  0  0  0  0  0  0  0  0  0
    6.8984   -5.3705    6.0982 C   0  0  0  0  0  0  0  0  0  0  0  0
    6.3928   -5.0650    7.5140 C   0  0  0  0  0  0  0  0  0  0  0  0
    5.6274   -5.9326    5.4271 C   0  0  0  0  0  0  0  0  0  0  0  0
   -1.2453   -1.3682    4.2478 C   0  0  0  0  0  0  0  0  0  0  0  0
   -2.9960   -1.2885    3.9599 S   0  0  0  0  0  0  0  0  0  0  0  0
   -2.7305   -0.2854    2.6001 C   0  0  0  0  0  0  0  0  0  0  0  0
   -3.4287    0.3417    1.5597 C   0  0  0  0  0  0  0  0  0  0  0  0
   -4.8123    0.4344    1.2936 C   0  0  0  0  0  0  0  0  0  0  0  0
   -5.2477    1.1536    0.1329 C   0  0  0  0  0  0  0  0  0  0  0  0
   -6.5666    1.1899    0.0251 N   0  0  0  0  0  0  0  0  0  0  0  0
   -7.2049    0.3835    1.2745 S   0  0  0  0  0  0  0  0  0  0  0  0
   -5.8240   -0.0430    2.0015 N   0  0  0  0  0  0  0  0  0  0  0  0
   -4.2756    1.6581   -0.7587 C   0  0  0  0  0  0  0  0  0  0  0  0
   -4.4082    2.2063   -2.0410 C   0  0  0  0  0  0  0  0  0  0  0  0
   -3.1123    2.3997   -2.5433 C   0  0  0  0  0  0  0  0  0  0  0  0
   -2.1881    2.0262   -1.6023 N   0  0  0  0  0  0  0  0  0  0  0  0
   -0.8307    1.7540   -2.0233 C   0  0  0  0  0  0  0  0  0  0  0  0
   -0.5850    0.2554   -2.1748 C   0  0  0  0  0  0  0  0  0  0  0  0
   -2.8782    1.5453   -0.4991 C   0  0  0  0  0  0  0  0  0  0  0  0
   -2.4541    0.9683    0.7254 C   0  0  0  0  0  0  0  0  0  0  0  0
   -1.2058    0.7784    1.2950 N   0  0  0  0  0  0  0  0  0  0  0  0
   -1.3680    0.0022    2.4145 C   0  0  0  0  0  0  0  0  0  0  0  0
   -0.5288   -0.5964    3.3469 C   0  0  0  0  0  0  0  0  0  0  0  0
    0.0198    1.5269    1.1194 C   0  0  0  0  0  0  0  0  0  0  0  0
   -0.2206    3.0304    1.2308 C   0  0  0  0  0  0  0  0  0  0  0  0
   -3.0855    2.8213   -3.8693 C   0  0  0  0  0  0  0  0  0  0  0  0
   -4.3643    2.9297   -4.3922 C   0  0  0  0  0  0  0  0  0  0  0  0
   -5.6145    2.5849   -3.1931 S   0  0  0  0  0  0  0  0  0  0  0  0
   -4.7624    3.2552   -5.7051 C   0  0  0  0  0  0  0  0  0  0  0  0
   -4.0469    3.2137   -6.8649 C   0  0  0  0  0  0  0  0  0  0  0  0
   -4.5741    3.9435   -8.0523 C   0  0  0  0  0  0  0  0  0  0  0  0
   -5.6895    4.4035   -8.1653 O   0  0  0  0  0  0  0  0  0  0  0  0
   -3.4485    4.0125   -9.0020 C   0  0  0  0  0  0  0  0  0  0  0  0
   -2.3703    3.2911   -8.4911 C   0  0  0  0  0  0  0  0  0  0  0  0
   -1.1567    3.2352   -9.1887 C   0  0  0  0  0  0  0  0  0  0  0  0
   -1.0558    3.8883  -10.3894 C   0  0  0  0  0  0  0  0  0  0  0  0
   -2.1371    4.6046  -10.9467 C   0  0  0  0  0  0  0  0  0  0  0  0
   -2.0320    5.2541  -12.1934 C   0  0  0  0  0  0  0  0  0  0  0  0
   -3.0947    5.9404  -12.7133 C   0  0  0  0  0  0  0  0  0  0  0  0
   -4.3091    6.0126  -12.0115 C   0  0  0  0  0  0  0  0  0  0  0  0
   -4.4495    5.3979  -10.7981 C   0  0  0  0  0  0  0  0  0  0  0  0
   -3.3724    4.6798  -10.2394 C   0  0  0  0  0  0  0  0  0  0  0  0
   -2.7684    2.6532   -7.2365 C   0  0  0  0  0  0  0  0  0  0  0  0
   -2.1433    1.5580   -6.6957 C   0  0  0  0  0  0  0  0  0  0  0  0
   -2.6496    0.7584   -5.6526 C   0  0  0  0  0  0  0  0  0  0  0  0
   -2.9840    0.0299   -4.8297 N   0  0  0  0  0  0  0  0  0  0  0  0
   -0.9182    1.0307   -7.1540 C   0  0  0  0  0  0  0  0  0  0  0  0
    0.0927    0.5653   -7.4378 N   0  0  0  0  0  0  0  0  0  0  0  0
   -1.6403   -2.6063    5.8803 H   0  0  0  0  0  0  0  0  0  0  0  0
    4.2651   -3.3919    3.9993 H   0  0  0  0  0  0  0  0  0  0  0  0
    2.0970   -5.9762    7.7790 H   0  0  0  0  0  0  0  0  0  0  0  0
    4.6876   -7.7643    6.4347 H   0  0  0  0  0  0  0  0  0  0  0  0
    5.4931   -6.7200    8.7489 H   0  0  0  0  0  0  0  0  0  0  0  0
    7.4316   -8.2123    7.7887 H   0  0  0  0  0  0  0  0  0  0  0  0
    8.6009   -6.8778    5.8114 H   0  0  0  0  0  0  0  0  0  0  0  0
    7.3828   -4.5644    5.5536 H   0  0  0  0  0  0  0  0  0  0  0  0
    5.6026   -4.3175    7.5516 H   0  0  0  0  0  0  0  0  0  0  0  0
    7.1995   -4.7764    8.1857 H   0  0  0  0  0  0  0  0  0  0  0  0
    5.8341   -6.4569    4.4958 H   0  0  0  0  0  0  0  0  0  0  0  0
   -0.7045    2.2354   -2.9945 H   0  0  0  0  0  0  0  0  0  0  0  0
   -0.1179    2.2183   -1.3428 H   0  0  0  0  0  0  0  0  0  0  0  0
   -1.2783   -0.1559   -2.9059 H   0  0  0  0  0  0  0  0  0  0  0  0
    0.4300    0.0782   -2.5205 H   0  0  0  0  0  0  0  0  0  0  0  0
   -0.7323   -0.2653   -1.2318 H   0  0  0  0  0  0  0  0  0  0  0  0
    0.5418   -0.5265    3.3809 H   0  0  0  0  0  0  0  0  0  0  0  0
    0.6892    1.2123    1.9222 H   0  0  0  0  0  0  0  0  0  0  0  0
    0.5054    1.2627    0.1786 H   0  0  0  0  0  0  0  0  0  0  0  0
    0.7154    3.5659    1.0957 H   0  0  0  0  0  0  0  0  0  0  0  0
   -0.6169    3.2701    2.2149 H   0  0  0  0  0  0  0  0  0  0  0  0
   -0.9338    3.3761    0.4863 H   0  0  0  0  0  0  0  0  0  0  0  0
   -2.2052    3.0729   -4.4330 H   0  0  0  0  0  0  0  0  0  0  0  0
   -5.7763    3.6282   -5.8148 H   0  0  0  0  0  0  0  0  0  0  0  0
   -0.3112    2.7000   -8.7883 H   0  0  0  0  0  0  0  0  0  0  0  0
   -0.1251    3.8581  -10.9375 H   0  0  0  0  0  0  0  0  0  0  0  0
   -1.0968    5.1963  -12.7315 H   0  0  0  0  0  0  0  0  0  0  0  0
   -3.0066    6.4330  -13.6703 H   0  0  0  0  0  0  0  0  0  0  0  0
   -5.1350    6.5597  -12.4406 H   0  0  0  0  0  0  0  0  0  0  0  0
   -5.3769    5.4461  -10.2496 H   0  0  0  0  0  0  0  0  0  0  0  0
  1  2  2  0  0  0  0
  2  3  1  0  0  0  0
  3  4  2  0  0  0  0
  3  5  1  0  0  0  0
  5  6  2  0  0  0  0
  6  7  1  0  0  0  0
  7  8  2  0  0  0  0
  8  9  1  0  0  0  0
  9 10  2  0  0  0  0
 10 11  1  0  0  0  0
 11 12  2  0  0  0  0
 12 13  1  0  0  0  0
 13 14  3  0  0  0  0
 12 15  1  0  0  0  0
 15 16  3  0  0  0  0
  8 17  1  0  0  0  0
 17 18  1  0  0  0  0
 18 19  1  0  0  0  0
 19 20  2  0  0  0  0
 20 21  1  0  0  0  0
 21 22  1  0  0  0  0
 21 23  1  0  0  0  0
  1 24  1  0  0  0  0
 24 25  1  0  0  0  0
 25 26  1  0  0  0  0
 26 27  1  0  0  0  0
 27 28  1  0  0  0  0
 28 29  1  0  0  0  0
 29 30  2  0  0  0  0
 30 31  1  0  0  0  0
 31 32  1  0  0  0  0
 29 33  1  0  0  0  0
 33 34  1  0  0  0  0
 34 35  2  0  0  0  0
 35 36  1  0  0  0  0
 36 37  1  0  0  0  0
 37 38  1  0  0  0  0
 36 39  1  0  0  0  0
 39 40  1  0  0  0  0
 40 41  1  0  0  0  0
 41 42  1  0  0  0  0
 42 43  1  0  0  0  0
 41 44  1  0  0  0  0
 44 45  1  0  0  0  0
 35 46  1  0  0  0  0
 46 47  2  0  0  0  0
 47 48  1  0  0  0  0
 47 49  1  0  0  0  0
 49 50  2  0  0  0  0
 50 51  1  0  0  0  0
 51 52  2  0  0  0  0
 51 53  1  0  0  0  0
 53 54  2  0  0  0  0
 54 55  1  0  0  0  0
 55 56  2  0  0  0  0
 56 57  1  0  0  0  0
 57 58  2  0  0  0  0
 58 59  1  0  0  0  0
 59 60  2  0  0  0  0
 60 61  1  0  0  0  0
 61 62  2  0  0  0  0
 54 63  1  0  0  0  0
 63 64  2  0  0  0  0
 64 65  1  0  0  0  0
 65 66  3  0  0  0  0
 64 67  1  0  0  0  0
 67 68  3  0  0  0  0
 11  2  1  0  0  0  0
 23 17  1  0  0  0  0
 43 24  2  0  0  0  0
 63 50  1  0  0  0  0
 10  5  1  0  0  0  0
 22 18  1  0  0  0  0
 42 26  2  0  0  0  0
 62 53  1  0  0  0  0
 23  7  1  0  0  0  0
 40 27  2  0  0  0  0
 62 57  1  0  0  0  0
 32 28  2  0  0  0  0
 39 33  2  0  0  0  0
 48 34  1  0  0  0  0
  1 69  1  0  0  0  0
  6 70  1  0  0  0  0
  9 71  1  0  0  0  0
 17 72  1  0  0  0  0
 18 73  1  0  0  0  0
 19 74  1  0  0  0  0
 20 75  1  0  0  0  0
 21 76  1  0  0  0  0
 22 77  1  0  0  0  0
 22 78  1  0  0  0  0
 23 79  1  0  0  0  0
 37 80  1  0  0  0  0
 37 81  1  0  0  0  0
 38 82  1  0  0  0  0
 38 83  1  0  0  0  0
 38 84  1  0  0  0  0
 43 85  1  0  0  0  0
 44 86  1  0  0  0  0
 44 87  1  0  0  0  0
 45 88  1  0  0  0  0
 45 89  1  0  0  0  0
 45 90  1  0  0  0  0
 46 91  1  0  0  0  0
 49 92  1  0  0  0  0
 55 93  1  0  0  0  0
 56 94  1  0  0  0  0
 58 95  1  0  0  0  0
 59 96  1  0  0  0  0
 60 97  1  0  0  0  0
 61 98  1  0  0  0  0
M  END
