188

C          4.71930       -6.88580        2.24480
C          5.35600       -7.04790        3.44940
C          5.77650       -5.96850        4.34810
O          5.79190       -4.77180        4.11400
C          6.16940       -6.61390        5.61270
C          6.55670       -5.98290        6.79270
C          6.82060       -6.84770        7.82780
C          6.70620       -8.23800        7.69940
C          6.33040       -8.87330        6.53940
C          6.05970       -8.01210        5.47210
C          5.61320       -8.31010        4.11160
C          5.49900       -9.56590        3.57100
C          5.79140      -10.76080        4.26040
N          6.01260      -11.77230        4.75720
C          5.10400       -9.85590        2.24870
N          4.79870      -10.18090        1.18960
C          7.10470       -8.48430        9.13330
C          8.54790       -8.97330        9.37600
C          8.79260       -8.66530       10.83560
C          8.90360       -7.34870       10.95710
C          8.73570       -6.74440        9.58150
C          9.36880       -7.85080        8.72800
C          7.23480       -6.93370        9.27610
C          4.34600       -5.71960        1.56560
S          4.74140       -4.06610        2.02040
C          3.80740       -3.48730        0.70970
C          3.36490       -2.24320        0.20760
C          2.47830       -2.46470       -0.84530
C          2.34730       -3.93680       -1.14950
C          3.20090       -4.51130       -0.04030
C          3.53020       -5.76160        0.42370
C          0.87420       -4.28810       -1.08570
C          0.08410       -4.10450       -2.21420
C         -1.27780       -4.32580       -2.15810
C         -1.88680       -4.73040       -0.97680
C         -3.37590       -4.91270       -0.91230
C         -4.07020       -3.57040       -0.67080
C         -1.09230       -4.91070        0.14690
C          0.27260       -4.68900        0.09780
C          2.96850       -4.34450       -2.47350
C          2.76200       -5.63550       -2.94420
C          3.34540       -6.05200       -4.12440
C          4.14970       -5.19340       -4.86410
C          4.81990       -5.66360       -6.12260
C          6.17800       -6.29090       -5.80080
C          4.35670       -3.90760       -4.38540
C          3.77640       -3.48530       -3.20250
C          1.86370       -1.28770       -1.25390
S          0.55090       -0.90710       -2.32450
C          0.61830        0.73760       -1.78440
C         -0.20990        1.88780       -1.95110
C         -1.42360        2.04270       -2.61380
C         -2.07460        3.24430       -2.46040
C         -3.46300        3.62050       -2.94970
C         -4.41940        2.59730       -2.35940
C         -4.67490        1.41420       -3.04130
C         -5.47060        0.43630       -2.47570
C         -6.02730        0.60950       -1.21530
C         -6.92080       -0.43860       -0.61770
C         -8.38050       -0.17420       -0.99190
C         -5.77240        1.79550       -0.54050
C         -4.97340        2.77560       -1.09980
C         -3.60900        3.72240       -4.45500
C         -2.51340        3.72090       -5.30440
C         -2.68940        3.85270       -6.67090
C         -3.95600        4.00170       -7.21750
C         -4.15040        4.09760       -8.70320
C         -4.40530        2.71130       -9.29850
C         -5.04900        4.01350       -6.35900
C         -4.88040        3.87850       -4.99550
C         -3.61130        4.99980       -2.36100
C         -2.45470        5.34870       -1.65950
C         -1.51050        4.28060       -1.67820
C         -0.28180        4.13350       -1.03400
C          0.35540        2.92440       -1.16790
C          1.63170        2.45240       -0.49180
C          2.89360        3.04780       -1.09790
C          4.11710        2.77980       -0.49490
C          5.28880        3.26550       -1.04080
C          5.27210        4.02460       -2.20470
C          6.54080        4.59320       -2.77120
C          6.81020        5.98170       -2.18750
C          4.04790        4.28320       -2.80510
C          2.87070        3.79730       -2.26430
C          1.55060        2.71420        0.99730
C          2.00310        3.91930        1.51930
C          1.90890        4.17520        2.87370
C          1.36140        3.23820        3.74060
C          1.22990        3.53520        5.20630
C         -0.09240        4.25120        5.48920
C          0.89400        2.04340        3.21070
C          0.98170        1.78410        1.85540
C          1.62650        0.99460       -0.87030
C          2.33360       -0.16060       -0.54600
S          3.53350       -0.57320        0.64180
S         -2.54900        6.90850       -0.97840
C         -4.18540        7.10780       -1.62820
C         -4.58100        5.98230       -2.35070
C         -4.81480        8.32420       -1.33370
C         -6.08820        8.78220       -1.57850
C         -7.23340        8.05350       -2.15830
O         -7.27380        6.94360       -2.64930
C         -8.39420        8.96020       -2.01570
C         -9.70730        8.72510       -2.36670
C        -10.64100        9.72520       -2.12710
Cl       -12.28750        9.47360       -2.54670
C        -10.24390       10.93280       -1.54430
Cl       -11.40880       12.16000       -1.24630
C         -8.91770       11.16530       -1.19590
C         -7.98420       10.17010       -1.43480
C         -6.54410       10.10550       -1.19070
C         -5.78770       11.14980       -0.72310
C         -4.38840       11.15920       -0.54030
N         -3.25760       11.27440       -0.37200
C         -6.31480       12.41170       -0.37450
N         -6.67040       13.45960       -0.06850
H          4.39230       -7.78860        1.74250
H          6.62070       -4.90750        6.85060
H          6.23740       -9.94350        6.46130
H          6.37040       -9.00380        9.74610
H          8.74430       -9.99090        9.05010
H          8.80320       -9.40790       11.61180
H          9.02520       -6.77170       11.85510
H          9.10470       -5.73160        9.44380
H          9.19930       -7.73810        7.65880
H         10.43530       -7.95840        8.91850
H          6.58820       -6.42000        9.98530
H          3.19070       -6.69170        0.00400
H          0.54050       -3.78930       -3.14130
H         -1.87720       -4.17910       -3.04500
H         -3.73590       -5.33860       -1.85120
H         -3.63160       -5.60120       -0.10480
H         -3.83710       -2.87090       -1.47070
H         -3.73690       -3.13420        0.26820
H         -5.14860       -3.70510       -0.62680
H         -1.54560       -5.22560        1.07620
H          0.87060       -4.82770        0.98680
H          2.13110       -6.31160       -2.38600
H          3.17300       -7.05830       -4.47810
H          4.96450       -4.82160       -6.80250
H          4.19180       -6.40350       -6.62250
H          6.05380       -7.13920       -5.13160
H          6.82460       -5.56410       -5.31410
H          6.66380       -6.63420       -6.71110
H          4.97930       -3.22360       -4.94430
H          3.95530       -2.47920       -2.85180
H         -1.84540        1.23330       -3.18910
H         -4.25460        1.26050       -4.02480
H         -5.65800       -0.47860       -3.01980
H         -6.62750       -1.42500       -0.98240
H         -6.82110       -0.43300        0.46960
H         -9.02870       -0.93110       -0.55650
H         -8.69290        0.80220       -0.62860
H         -8.50250       -0.19120       -2.07260
H         -6.19780        1.95290        0.44040
H         -4.78190        3.68450       -0.54840
H         -1.51660        3.61390       -4.90160
H         -1.82570        3.84420       -7.32050
H         -5.00180        4.74480       -8.92310
H         -3.26220        4.53120       -9.16690
H         -3.56110        2.05410       -9.10130
H         -5.29450        2.26750       -8.85630
H         -4.54910        2.77920      -10.37430
H         -6.04350        4.13450       -6.76360
H         -5.74070        3.88660       -4.34270
H          0.12370        4.92900       -0.42780
H          4.14790        2.19220        0.41150
H          6.23080        3.04850       -0.55820
H          7.37940        3.93500       -2.53570
H          6.45990        4.66960       -3.85750
H          5.98960        6.65630       -2.42160
H          7.72810        6.39560       -2.59810
H          6.90790        5.92450       -1.10570
H          4.01210        4.87000       -3.71200
H          1.93170        4.00790       -2.75500
H          2.44360        4.65630        0.86330
H          2.27180        5.11510        3.26440
H          1.26570        2.60540        5.77730
H          2.05790        4.16840        5.53130
H         -0.93140        3.63140        5.18060
H         -0.18980        4.46540        6.55090
H         -0.14020        5.18860        4.93960
H          0.45840        1.30300        3.86640
H          0.60480        0.84940        1.46560
H         -5.54320        5.91620       -2.82220
H         -4.17120        9.00820       -0.79300
H         -9.99740        7.78760       -2.81400
H         -8.65290       12.10820       -0.74700
