123

C         -4.21930        1.19900       -7.52930
C         -5.23620        1.72950       -6.79320
C         -6.08330        2.79950       -7.38020
O         -6.17370        3.09390       -8.55150
C         -6.72600        3.46070       -6.22610
C         -7.50940        4.61300       -6.24130
C         -7.94260        5.01230       -4.99950
C         -7.61720        4.32390       -3.82280
C         -6.85140        3.18270       -3.79170
C         -6.40730        2.75650       -5.04580
C         -5.62100        1.58060       -5.40870
C         -5.51530        0.43340       -4.66390
C         -5.04160       -0.78380       -5.19650
N         -4.71520       -1.80380       -5.61060
C         -5.93270        0.31240       -3.32570
N         -6.21620        0.16560       -2.22220
C         -8.38360        5.28760       -2.95170
C         -9.75790        4.80750       -2.43910
C        -10.46290        6.08500       -2.04420
C        -10.77480        6.73460       -3.15840
C        -10.28590        5.90700       -4.32520
C        -10.48820        4.49830       -3.75240
C         -8.75060        6.05250       -4.26380
C         -3.04560        0.54860       -7.09630
C         -2.11410       -0.10230       -7.89810
C         -2.22820       -0.30530       -9.37310
C         -1.51630        0.82300      -10.12310
C         -1.01280       -0.54710       -7.16140
Se         0.56700       -1.47690       -7.64190
C          0.97630       -1.37360       -5.83120
C          1.99710       -1.75300       -4.95450
C          3.24080       -2.35000       -5.24660
C          4.16900       -2.55020       -4.18100
N          5.31030       -3.08130       -4.58960
S          5.21680       -3.31070       -6.19280
N          3.71600       -2.73730       -6.41970
C          3.77460       -2.21110       -2.87020
C          4.46610       -2.38670       -1.66910
Se         6.12120       -3.00000       -1.08160
C          5.43420       -2.63780        0.65290
C          5.97160       -2.78920        1.92440
C          7.37300       -3.25760        2.14500
C          8.32630       -2.07000        2.29650
C          5.06410       -2.39910        2.92300
S          3.53480       -1.84910        2.24060
C          4.12520       -2.12650        0.64470
C          3.60120       -1.98210       -0.64610
N          2.41480       -1.56130       -1.18330
C          2.49270       -1.66430       -2.55870
C          1.61030       -1.36180       -3.63770
N          0.39250       -0.71470       -3.74380
C          0.00780       -0.72660       -5.05650
C         -1.07980       -0.24790       -5.79410
S         -2.51410        0.62910       -5.41850
C         -0.48210       -0.08900       -2.78000
C         -1.62070       -1.02190       -2.36640
C          1.34960       -1.17180       -0.28960
C          1.50780        0.27400        0.18130
C          5.36270       -2.44150        4.28940
C          4.59140       -2.14680        5.38630
C          3.17580       -1.77040        5.37630
O          2.47220       -1.54180        4.40540
C          2.74680       -1.73000        6.78420
C          1.46370       -1.47570        7.26350
C          1.35840       -1.52900        8.63260
C          2.44890       -1.81560        9.46420
C          3.71960       -2.06860        9.00370
C          3.85000       -2.01730        7.61280
C          5.02270       -2.23660        6.76680
C          6.30000       -2.44310        7.22370
C          7.44600       -2.59840        6.41700
N          8.42870       -2.72140        5.83350
C          6.66260       -2.49870        8.58550
N          7.03670       -2.55570        9.66980
C          1.62140       -1.70930       10.72090
C          1.77460       -0.41160       11.54210
C          0.53450       -0.38320       12.40620
C         -0.49940       -0.11320       11.61960
C          0.02450        0.04580       10.21050
C          1.39970        0.65750       10.50760
C          0.40490       -1.39050        9.79350
H         -4.27610        1.40440       -8.59340
H         -7.73370        5.11900       -7.16720
H         -6.59660        2.66320       -2.88230
H         -7.80270        5.80650       -2.19140
H         -9.71480        4.01980       -1.69200
H        -10.60790        6.40090       -1.02780
H        -11.23230        7.70150       -3.25860
H        -10.72540        6.12180       -5.29550
H        -11.53980        4.26590       -3.59340
H        -10.02620        3.70840       -4.34170
H         -8.41590        7.08210       -4.37790
H         -1.74960       -1.25690       -9.62320
H         -3.27420       -0.35570       -9.67480
H         -1.58050        0.65710      -11.19510
H         -1.96960        1.78440       -9.89200
H         -0.46600        0.85690       -9.83860
H          7.67090       -3.84420        1.26970
H          7.44400       -3.89720        3.02570
H          9.34580       -2.42730        2.40850
H          8.27240       -1.43090        1.41750
H          8.07260       -1.48140        3.17450
H          0.09190        0.25570       -1.92540
H         -0.91130        0.79480       -3.26380
H         -2.24950       -1.25140       -3.22330
H         -2.23660       -0.54410       -1.60960
H         -1.24110       -1.96240       -1.97210
H          1.40590       -1.82700        0.58530
H          0.38850       -1.34510       -0.76580
H          1.62460        0.95740       -0.65800
H          0.63960        0.56940        0.76320
H          2.38760        0.36270        0.81290
H          6.36860       -2.78150        4.49540
H          0.65030       -1.26680        6.58640
H          4.54420       -2.29770        9.65750
H          1.58410       -2.60300       11.34080
H          2.72870       -0.30470       12.05070
H          0.52950       -0.61050       13.45610
H         -1.54050       -0.07010       11.88100
H         -0.61630        0.57030        9.50660
H          1.32220        1.64910       10.95030
H          2.06460        0.69410        9.64650
H         -0.44310       -2.07300        9.79450
