95

C         -1.36710        1.60300       -4.70320
C         -2.38100        2.11800       -5.46230
C         -3.82670        2.20070       -5.14810
O         -4.45360        1.61660       -4.28770
C         -4.38760        3.17470       -6.10260
C         -5.69300        3.66010       -6.12180
C         -5.93080        4.58440       -7.11000
C         -4.94150        5.00000       -8.01200
C         -3.65140        4.52590       -8.00650
C         -3.39050        3.57910       -7.01150
C         -2.15920        2.86510       -6.69070
C         -1.02820        2.84660       -7.46480
C         -0.87880        3.56280       -8.67120
N         -0.68370        4.11740       -9.65740
C          0.12750        2.07750       -7.21030
N          1.09540        1.47110       -7.08670
C         -5.87550        5.94690       -8.72280
C         -6.44670        5.50370      -10.09220
C         -6.45320        3.99510      -10.08560
C         -7.38940        3.59810       -9.23410
C         -8.03320        4.83110       -8.64970
C         -7.93940        5.78230       -9.85340
C         -6.97820        5.48090       -7.72040
C         -1.38100        0.87980       -3.49410
C         -2.40700        0.28980       -2.77900
C         -2.00260       -0.32930       -1.60150
S         -2.93790       -1.16060       -0.37790
C         -1.49150       -1.41020        0.53220
C         -1.08940       -1.94370        1.76860
C         -1.80900       -2.44150        2.87970
C         -1.10360       -2.72530        4.10210
N         -1.91760       -3.09880        5.07640
S         -3.43300       -3.10530        4.51020
N         -3.11390       -2.62610        2.99870
C          0.30800       -2.64580        4.11760
C          1.27610       -2.94810        5.09050
C          2.53180       -2.82430        4.47790
N          2.38070       -2.43730        3.16770
C          3.38160       -2.79570        2.18300
C          3.61820       -4.30520        2.15500
C          1.02470       -2.28410        2.94570
C          0.31960       -1.77570        1.83480
N          0.75840       -1.11260        0.70330
C         -0.34450       -0.89350       -0.08650
C         -0.62580       -0.27070       -1.30490
Se         0.31110        0.62130       -2.64060
C          1.89350       -0.21820        0.60100
C          1.49920        1.21700        0.94740
C          3.58500       -3.09880        5.35270
C          3.10780       -3.41770        6.64130
S          1.36120       -3.40040        6.75460
C          4.07000       -3.67780        7.60890
C          5.37440       -3.58300        7.15650
Se         5.44330       -3.12360        5.29950
C          6.61540       -3.74810        7.80020
C          6.95150       -4.03220        9.09530
C          6.06920       -4.25660       10.27440
O          4.85690       -4.24440       10.32710
C          6.98460       -4.50120       11.39790
C          6.89280       -4.77910       12.77170
C          8.13230       -4.91630       13.32380
S          9.42640       -4.71210       12.19840
C          8.29190       -4.43390       10.94360
C          8.33890       -4.14920        9.53610
C          9.50210       -4.02590        8.81670
C          9.62250       -3.75490        7.44110
N          9.80260       -3.53480        6.32750
C         10.75270       -4.17320        9.45380
N         11.77470       -4.29320        9.96160
H         -0.36250        1.81890       -5.05540
H         -6.42160        3.31790       -5.40350
H         -2.89940        4.86170       -8.70090
H         -5.58790        6.99640       -8.71270
H         -5.97910        5.97800      -10.95080
H         -5.75880        3.39150      -10.64000
H         -7.63390        2.59580       -8.93470
H         -9.01080        4.69310       -8.19520
H         -8.56500        5.46860      -10.68750
H         -8.15260        6.82080       -9.60350
H         -7.41270        6.22660       -7.05730
H         -3.43000        0.32800       -3.10950
H          3.04060       -2.48620        1.19650
H          4.31640       -2.27880        2.43140
H          2.68610       -4.82840        1.95260
H          4.33180       -4.54520        1.37190
H          4.01740       -4.65730        3.10360
H          2.67560       -0.53460        1.28700
H          2.26950       -0.26310       -0.42830
H          2.37410        1.85810        0.89060
H          0.74960        1.59370        0.25500
H          1.09540        1.26230        1.95660
H          3.83660       -3.92720        8.62920
H          7.45710       -3.61400        7.12740
H          5.97100       -4.87150       13.31540
H          8.37270       -5.13000       14.34700
