119

C         -1.42820        6.52190        0.58480
C         -0.42500        6.68130        1.50940
C          0.39100        5.61680        2.09640
O          0.30790        4.41620        1.89300
C          1.34660        6.27690        3.00220
C          2.33430        5.66480        3.77050
C          3.08140        6.54100        4.52060
C          2.86420        7.92470        4.50430
C          1.89460        8.54100        3.74910
C          1.11930        7.66740        2.98070
C          0.01120        7.94490        2.06640
C         -0.50970        9.18970        1.81270
C         -1.58390        9.47600        0.94570
N         -2.45090        9.79980        0.26340
C         -0.04660       10.38570        2.39900
N          0.27100       11.40060        2.83290
C          3.97220        8.19170        5.49280
C          3.54430        8.48970        6.94520
C          4.79640        8.23020        7.75150
C          5.00110        6.91930        7.76830
C          3.89070        6.27060        6.97350
C          2.73920        7.23170        7.29610
C          4.21350        6.64800        5.51210
C         -1.94110        5.37340       -0.02500
C         -2.98040        5.41020       -0.97120
C         -3.63820        6.64310       -1.49940
C         -2.81250        7.25340       -2.63530
C         -3.30150        4.13700       -1.42030
C         -2.53500        3.11180       -0.83950
S         -1.38620        3.72710        0.28860
C         -2.91380        1.86050       -1.33460
C         -3.95740        1.94350       -2.26270
S         -4.49420        3.55830       -2.57010
C         -4.26590        0.63290       -2.64840
C         -5.29930        0.13630       -3.47230
N         -6.21940        0.81270       -4.14140
S         -7.20470       -0.24650       -4.86950
N         -6.49330       -1.60900       -4.35970
C         -5.45800       -1.28190       -3.60240
C         -4.51720       -2.13150       -2.98140
C         -4.37640       -3.52740       -3.02720
S         -5.17640       -4.90830       -3.70120
C         -3.92550       -5.92690       -3.03430
C         -3.69680       -7.31670       -3.05310
C         -2.56760       -7.66700       -2.37890
S         -1.75150       -6.28200       -1.68550
C         -2.95300       -5.21890       -2.33200
C         -3.21180       -3.83970       -2.32620
N         -2.64080       -2.70160       -1.82740
C         -1.26760       -2.73810       -1.37620
C         -0.33250       -2.06260       -2.37550
C         -3.43130       -1.62710       -2.21080
C         -3.36050       -0.22920       -1.96000
N         -2.54920        0.55220       -1.15710
C         -1.71530        0.19990       -0.02970
C         -2.52110       -0.49830        1.06320
C         -2.00560       -9.04750       -2.21320
C         -1.26470       -9.18960       -0.92160
C         -0.00570       -8.75330       -0.81050
C          0.66000       -8.09930       -1.91450
C          1.57860       -7.09190       -1.72330
C          2.24100       -6.46770       -2.87020
O          2.28490       -6.95060       -3.98510
N          2.84850       -5.23800       -2.63980
C          3.49140       -4.60700       -3.78780
C          2.51370       -3.77370       -4.60490
C          2.80410       -4.57960       -1.44750
S          3.23960       -2.99030       -1.33580
N          2.41090       -5.28240       -0.34800
C          1.87340       -6.56810       -0.38450
O          1.65150       -7.14230        0.66120
C          2.51900       -4.66290        0.96850
C          1.26310       -3.87360        1.31360
C          0.22540       -8.50110       -3.29070
C         -1.00250       -9.40770       -3.32320
H         -1.91410        7.43000        0.25600
H          2.47030        4.59480        3.74730
H          1.74630        9.60760        3.74560
H          4.77350        8.83990        5.14340
H          3.05980        9.45150        7.08880
H          5.41470        9.00500        8.16530
H          5.82460        6.38010        8.19880
H          3.72170        5.21060        7.14400
H          2.46050        7.20160        8.34820
H          1.85350        7.08570        6.68050
H          5.17680        6.26740        5.17710
H         -3.77490        7.38550       -0.71180
H         -4.62210        6.36640       -1.88350
H         -1.82270        7.53480       -2.28350
H         -2.70250        6.53940       -3.44830
H         -3.30840        8.14220       -3.01450
H         -4.34170       -8.02250       -3.54380
H         -1.17790       -2.30340       -0.38070
H         -0.99920       -3.79450       -1.28870
H          0.68850       -2.07910       -2.00160
H         -0.62290       -1.02950       -2.55130
H         -0.36550       -2.58880       -3.32720
H         -0.86460       -0.40000       -0.35210
H         -1.31360        1.13660        0.36410
H         -1.86770       -0.77190        1.88710
H         -3.29040        0.17160        1.44010
H         -3.00840       -1.39440        0.68500
H         -2.84540       -9.74920       -2.25090
H         -1.77550       -9.63020       -0.07940
H          0.51720       -8.81910        0.12860
H          4.30640       -3.98360       -3.41710
H          3.89280       -5.41590       -4.40150
H          2.13070       -2.94700       -4.01250
H          1.68550       -4.39200       -4.94230
H          3.02440       -3.37080       -5.47450
H          2.66260       -5.47320        1.68500
H          3.39240       -4.00930        0.96890
H          1.35200       -3.47550        2.32000
H          1.13700       -3.04560        0.62050
H          0.38940       -4.51960        1.26650
H          1.06460       -8.99790       -3.78350
H          0.04130       -7.59820       -3.87860
H         -1.48110       -9.33170       -4.30000
H         -0.70320      -10.44680       -3.17080
