98

C         -0.80730        0.53650       -6.38470
C         -0.98190        1.64690       -7.15640
C         -0.42720        3.00030       -6.90390
O          0.53090        3.30930       -6.22850
C         -1.33050        3.92760       -7.61230
C         -1.31790        5.31860       -7.53920
C         -2.32040        5.92490       -8.25720
C         -3.26280        5.20360       -9.00350
C         -3.27670        3.83250       -9.09880
C         -2.27080        3.19640       -8.36610
C         -2.00240        1.77570       -8.18250
C         -2.55140        0.74600       -8.89860
C         -3.51440        0.91150       -9.91540
N         -4.30160        0.98280      -10.74790
C         -2.18080       -0.60770       -8.74920
N         -1.90900       -1.72170       -8.68850
C         -3.99990        6.44940       -9.42540
C         -5.32960        6.77380       -8.69950
C         -5.23940        6.14120       -7.33280
C         -4.34650        6.82400       -6.62870
C         -3.81690        7.93080       -7.50680
C         -5.07400        8.24460       -8.33350
C         -2.94880        7.25290       -8.59660
C          0.11150        0.32890       -5.33120
C          1.34740        0.88490       -5.07810
C          1.93240        0.46630       -3.88370
S          3.44810        0.93060       -3.14690
C          3.05660       -0.04950       -1.78020
C          3.55880       -0.33370       -0.50310
C          4.67560        0.19350        0.18340
C          4.82880       -0.09310        1.57950
N          5.86830        0.52920        2.11260
S          6.59790        1.39310        0.95470
N          5.61130        1.01270       -0.26970
C          3.92330       -0.98580        2.19430
C          3.83400       -1.45040        3.51300
C          2.79120       -2.38460        3.54740
N          2.23120       -2.51110        2.30050
C          1.52090       -3.73480        2.00340
C          2.45930       -4.93990        2.03590
C          2.88490       -1.63120        1.45590
C          2.62550       -1.20660        0.12780
N          1.57300       -1.42490       -0.74950
C          1.83210       -0.71820       -1.89530
C          1.18590       -0.43740       -3.10500
Se        -0.39630       -0.90730       -3.97050
C          0.22600       -1.89110       -0.50110
C         -0.43090       -1.17420        0.67300
C          2.56210       -2.91450        4.81570
C          3.45850       -2.35140        5.75290
S          4.58280       -1.19930        5.05060
C          3.29100       -2.76760        7.05630
C          2.24270       -3.67540        7.26210
Se         1.36880       -4.09590        5.62370
C          1.92820       -4.12000        8.54750
C          0.91260       -4.94090        8.99240
C         -0.08470       -5.57190        8.14220
O         -0.14770       -5.52780        6.91930
C         -1.00980       -6.28270        9.03920
C         -2.14850       -7.01760        8.74630
Cl        -2.67440       -7.23070        7.13030
C         -2.87100       -7.58340        9.79380
C         -2.43650       -7.40090       11.09590
Br        -3.44060       -8.17370       12.50430
C         -1.29430       -6.67040       11.41330
C         -0.58100       -6.11060       10.37020
C          0.63470       -5.28890       10.36730
C          1.34950       -4.94070       11.48420
C          2.51990       -4.15240       11.49870
N          3.47310       -3.51990       11.60170
C          1.01520       -5.33440       12.79740
N          0.80160       -5.62030       13.88820
H         -1.51950       -0.27280       -6.52160
H         -0.57720        5.83600       -6.94990
H         -4.01050        3.28760       -9.66950
H         -4.05610        6.63370      -10.49620
H         -6.22380        6.54820       -9.27420
H         -5.77570        5.25550       -7.04600
H         -3.98740        6.62240       -5.63640
H         -3.33400        8.75930       -6.99540
H         -5.87520        8.67440       -7.73420
H         -4.87890        8.87920       -9.19670
H         -2.31640        7.96310       -9.12530
H          1.81790        1.58110       -5.74750
H          0.73480       -3.85950        2.75980
H          1.06560       -3.67050        1.02210
H          1.90590       -5.83890        1.77970
H          3.26900       -4.80920        1.32090
H          2.88620       -5.07090        3.02810
H         -0.34590       -1.67740       -1.41120
H          0.20150       -2.97670       -0.37130
H         -0.44630       -0.10230        0.48970
H          0.10170       -1.35650        1.60170
H         -1.45400       -1.52190        0.78490
H          3.90090       -2.41720        7.87190
H          2.58790       -3.71890        9.30850
H         -3.76140       -8.15580        9.58830
H         -0.99820       -6.55610       12.44280
