
  xtb     02022204403D
 energy: -190.072676032195 gnorm: 0.000455710420 xtb: 6.4.1 (unknown)
104118  0     0  0            999 V2000
   -2.4175    2.3082   -5.5185 C   0  0  0  0  0  0  0  0  0  0  0  0
   -3.2555    3.1659   -4.8519 C   0  0  0  0  0  0  0  0  0  0  0  0
   -3.4566    3.2308   -3.4019 C   0  0  0  0  0  0  0  0  0  0  0  0
   -2.8787    2.5855   -2.5420 O   0  0  0  0  0  0  0  0  0  0  0  0
   -4.5138    4.2286   -3.1727 C   0  0  0  0  0  0  0  0  0  0  0  0
   -5.0632    4.6026   -1.9489 C   0  0  0  0  0  0  0  0  0  0  0  0
   -6.0520    5.5517   -2.0469 C   0  0  0  0  0  0  0  0  0  0  0  0
   -6.4587    6.0953   -3.2725 C   0  0  0  0  0  0  0  0  0  0  0  0
   -5.9212    5.7380   -4.4865 C   0  0  0  0  0  0  0  0  0  0  0  0
   -4.9188    4.7672   -4.4109 C   0  0  0  0  0  0  0  0  0  0  0  0
   -4.1364    4.1358   -5.4729 C   0  0  0  0  0  0  0  0  0  0  0  0
   -4.2259    4.4398   -6.8079 C   0  0  0  0  0  0  0  0  0  0  0  0
   -3.4611    3.8595   -7.8409 C   0  0  0  0  0  0  0  0  0  0  0  0
   -2.8806    3.4438   -8.7417 N   0  0  0  0  0  0  0  0  0  0  0  0
   -5.1012    5.4028   -7.3525 C   0  0  0  0  0  0  0  0  0  0  0  0
   -5.7818    6.1674   -7.8729 N   0  0  0  0  0  0  0  0  0  0  0  0
   -7.4979    6.9775   -2.6276 C   0  0  0  0  0  0  0  0  0  0  0  0
   -8.9791    6.5371   -2.7298 C   0  0  0  0  0  0  0  0  0  0  0  0
   -8.9701    5.0360   -2.8796 C   0  0  0  0  0  0  0  0  0  0  0  0
   -8.5873    4.5160   -1.7210 C   0  0  0  0  0  0  0  0  0  0  0  0
   -8.3312    5.6562   -0.7666 C   0  0  0  0  0  0  0  0  0  0  0  0
   -9.3892    6.6592   -1.2535 C   0  0  0  0  0  0  0  0  0  0  0  0
   -7.0478    6.3684   -1.2623 C   0  0  0  0  0  0  0  0  0  0  0  0
   -1.5278    1.3381   -5.0416 C   0  0  0  0  0  0  0  0  0  0  0  0
   -0.7606    0.5229   -5.8902 C   0  0  0  0  0  0  0  0  0  0  0  0
   -0.7376    0.5862   -7.3825 C   0  0  0  0  0  0  0  0  0  0  0  0
    0.2201    1.6793   -7.8648 C   0  0  0  0  0  0  0  0  0  0  0  0
    0.0470   -0.3442   -5.1655 C   0  0  0  0  0  0  0  0  0  0  0  0
   -0.0753   -0.2135   -3.7723 C   0  0  0  0  0  0  0  0  0  0  0  0
   -1.2248    0.9958   -3.3373 S   0  0  0  0  0  0  0  0  0  0  0  0
    0.7614   -1.1167   -3.1086 C   0  0  0  0  0  0  0  0  0  0  0  0
    1.4868   -1.9250   -3.9924 C   0  0  0  0  0  0  0  0  0  0  0  0
    1.1833   -1.5857   -5.6606 S   0  0  0  0  0  0  0  0  0  0  0  0
    2.2419   -2.8080   -3.2115 C   0  0  0  0  0  0  0  0  0  0  0  0
    3.0472   -3.9086   -3.5809 C   0  0  0  0  0  0  0  0  0  0  0  0
    3.3364   -4.3496   -4.7947 N   0  0  0  0  0  0  0  0  0  0  0  0
    4.2314   -5.6913   -4.6530 S   0  0  0  0  0  0  0  0  0  0  0  0
    4.2856   -5.7591   -3.0364 N   0  0  0  0  0  0  0  0  0  0  0  0
    3.6060   -4.7327   -2.5509 C   0  0  0  0  0  0  0  0  0  0  0  0
    3.4293   -4.3510   -1.2019 C   0  0  0  0  0  0  0  0  0  0  0  0
    3.9603   -4.8872   -0.0236 C   0  0  0  0  0  0  0  0  0  0  0  0
    4.9408   -6.2207    0.4821 S   0  0  0  0  0  0  0  0  0  0  0  0
    4.8459   -5.6231    2.1267 C   0  0  0  0  0  0  0  0  0  0  0  0
    5.3674   -6.0636    3.3260 C   0  0  0  0  0  0  0  0  0  0  0  0
    5.0307   -5.2359    4.4014 C   0  0  0  0  0  0  0  0  0  0  0  0
    4.0337   -3.8789    3.8859 S   0  0  0  0  0  0  0  0  0  0  0  0
    4.0834   -4.4429    2.2572 C   0  0  0  0  0  0  0  0  0  0  0  0
    3.5754   -4.0366    1.0216 C   0  0  0  0  0  0  0  0  0  0  0  0
    2.8010   -3.0178    0.5342 N   0  0  0  0  0  0  0  0  0  0  0  0
    2.5714   -1.8474    1.3528 C   0  0  0  0  0  0  0  0  0  0  0  0
    3.3774   -0.6509    0.8540 C   0  0  0  0  0  0  0  0  0  0  0  0
    2.6839   -3.1902   -0.8333 C   0  0  0  0  0  0  0  0  0  0  0  0
    1.9886   -2.4775   -1.8463 C   0  0  0  0  0  0  0  0  0  0  0  0
    1.0680   -1.4443   -1.8160 N   0  0  0  0  0  0  0  0  0  0  0  0
    0.2138   -0.9824   -0.7441 C   0  0  0  0  0  0  0  0  0  0  0  0
   -0.6228   -2.1209   -0.1663 C   0  0  0  0  0  0  0  0  0  0  0  0
    5.4594   -5.5033    5.7062 C   0  0  0  0  0  0  0  0  0  0  0  0
    5.2565   -4.8057    6.8727 C   0  0  0  0  0  0  0  0  0  0  0  0
    4.5222   -3.5456    6.9969 C   0  0  0  0  0  0  0  0  0  0  0  0
    3.9443   -2.9264    6.1200 O   0  0  0  0  0  0  0  0  0  0  0  0
    4.6195   -3.1543    8.4176 C   0  0  0  0  0  0  0  0  0  0  0  0
    4.1049   -2.0337    9.0351 C   0  0  0  0  0  0  0  0  0  0  0  0
    4.3383   -1.8888   10.3979 C   0  0  0  0  0  0  0  0  0  0  0  0
    3.7213   -0.5068   11.2215 Cl  0  0  0  0  0  0  0  0  0  0  0  0
    5.0622   -2.8394   11.1082 C   0  0  0  0  0  0  0  0  0  0  0  0
    5.5746   -3.9632   10.4771 C   0  0  0  0  0  0  0  0  0  0  0  0
    5.3544   -4.1270    9.1173 C   0  0  0  0  0  0  0  0  0  0  0  0
    5.7568   -5.1769    8.1822 C   0  0  0  0  0  0  0  0  0  0  0  0
    6.4683   -6.2999    8.5179 C   0  0  0  0  0  0  0  0  0  0  0  0
    6.9200   -6.5884    9.8231 C   0  0  0  0  0  0  0  0  0  0  0  0
    7.3174   -6.8855   10.8584 N   0  0  0  0  0  0  0  0  0  0  0  0
    6.8512   -7.3320    7.6358 C   0  0  0  0  0  0  0  0  0  0  0  0
    7.2014   -8.2147    6.9894 N   0  0  0  0  0  0  0  0  0  0  0  0
   -2.4373    2.3715   -6.5978 H   0  0  0  0  0  0  0  0  0  0  0  0
   -4.7171    4.1602   -1.0277 H   0  0  0  0  0  0  0  0  0  0  0  0
   -6.2486    6.1660   -5.4189 H   0  0  0  0  0  0  0  0  0  0  0  0
   -7.3718    8.0482   -2.7746 H   0  0  0  0  0  0  0  0  0  0  0  0
   -9.5646    7.0888   -3.4602 H   0  0  0  0  0  0  0  0  0  0  0  0
   -9.1810    4.5250   -3.8007 H   0  0  0  0  0  0  0  0  0  0  0  0
   -8.4139    3.4833   -1.4810 H   0  0  0  0  0  0  0  0  0  0  0  0
   -8.3284    5.4053    0.2909 H   0  0  0  0  0  0  0  0  0  0  0  0
   -9.2567    7.6612   -0.8477 H   0  0  0  0  0  0  0  0  0  0  0  0
  -10.4074    6.3195   -1.0699 H   0  0  0  0  0  0  0  0  0  0  0  0
   -6.6326    7.0419   -0.5150 H   0  0  0  0  0  0  0  0  0  0  0  0
   -0.3939   -0.3797   -7.7584 H   0  0  0  0  0  0  0  0  0  0  0  0
   -1.7338    0.7747   -7.7847 H   0  0  0  0  0  0  0  0  0  0  0  0
    1.2251    1.4921   -7.4938 H   0  0  0  0  0  0  0  0  0  0  0  0
   -0.1045    2.6568   -7.5164 H   0  0  0  0  0  0  0  0  0  0  0  0
    0.2442    1.6938   -8.9504 H   0  0  0  0  0  0  0  0  0  0  0  0
    5.9725   -6.9441    3.4446 H   0  0  0  0  0  0  0  0  0  0  0  0
    1.5070   -1.6204    1.4095 H   0  0  0  0  0  0  0  0  0  0  0  0
    2.8987   -2.1058    2.3627 H   0  0  0  0  0  0  0  0  0  0  0  0
    4.4407   -0.8744    0.9011 H   0  0  0  0  0  0  0  0  0  0  0  0
    3.1275   -0.4059   -0.1758 H   0  0  0  0  0  0  0  0  0  0  0  0
    3.1791    0.2145    1.4802 H   0  0  0  0  0  0  0  0  0  0  0  0
   -0.4517   -0.2329   -1.1791 H   0  0  0  0  0  0  0  0  0  0  0  0
    0.8002   -0.4810    0.0261 H   0  0  0  0  0  0  0  0  0  0  0  0
   -1.2421   -1.7486    0.6451 H   0  0  0  0  0  0  0  0  0  0  0  0
   -1.2726   -2.5306   -0.9361 H   0  0  0  0  0  0  0  0  0  0  0  0
    0.0058   -2.9249    0.2098 H   0  0  0  0  0  0  0  0  0  0  0  0
    6.0493   -6.4090    5.7768 H   0  0  0  0  0  0  0  0  0  0  0  0
    3.5445   -1.3027    8.4742 H   0  0  0  0  0  0  0  0  0  0  0  0
    5.2268   -2.6981   12.1649 H   0  0  0  0  0  0  0  0  0  0  0  0
    6.1327   -4.6837   11.0516 H   0  0  0  0  0  0  0  0  0  0  0  0
  1  2  2  0  0  0  0
  2  3  1  0  0  0  0
  3  4  2  0  0  0  0
  3  5  1  0  0  0  0
  5  6  2  0  0  0  0
  6  7  1  0  0  0  0
  7  8  2  0  0  0  0
  8  9  1  0  0  0  0
  9 10  2  0  0  0  0
 10 11  1  0  0  0  0
 11 12  2  0  0  0  0
 12 13  1  0  0  0  0
 13 14  3  0  0  0  0
 12 15  1  0  0  0  0
 15 16  3  0  0  0  0
  8 17  1  0  0  0  0
 17 18  1  0  0  0  0
 18 19  1  0  0  0  0
 19 20  2  0  0  0  0
 20 21  1  0  0  0  0
 21 22  1  0  0  0  0
 21 23  1  0  0  0  0
  1 24  1  0  0  0  0
 24 25  2  0  0  0  0
 25 26  1  0  0  0  0
 26 27  1  0  0  0  0
 25 28  1  0  0  0  0
 28 29  2  0  0  0  0
 29 30  1  0  0  0  0
 29 31  1  0  0  0  0
 31 32  2  0  0  0  0
 32 33  1  0  0  0  0
 32 34  1  0  0  0  0
 34 35  1  0  0  0  0
 35 36  2  0  0  0  0
 36 37  1  0  0  0  0
 37 38  1  0  0  0  0
 38 39  2  0  0  0  0
 39 40  1  0  0  0  0
 40 41  1  0  0  0  0
 41 42  1  0  0  0  0
 42 43  1  0  0  0  0
 43 44  1  0  0  0  0
 44 45  2  0  0  0  0
 45 46  1  0  0  0  0
 46 47  1  0  0  0  0
 47 48  1  0  0  0  0
 48 49  1  0  0  0  0
 49 50  1  0  0  0  0
 50 51  1  0  0  0  0
 49 52  1  0  0  0  0
 52 53  1  0  0  0  0
 53 54  1  0  0  0  0
 54 55  1  0  0  0  0
 55 56  1  0  0  0  0
 45 57  1  0  0  0  0
 57 58  2  0  0  0  0
 58 59  1  0  0  0  0
 59 60  2  0  0  0  0
 59 61  1  0  0  0  0
 61 62  2  0  0  0  0
 62 63  1  0  0  0  0
 63 64  1  0  0  0  0
 63 65  2  0  0  0  0
 65 66  1  0  0  0  0
 66 67  2  0  0  0  0
 67 68  1  0  0  0  0
 68 69  2  0  0  0  0
 69 70  1  0  0  0  0
 70 71  3  0  0  0  0
 69 72  1  0  0  0  0
 72 73  3  0  0  0  0
 11  2  1  0  0  0  0
 23 17  1  0  0  0  0
 30 24  1  0  0  0  0
 54 31  1  0  0  0  0
 68 58  1  0  0  0  0
 10  5  1  0  0  0  0
 22 18  1  0  0  0  0
 33 28  1  0  0  0  0
 53 34  2  0  0  0  0
 67 61  1  0  0  0  0
 23  7  1  0  0  0  0
 39 35  1  0  0  0  0
 52 40  2  0  0  0  0
 48 41  2  0  0  0  0
 47 43  2  0  0  0  0
  1 74  1  0  0  0  0
  6 75  1  0  0  0  0
  9 76  1  0  0  0  0
 17 77  1  0  0  0  0
 18 78  1  0  0  0  0
 19 79  1  0  0  0  0
 20 80  1  0  0  0  0
 21 81  1  0  0  0  0
 22 82  1  0  0  0  0
 22 83  1  0  0  0  0
 23 84  1  0  0  0  0
 26 85  1  0  0  0  0
 26 86  1  0  0  0  0
 27 87  1  0  0  0  0
 27 88  1  0  0  0  0
 27 89  1  0  0  0  0
 44 90  1  0  0  0  0
 50 91  1  0  0  0  0
 50 92  1  0  0  0  0
 51 93  1  0  0  0  0
 51 94  1  0  0  0  0
 51 95  1  0  0  0  0
 55 96  1  0  0  0  0
 55 97  1  0  0  0  0
 56 98  1  0  0  0  0
 56 99  1  0  0  0  0
 56100  1  0  0  0  0
 57101  1  0  0  0  0
 62102  1  0  0  0  0
 65103  1  0  0  0  0
 66104  1  0  0  0  0
M  END
