
  xtb     02102223093D
 energy: -175.714375287357 gnorm: 0.000245396160 xtb: 6.4.1 (unknown)
 95108  0     0  0            999 V2000
    4.5835    0.9359    2.2886 C   0  0  0  0  0  0  0  0  0  0  0  0
    5.5722    1.1550    1.3683 C   0  0  0  0  0  0  0  0  0  0  0  0
    5.5675    0.8882   -0.0882 C   0  0  0  0  0  0  0  0  0  0  0  0
    4.6322    0.5981   -0.8103 O   0  0  0  0  0  0  0  0  0  0  0  0
    6.9661    1.0287   -0.5299 C   0  0  0  0  0  0  0  0  0  0  0  0
    7.4585    0.7983   -1.8137 C   0  0  0  0  0  0  0  0  0  0  0  0
    8.8122    0.9957   -1.9373 C   0  0  0  0  0  0  0  0  0  0  0  0
    9.6205    1.3864   -0.8607 C   0  0  0  0  0  0  0  0  0  0  0  0
    9.1485    1.6161    0.4093 C   0  0  0  0  0  0  0  0  0  0  0  0
    7.7697    1.4301    0.5544 C   0  0  0  0  0  0  0  0  0  0  0  0
    6.9150    1.5890    1.7269 C   0  0  0  0  0  0  0  0  0  0  0  0
    7.3102    2.1346    2.9200 C   0  0  0  0  0  0  0  0  0  0  0  0
    8.6241    2.5661    3.2016 C   0  0  0  0  0  0  0  0  0  0  0  0
    9.6673    2.9375    3.5049 N   0  0  0  0  0  0  0  0  0  0  0  0
    6.4765    2.4041    4.0274 C   0  0  0  0  0  0  0  0  0  0  0  0
    5.8766    2.6846    4.9658 N   0  0  0  0  0  0  0  0  0  0  0  0
   10.8734    1.3942   -1.7004 C   0  0  0  0  0  0  0  0  0  0  0  0
   11.3946    2.7771   -2.1456 C   0  0  0  0  0  0  0  0  0  0  0  0
   12.3041    2.4620   -3.3112 C   0  0  0  0  0  0  0  0  0  0  0  0
   11.5398    2.0932   -4.3312 C   0  0  0  0  0  0  0  0  0  0  0  0
   10.1006    2.1530   -3.8723 C   0  0  0  0  0  0  0  0  0  0  0  0
   10.1826    3.3377   -2.9010 C   0  0  0  0  0  0  0  0  0  0  0  0
    9.9723    0.9603   -2.9009 C   0  0  0  0  0  0  0  0  0  0  0  0
    3.2395    0.5403    2.1409 C   0  0  0  0  0  0  0  0  0  0  0  0
    2.3606    0.2042    3.6461 S   0  0  0  0  0  0  0  0  0  0  0  0
    0.9523   -0.1525    2.7464 C   0  0  0  0  0  0  0  0  0  0  0  0
   -0.3687   -0.5791    2.9299 C   0  0  0  0  0  0  0  0  0  0  0  0
   -1.0525   -0.9878    4.0959 C   0  0  0  0  0  0  0  0  0  0  0  0
   -2.3806   -1.5090    3.9700 C   0  0  0  0  0  0  0  0  0  0  0  0
   -2.8796   -1.9088    5.1292 N   0  0  0  0  0  0  0  0  0  0  0  0
   -1.7744   -1.6448    6.2810 S   0  0  0  0  0  0  0  0  0  0  0  0
   -0.6154   -1.0141    5.3454 N   0  0  0  0  0  0  0  0  0  0  0  0
   -3.0011   -1.4907    2.7014 C   0  0  0  0  0  0  0  0  0  0  0  0
   -4.3032   -1.8293    2.3155 C   0  0  0  0  0  0  0  0  0  0  0  0
   -4.4324   -1.4963    0.9543 C   0  0  0  0  0  0  0  0  0  0  0  0
   -3.2440   -0.9897    0.4892 N   0  0  0  0  0  0  0  0  0  0  0  0
   -3.2242   -0.2331   -0.7440 C   0  0  0  0  0  0  0  0  0  0  0  0
   -3.0113    1.2564   -0.4853 C   0  0  0  0  0  0  0  0  0  0  0  0
   -2.3397   -0.9918    1.5390 C   0  0  0  0  0  0  0  0  0  0  0  0
   -0.9686   -0.6393    1.6363 C   0  0  0  0  0  0  0  0  0  0  0  0
   -0.0111   -0.2951    0.6953 N   0  0  0  0  0  0  0  0  0  0  0  0
    1.1521   -0.0049    1.3630 C   0  0  0  0  0  0  0  0  0  0  0  0
    2.4417    0.3851    1.0177 C   0  0  0  0  0  0  0  0  0  0  0  0
    0.0295   -0.5690   -0.7247 C   0  0  0  0  0  0  0  0  0  0  0  0
   -0.1954   -2.0500   -1.0195 C   0  0  0  0  0  0  0  0  0  0  0  0
   -5.6901   -1.7558    0.4268 C   0  0  0  0  0  0  0  0  0  0  0  0
   -6.5373   -2.3021    1.3828 C   0  0  0  0  0  0  0  0  0  0  0  0
   -5.7447   -2.4749    2.9644 S   0  0  0  0  0  0  0  0  0  0  0  0
   -7.8751   -2.7266    1.3218 C   0  0  0  0  0  0  0  0  0  0  0  0
   -8.7714   -2.7959    0.2843 C   0  0  0  0  0  0  0  0  0  0  0  0
   -8.5601   -2.4962   -1.1467 C   0  0  0  0  0  0  0  0  0  0  0  0
   -7.5917   -2.0062   -1.6971 O   0  0  0  0  0  0  0  0  0  0  0  0
   -9.7949   -2.9177   -1.8352 C   0  0  0  0  0  0  0  0  0  0  0  0
  -10.0572   -2.8806   -3.1830 C   0  0  0  0  0  0  0  0  0  0  0  0
  -11.3020   -3.3464   -3.6176 C   0  0  0  0  0  0  0  0  0  0  0  0
  -11.8119   -3.4173   -4.9429 C   0  0  0  0  0  0  0  0  0  0  0  0
  -13.0638   -3.9323   -4.9775 C   0  0  0  0  0  0  0  0  0  0  0  0
  -14.1104   -4.2047   -6.5101 Br  0  0  0  0  0  0  0  0  0  0  0  0
  -13.7012   -4.3622   -3.4125 S   0  0  0  0  0  0  0  0  0  0  0  0
  -12.2269   -3.8301   -2.6621 C   0  0  0  0  0  0  0  0  0  0  0  0
  -11.9612   -3.8631   -1.2987 C   0  0  0  0  0  0  0  0  0  0  0  0
  -10.7267   -3.3972   -0.8855 C   0  0  0  0  0  0  0  0  0  0  0  0
  -10.1328   -3.2854    0.4426 C   0  0  0  0  0  0  0  0  0  0  0  0
  -10.7923   -3.5572    1.6141 C   0  0  0  0  0  0  0  0  0  0  0  0
  -10.2906   -3.3927    2.9232 C   0  0  0  0  0  0  0  0  0  0  0  0
   -9.9875   -3.2777    4.0253 N   0  0  0  0  0  0  0  0  0  0  0  0
  -12.1223   -4.0246    1.6797 C   0  0  0  0  0  0  0  0  0  0  0  0
  -13.1973   -4.4070    1.8071 N   0  0  0  0  0  0  0  0  0  0  0  0
    4.8683    1.0591    3.3271 H   0  0  0  0  0  0  0  0  0  0  0  0
    6.8009    0.4902   -2.6116 H   0  0  0  0  0  0  0  0  0  0  0  0
    9.7859    1.9055    1.2276 H   0  0  0  0  0  0  0  0  0  0  0  0
   11.6673    0.7246   -1.3752 H   0  0  0  0  0  0  0  0  0  0  0  0
   11.8128    3.3841   -1.3474 H   0  0  0  0  0  0  0  0  0  0  0  0
   13.3767    2.4856   -3.2586 H   0  0  0  0  0  0  0  0  0  0  0  0
   11.8463    1.7469   -5.3008 H   0  0  0  0  0  0  0  0  0  0  0  0
    9.3409    2.1923   -4.6484 H   0  0  0  0  0  0  0  0  0  0  0  0
    9.2960    3.4682   -2.2833 H   0  0  0  0  0  0  0  0  0  0  0  0
   10.4119    4.2722   -3.4104 H   0  0  0  0  0  0  0  0  0  0  0  0
   10.1652    0.0007   -3.3771 H   0  0  0  0  0  0  0  0  0  0  0  0
   -4.1998   -0.3799   -1.2110 H   0  0  0  0  0  0  0  0  0  0  0  0
   -2.4767   -0.6324   -1.4304 H   0  0  0  0  0  0  0  0  0  0  0  0
   -3.8188    1.6449    0.1311 H   0  0  0  0  0  0  0  0  0  0  0  0
   -3.0051    1.7982   -1.4273 H   0  0  0  0  0  0  0  0  0  0  0  0
   -2.0725    1.4401    0.0315 H   0  0  0  0  0  0  0  0  0  0  0  0
    2.8180    0.5554    0.0266 H   0  0  0  0  0  0  0  0  0  0  0  0
    1.0273   -0.2857   -1.0646 H   0  0  0  0  0  0  0  0  0  0  0  0
   -0.6832    0.0604   -1.2592 H   0  0  0  0  0  0  0  0  0  0  0  0
    0.5866   -2.6433   -0.5512 H   0  0  0  0  0  0  0  0  0  0  0  0
   -0.1634   -2.2222   -2.0920 H   0  0  0  0  0  0  0  0  0  0  0  0
   -1.1545   -2.3913   -0.6374 H   0  0  0  0  0  0  0  0  0  0  0  0
   -6.0119   -1.5866   -0.5836 H   0  0  0  0  0  0  0  0  0  0  0  0
   -8.2407   -3.0777    2.2793 H   0  0  0  0  0  0  0  0  0  0  0  0
   -9.3242   -2.5055   -3.8799 H   0  0  0  0  0  0  0  0  0  0  0  0
  -11.2691   -3.1004   -5.8147 H   0  0  0  0  0  0  0  0  0  0  0  0
  -12.7003   -4.2440   -0.6145 H   0  0  0  0  0  0  0  0  0  0  0  0
  1  2  2  0  0  0  0
  2  3  1  0  0  0  0
  3  4  2  0  0  0  0
  3  5  1  0  0  0  0
  5  6  2  0  0  0  0
  6  7  1  0  0  0  0
  7  8  2  0  0  0  0
  8  9  1  0  0  0  0
  9 10  2  0  0  0  0
 10 11  1  0  0  0  0
 11 12  2  0  0  0  0
 12 13  1  0  0  0  0
 13 14  3  0  0  0  0
 12 15  1  0  0  0  0
 15 16  3  0  0  0  0
  8 17  1  0  0  0  0
 17 18  1  0  0  0  0
 18 19  1  0  0  0  0
 19 20  2  0  0  0  0
 20 21  1  0  0  0  0
 21 22  1  0  0  0  0
 21 23  1  0  0  0  0
  1 24  1  0  0  0  0
 24 25  1  0  0  0  0
 25 26  1  0  0  0  0
 26 27  1  0  0  0  0
 27 28  1  0  0  0  0
 28 29  1  0  0  0  0
 29 30  2  0  0  0  0
 30 31  1  0  0  0  0
 31 32  1  0  0  0  0
 29 33  1  0  0  0  0
 33 34  1  0  0  0  0
 34 35  2  0  0  0  0
 35 36  1  0  0  0  0
 36 37  1  0  0  0  0
 37 38  1  0  0  0  0
 36 39  1  0  0  0  0
 39 40  1  0  0  0  0
 40 41  1  0  0  0  0
 41 42  1  0  0  0  0
 42 43  1  0  0  0  0
 41 44  1  0  0  0  0
 44 45  1  0  0  0  0
 35 46  1  0  0  0  0
 46 47  2  0  0  0  0
 47 48  1  0  0  0  0
 47 49  1  0  0  0  0
 49 50  2  0  0  0  0
 50 51  1  0  0  0  0
 51 52  2  0  0  0  0
 51 53  1  0  0  0  0
 53 54  2  0  0  0  0
 54 55  1  0  0  0  0
 55 56  1  0  0  0  0
 56 57  2  0  0  0  0
 57 58  1  0  0  0  0
 57 59  1  0  0  0  0
 59 60  1  0  0  0  0
 60 61  1  0  0  0  0
 61 62  2  0  0  0  0
 62 63  1  0  0  0  0
 63 64  2  0  0  0  0
 64 65  1  0  0  0  0
 65 66  3  0  0  0  0
 64 67  1  0  0  0  0
 67 68  3  0  0  0  0
 11  2  1  0  0  0  0
 23 17  1  0  0  0  0
 43 24  2  0  0  0  0
 63 50  1  0  0  0  0
 10  5  1  0  0  0  0
 22 18  1  0  0  0  0
 42 26  2  0  0  0  0
 62 53  1  0  0  0  0
 23  7  1  0  0  0  0
 40 27  2  0  0  0  0
 60 55  2  0  0  0  0
 32 28  2  0  0  0  0
 39 33  2  0  0  0  0
 48 34  1  0  0  0  0
  1 69  1  0  0  0  0
  6 70  1  0  0  0  0
  9 71  1  0  0  0  0
 17 72  1  0  0  0  0
 18 73  1  0  0  0  0
 19 74  1  0  0  0  0
 20 75  1  0  0  0  0
 21 76  1  0  0  0  0
 22 77  1  0  0  0  0
 22 78  1  0  0  0  0
 23 79  1  0  0  0  0
 37 80  1  0  0  0  0
 37 81  1  0  0  0  0
 38 82  1  0  0  0  0
 38 83  1  0  0  0  0
 38 84  1  0  0  0  0
 43 85  1  0  0  0  0
 44 86  1  0  0  0  0
 44 87  1  0  0  0  0
 45 88  1  0  0  0  0
 45 89  1  0  0  0  0
 45 90  1  0  0  0  0
 46 91  1  0  0  0  0
 49 92  1  0  0  0  0
 54 93  1  0  0  0  0
 56 94  1  0  0  0  0
 61 95  1  0  0  0  0
M  END
