130

C          3.02580       -5.14910        1.58770
C          4.33180       -4.75450        1.46180
C          4.80010       -3.38400        1.23790
O          4.12180       -2.37150        1.16710
C          6.26440       -3.45990        1.11860
C          7.14060       -2.40780        0.86360
C          8.45920       -2.78540        0.78350
C          8.87570       -4.11330        0.94620
C          8.02110       -5.16060        1.19780
C          6.67380       -4.79920        1.28350
C          5.48900       -5.62670        1.50830
C          5.49340       -6.98360        1.70720
C          4.35760       -7.80400        1.87640
N          3.49940       -8.55730        2.00700
C          6.65920       -7.77580        1.77010
N          7.56100       -8.48320        1.84130
C         10.32860       -3.76670        0.74020
C         11.23700       -3.68910        1.99200
C         10.33920       -3.33990        3.15290
C          9.94630       -2.08270        2.99730
C         10.57090       -1.55900        1.72770
C         11.90280       -2.32590        1.74480
C          9.86470       -2.28720        0.55740
C          1.83870       -4.41170        1.48280
C          0.58210       -5.03750        1.54150
C          0.40730       -6.46190        1.86340
C          0.67390       -6.88060        3.16400
C          0.51890       -8.20530        3.52130
C          0.10080       -9.12420        2.57500
C         -0.15560       -8.71220        1.28070
C         -0.01020       -7.38450        0.90260
C         -0.20550       -6.98550       -0.53250
C          1.13880       -6.95890       -1.26380
C         -0.45000       -4.13600        1.30630
S         -2.19310       -4.31110        1.22240
C         -2.31670       -2.61470        0.89880
C         -3.30590       -1.64510        0.66670
C         -4.71950       -1.67750        0.69820
C         -5.45500       -0.44940        0.54440
N         -6.76050       -0.62590        0.66970
S         -7.04560       -2.19490        0.94510
N         -5.51340       -2.71250        0.92060
C         -4.75640        0.73880        0.22800
C         -5.17500        2.03710       -0.10700
S         -6.63670        2.94660       -0.24700
C         -5.70650        4.32750       -0.78230
C         -6.05370        5.61370       -1.20270
C         -7.40960        6.14780       -1.37470
C         -8.28240        6.35950       -0.30570
C         -7.89450        6.07550        1.11930
C         -8.77220        4.98940        1.74220
C         -9.53650        6.89430       -0.57710
C         -9.92880        7.19870       -1.86660
C         -9.05730        6.98540       -2.92210
C         -7.80010        6.47370       -2.67410
C         -4.93110        6.34630       -1.59730
S         -3.43610        5.43660       -1.38740
C         -4.32750        4.06640       -0.84360
C         -4.02720        2.76000       -0.46710
N         -2.91230        1.96330       -0.36760
C         -3.34230        0.73160        0.09160
C         -2.61620       -0.41880        0.46070
N         -1.26000       -0.61840        0.62430
C         -1.07850       -1.95580        0.87270
C         -0.00420       -2.81970        1.09900
S          1.71450       -2.68510        1.16430
C         -0.29410        0.35040        1.10510
C         -0.07580        0.21010        2.61120
C         -1.77310        2.20920       -1.23340
C         -2.18110        2.20550       -2.70660
C         -4.94550        7.69480       -1.99030
C         -3.95080        8.42840       -2.57660
C         -3.94120        9.90420       -2.43960
O         -4.84640       10.60450       -2.04990
C         -2.56950       10.31230       -2.82590
C         -1.96090       11.55700       -2.77200
Cl        -2.81820       12.94040       -2.23750
C         -0.62750       11.67260       -3.15980
C          0.05880       10.54930       -3.58930
Br         1.87830       10.73180       -4.08740
C         -0.53190        9.29190       -3.66570
C         -1.85440        9.18650       -3.27980
C         -2.75520        8.03260       -3.27310
C         -2.60000        6.90080       -4.03430
C         -1.42440        6.56870       -4.73290
N         -0.47850        6.23450       -5.29120
C         -3.65240        5.98960       -4.25890
N         -4.50770        5.26330       -4.50280
H          2.84660       -6.20290        1.76550
H          6.77550       -1.40010        0.73980
H          8.35970       -6.17620        1.31440
H         10.82020       -4.25480       -0.09900
H         11.88830       -4.54780        2.13050
H         10.04520       -4.03930        3.91350
H          9.25820       -1.52140        3.60210
H         10.61690       -0.47800        1.62500
H         12.44610       -2.27310        0.80230
H         12.55400       -2.02070        2.56240
H         10.05210       -1.80950       -0.40240
H          1.00010       -6.15290        3.89410
H          0.73060       -8.51880        4.53200
H         -0.01570      -10.16310        2.84330
H         -0.46910       -9.43460        0.54080
H         -0.86420       -7.70560       -1.02100
H         -0.67250       -6.00200       -0.59940
H          1.79240       -6.19980       -0.83890
H          1.63470       -7.92290       -1.17450
H          0.99280       -6.73710       -2.31840
H         -8.00180        6.99500        1.70180
H         -6.84810        5.77130        1.17100
H         -8.43800        4.77320        2.75410
H         -9.81050        5.30750        1.78400
H         -8.71900        4.07470        1.15720
H        -10.21150        7.08650        0.24390
H        -10.90990        7.61120       -2.04830
H         -9.35210        7.22510       -3.93220
H         -7.10920        6.29960       -3.48640
H          0.65240        0.19300        0.57890
H         -0.66560        1.35360        0.90530
H          0.35960       -0.75460        2.85400
H          0.60250        0.98740        2.95120
H         -1.02110        0.31310        3.14010
H         -1.33930        3.17880       -0.96860
H         -1.03380        1.42540       -1.08300
H         -1.30260        2.36880       -3.32450
H         -2.90140        2.98920       -2.92450
H         -2.62180        1.24690       -2.97190
H         -5.83370        8.25310       -1.70940
H         -0.13780       12.63240       -3.12100
H          0.03670        8.44090       -4.00420
