
  xtb     02012221363D
 energy: -237.878523734466 gnorm: 0.000562329522 xtb: 6.4.1 (unknown)
145161  0     0  0            999 V2000
   -4.0444   -0.6492    5.7338 C   0  0  0  0  0  0  0  0  0  0  0  0
   -3.2579   -1.2555    6.6795 C   0  0  0  0  0  0  0  0  0  0  0  0
   -1.9364   -1.8442    6.4538 C   0  0  0  0  0  0  0  0  0  0  0  0
   -1.2638   -1.7920    5.4368 O   0  0  0  0  0  0  0  0  0  0  0  0
   -1.5752   -2.5349    7.7049 C   0  0  0  0  0  0  0  0  0  0  0  0
   -0.4266   -3.2837    7.9508 C   0  0  0  0  0  0  0  0  0  0  0  0
   -0.3767   -3.8337    9.2094 C   0  0  0  0  0  0  0  0  0  0  0  0
   -1.3957   -3.6551   10.1537 C   0  0  0  0  0  0  0  0  0  0  0  0
   -2.5321   -2.9156    9.9255 C   0  0  0  0  0  0  0  0  0  0  0  0
   -2.6015   -2.3431    8.6523 C   0  0  0  0  0  0  0  0  0  0  0  0
   -3.6393   -1.5048    8.0527 C   0  0  0  0  0  0  0  0  0  0  0  0
   -4.7439   -1.0144    8.7032 C   0  0  0  0  0  0  0  0  0  0  0  0
   -5.7041   -0.1397    8.1519 C   0  0  0  0  0  0  0  0  0  0  0  0
   -6.5180    0.5903    7.7975 N   0  0  0  0  0  0  0  0  0  0  0  0
   -5.0626   -1.2896   10.0487 C   0  0  0  0  0  0  0  0  0  0  0  0
   -5.3864   -1.4714   11.1356 N   0  0  0  0  0  0  0  0  0  0  0  0
   -0.6871   -4.4848   11.1953 C   0  0  0  0  0  0  0  0  0  0  0  0
    0.0222   -3.7106   12.3262 C   0  0  0  0  0  0  0  0  0  0  0  0
    1.0013   -4.7135   12.8922 C   0  0  0  0  0  0  0  0  0  0  0  0
    1.9682   -4.8815   11.9992 C   0  0  0  0  0  0  0  0  0  0  0  0
    1.6589   -3.9949   10.8145 C   0  0  0  0  0  0  0  0  0  0  0  0
    0.9865   -2.8184   11.5339 C   0  0  0  0  0  0  0  0  0  0  0  0
    0.4511   -4.6823   10.1431 C   0  0  0  0  0  0  0  0  0  0  0  0
   -3.7965   -0.3688    4.3865 C   0  0  0  0  0  0  0  0  0  0  0  0
   -4.7777    0.2163    3.5674 C   0  0  0  0  0  0  0  0  0  0  0  0
   -6.1487    0.4796    4.0293 C   0  0  0  0  0  0  0  0  0  0  0  0
   -6.9792   -0.6080    4.2843 C   0  0  0  0  0  0  0  0  0  0  0  0
   -8.2736   -0.4161    4.7257 C   0  0  0  0  0  0  0  0  0  0  0  0
   -8.7444    0.8700    4.9233 C   0  0  0  0  0  0  0  0  0  0  0  0
   -7.9192    1.9512    4.6772 C   0  0  0  0  0  0  0  0  0  0  0  0
   -6.6175    1.7797    4.2268 C   0  0  0  0  0  0  0  0  0  0  0  0
   -5.7189    2.9704    4.0520 C   0  0  0  0  0  0  0  0  0  0  0  0
   -4.8371    3.1589    5.2887 C   0  0  0  0  0  0  0  0  0  0  0  0
   -4.3032    0.4450    2.2831 C   0  0  0  0  0  0  0  0  0  0  0  0
   -5.0601    1.0844    0.8357 S   0  0  0  0  0  0  0  0  0  0  0  0
   -3.5771    0.8117   -0.0140 C   0  0  0  0  0  0  0  0  0  0  0  0
   -3.0634    0.9264   -1.3109 C   0  0  0  0  0  0  0  0  0  0  0  0
   -3.6986    1.3148   -2.5100 C   0  0  0  0  0  0  0  0  0  0  0  0
   -2.9654    1.2327   -3.7372 C   0  0  0  0  0  0  0  0  0  0  0  0
   -3.6913    1.5841   -4.7871 N   0  0  0  0  0  0  0  0  0  0  0  0
   -5.1728    1.9878   -4.2712 S   0  0  0  0  0  0  0  0  0  0  0  0
   -4.9434    1.7276   -2.6890 N   0  0  0  0  0  0  0  0  0  0  0  0
   -1.6098    0.8430   -3.6938 C   0  0  0  0  0  0  0  0  0  0  0  0
   -0.6564    0.7674   -4.7213 C   0  0  0  0  0  0  0  0  0  0  0  0
   -0.5325    1.0125   -6.4342 S   0  0  0  0  0  0  0  0  0  0  0  0
    1.1775    0.6614   -6.3356 C   0  0  0  0  0  0  0  0  0  0  0  0
    2.2215    0.6417   -7.2931 C   0  0  0  0  0  0  0  0  0  0  0  0
    2.0297    0.9099   -8.7304 C   0  0  0  0  0  0  0  0  0  0  0  0
    1.4120   -0.0322   -9.5558 C   0  0  0  0  0  0  0  0  0  0  0  0
    0.9654   -1.3658   -9.0261 C   0  0  0  0  0  0  0  0  0  0  0  0
    2.1413   -2.3397   -8.9253 C   0  0  0  0  0  0  0  0  0  0  0  0
    1.2605    0.2658  -10.9033 C   0  0  0  0  0  0  0  0  0  0  0  0
    1.6993    1.4680  -11.4278 C   0  0  0  0  0  0  0  0  0  0  0  0
    2.3012    2.4012  -10.6021 C   0  0  0  0  0  0  0  0  0  0  0  0
    2.4646    2.1192   -9.2590 C   0  0  0  0  0  0  0  0  0  0  0  0
    3.4278    0.3530   -6.7183 C   0  0  0  0  0  0  0  0  0  0  0  0
    3.3008    0.0530   -4.9964 S   0  0  0  0  0  0  0  0  0  0  0  0
    1.6039    0.3691   -5.0441 C   0  0  0  0  0  0  0  0  0  0  0  0
    0.5523    0.4246   -4.1186 C   0  0  0  0  0  0  0  0  0  0  0  0
    0.3859    0.2811   -2.7715 N   0  0  0  0  0  0  0  0  0  0  0  0
   -0.9473    0.5099   -2.4747 C   0  0  0  0  0  0  0  0  0  0  0  0
   -1.7072    0.4770   -1.2698 C   0  0  0  0  0  0  0  0  0  0  0  0
   -1.4394    0.0666    0.0211 N   0  0  0  0  0  0  0  0  0  0  0  0
   -2.5586    0.2743    0.7799 C   0  0  0  0  0  0  0  0  0  0  0  0
   -2.9651    0.0509    2.0988 C   0  0  0  0  0  0  0  0  0  0  0  0
   -2.2803   -0.6277    3.5306 S   0  0  0  0  0  0  0  0  0  0  0  0
   -0.2940   -0.5627    0.6368 C   0  0  0  0  0  0  0  0  0  0  0  0
    0.5542    0.4436    1.4163 C   0  0  0  0  0  0  0  0  0  0  0  0
    1.5547    0.0469   -1.9578 C   0  0  0  0  0  0  0  0  0  0  0  0
    1.9739   -1.4236   -1.9784 C   0  0  0  0  0  0  0  0  0  0  0  0
    4.7602    0.2767   -7.4050 C   0  0  0  0  0  0  0  0  0  0  0  0
    5.5861   -0.8555   -6.8777 C   0  0  0  0  0  0  0  0  0  0  0  0
    6.2965   -0.7169   -5.7538 C   0  0  0  0  0  0  0  0  0  0  0  0
    6.2201    0.5030   -4.9783 C   0  0  0  0  0  0  0  0  0  0  0  0
    6.2457    0.4804   -3.6050 C   0  0  0  0  0  0  0  0  0  0  0  0
    5.9472    1.6934   -2.8425 C   0  0  0  0  0  0  0  0  0  0  0  0
    6.1009    2.8254   -3.2542 O   0  0  0  0  0  0  0  0  0  0  0  0
    5.3776    1.4879   -1.5882 N   0  0  0  0  0  0  0  0  0  0  0  0
    4.9175    2.6749   -0.8752 C   0  0  0  0  0  0  0  0  0  0  0  0
    5.9630    3.1598    0.1198 C   0  0  0  0  0  0  0  0  0  0  0  0
    5.2571    0.2656   -0.9966 C   0  0  0  0  0  0  0  0  0  0  0  0
    4.3914    0.0793    0.3986 S   0  0  0  0  0  0  0  0  0  0  0  0
    5.8846   -0.7935   -1.5834 N   0  0  0  0  0  0  0  0  0  0  0  0
    6.4667   -0.7561   -2.8478 C   0  0  0  0  0  0  0  0  0  0  0  0
    7.0931   -1.7160   -3.2449 O   0  0  0  0  0  0  0  0  0  0  0  0
    6.0057   -2.0472   -0.8465 C   0  0  0  0  0  0  0  0  0  0  0  0
    7.1842   -2.0022    0.1166 C   0  0  0  0  0  0  0  0  0  0  0  0
    5.9524    1.7666   -5.7357 C   0  0  0  0  0  0  0  0  0  0  0  0
    5.6060    1.5463   -7.2058 C   0  0  0  0  0  0  0  0  0  0  0  0
   -5.0358   -0.3442    6.0478 H   0  0  0  0  0  0  0  0  0  0  0  0
    0.3314   -3.4013    7.1922 H   0  0  0  0  0  0  0  0  0  0  0  0
   -3.3096   -2.7933   10.6607 H   0  0  0  0  0  0  0  0  0  0  0  0
   -1.2251   -5.3613   11.5516 H   0  0  0  0  0  0  0  0  0  0  0  0
   -0.6452   -3.2245   13.0325 H   0  0  0  0  0  0  0  0  0  0  0  0
    0.8650   -5.2223   13.8285 H   0  0  0  0  0  0  0  0  0  0  0  0
    2.8010   -5.5590   12.0405 H   0  0  0  0  0  0  0  0  0  0  0  0
    2.4841   -3.7676   10.1448 H   0  0  0  0  0  0  0  0  0  0  0  0
    0.4928   -2.1140   10.8670 H   0  0  0  0  0  0  0  0  0  0  0  0
    1.6781   -2.2827   12.1820 H   0  0  0  0  0  0  0  0  0  0  0  0
    0.6723   -5.6911    9.7989 H   0  0  0  0  0  0  0  0  0  0  0  0
   -6.5989   -1.6079    4.1267 H   0  0  0  0  0  0  0  0  0  0  0  0
   -8.9084   -1.2675    4.9203 H   0  0  0  0  0  0  0  0  0  0  0  0
   -9.7518    1.0295    5.2770 H   0  0  0  0  0  0  0  0  0  0  0  0
   -8.2865    2.9532    4.8447 H   0  0  0  0  0  0  0  0  0  0  0  0
   -6.3292    3.8637    3.9085 H   0  0  0  0  0  0  0  0  0  0  0  0
   -5.0871    2.8485    3.1710 H   0  0  0  0  0  0  0  0  0  0  0  0
   -5.4529    3.2290    6.1824 H   0  0  0  0  0  0  0  0  0  0  0  0
   -4.1597    2.3164    5.4097 H   0  0  0  0  0  0  0  0  0  0  0  0
   -4.2454    4.0670    5.1975 H   0  0  0  0  0  0  0  0  0  0  0  0
    0.2116   -1.7838   -9.6956 H   0  0  0  0  0  0  0  0  0  0  0  0
    0.5120   -1.2478   -8.0410 H   0  0  0  0  0  0  0  0  0  0  0  0
    1.7940   -3.3179   -8.6010 H   0  0  0  0  0  0  0  0  0  0  0  0
    2.8746   -1.9798   -8.2073 H   0  0  0  0  0  0  0  0  0  0  0  0
    2.6281   -2.4475   -9.8924 H   0  0  0  0  0  0  0  0  0  0  0  0
    0.7876   -0.4591  -11.5505 H   0  0  0  0  0  0  0  0  0  0  0  0
    1.5685    1.6776  -12.4789 H   0  0  0  0  0  0  0  0  0  0  0  0
    2.6406    3.3452  -11.0011 H   0  0  0  0  0  0  0  0  0  0  0  0
    2.9211    2.8470   -8.6036 H   0  0  0  0  0  0  0  0  0  0  0  0
    0.2852   -1.0854   -0.1180 H   0  0  0  0  0  0  0  0  0  0  0  0
   -0.6756   -1.3117    1.3378 H   0  0  0  0  0  0  0  0  0  0  0  0
    0.7329    1.3450    0.8326 H   0  0  0  0  0  0  0  0  0  0  0  0
    0.0441    0.7317    2.3313 H   0  0  0  0  0  0  0  0  0  0  0  0
    1.5114    0.0018    1.6792 H   0  0  0  0  0  0  0  0  0  0  0  0
    2.3672    0.6485   -2.3818 H   0  0  0  0  0  0  0  0  0  0  0  0
    1.3847    0.4013   -0.9461 H   0  0  0  0  0  0  0  0  0  0  0  0
    2.3823   -1.6875   -2.9508 H   0  0  0  0  0  0  0  0  0  0  0  0
    2.7342   -1.5968   -1.2224 H   0  0  0  0  0  0  0  0  0  0  0  0
    1.1270   -2.0778   -1.7816 H   0  0  0  0  0  0  0  0  0  0  0  0
    4.5630    0.1440   -8.4745 H   0  0  0  0  0  0  0  0  0  0  0  0
    5.5754   -1.7928   -7.4134 H   0  0  0  0  0  0  0  0  0  0  0  0
    6.8632   -1.5394   -5.3510 H   0  0  0  0  0  0  0  0  0  0  0  0
    4.7327    3.4424   -1.6284 H   0  0  0  0  0  0  0  0  0  0  0  0
    3.9867    2.4257   -0.3629 H   0  0  0  0  0  0  0  0  0  0  0  0
    5.6046    4.0584    0.6129 H   0  0  0  0  0  0  0  0  0  0  0  0
    6.8927    3.3897   -0.3948 H   0  0  0  0  0  0  0  0  0  0  0  0
    6.1515    2.4009    0.8757 H   0  0  0  0  0  0  0  0  0  0  0  0
    6.1535   -2.8347   -1.5866 H   0  0  0  0  0  0  0  0  0  0  0  0
    5.0751   -2.2198   -0.3039 H   0  0  0  0  0  0  0  0  0  0  0  0
    8.1076   -1.8203   -0.4279 H   0  0  0  0  0  0  0  0  0  0  0  0
    7.2653   -2.9527    0.6355 H   0  0  0  0  0  0  0  0  0  0  0  0
    7.0439   -1.2151    0.8542 H   0  0  0  0  0  0  0  0  0  0  0  0
    6.8389    2.4007   -5.6542 H   0  0  0  0  0  0  0  0  0  0  0  0
    5.1554    2.3254   -5.2389 H   0  0  0  0  0  0  0  0  0  0  0  0
    5.0753    2.4179   -7.5883 H   0  0  0  0  0  0  0  0  0  0  0  0
    6.5199    1.4240   -7.7909 H   0  0  0  0  0  0  0  0  0  0  0  0
  1  2  2  0  0  0  0
  2  3  1  0  0  0  0
  3  4  2  0  0  0  0
  3  5  1  0  0  0  0
  5  6  2  0  0  0  0
  6  7  1  0  0  0  0
  7  8  2  0  0  0  0
  8  9  1  0  0  0  0
  9 10  2  0  0  0  0
 10 11  1  0  0  0  0
 11 12  2  0  0  0  0
 12 13  1  0  0  0  0
 13 14  3  0  0  0  0
 12 15  1  0  0  0  0
 15 16  3  0  0  0  0
  8 17  1  0  0  0  0
 17 18  1  0  0  0  0
 18 19  1  0  0  0  0
 19 20  2  0  0  0  0
 20 21  1  0  0  0  0
 21 22  1  0  0  0  0
 21 23  1  0  0  0  0
  1 24  1  0  0  0  0
 24 25  2  0  0  0  0
 25 26  1  0  0  0  0
 26 27  2  0  0  0  0
 27 28  1  0  0  0  0
 28 29  2  0  0  0  0
 29 30  1  0  0  0  0
 30 31  2  0  0  0  0
 31 32  1  0  0  0  0
 32 33  1  0  0  0  0
 25 34  1  0  0  0  0
 34 35  1  0  0  0  0
 35 36  1  0  0  0  0
 36 37  1  0  0  0  0
 37 38  1  0  0  0  0
 38 39  1  0  0  0  0
 39 40  2  0  0  0  0
 40 41  1  0  0  0  0
 41 42  1  0  0  0  0
 39 43  1  0  0  0  0
 43 44  1  0  0  0  0
 44 45  1  0  0  0  0
 45 46  1  0  0  0  0
 46 47  1  0  0  0  0
 47 48  1  0  0  0  0
 48 49  2  0  0  0  0
 49 50  1  0  0  0  0
 50 51  1  0  0  0  0
 49 52  1  0  0  0  0
 52 53  2  0  0  0  0
 53 54  1  0  0  0  0
 54 55  2  0  0  0  0
 47 56  2  0  0  0  0
 56 57  1  0  0  0  0
 57 58  1  0  0  0  0
 58 59  1  0  0  0  0
 59 60  1  0  0  0  0
 60 61  1  0  0  0  0
 61 62  1  0  0  0  0
 62 63  1  0  0  0  0
 63 64  1  0  0  0  0
 64 65  1  0  0  0  0
 65 66  1  0  0  0  0
 63 67  1  0  0  0  0
 67 68  1  0  0  0  0
 60 69  1  0  0  0  0
 69 70  1  0  0  0  0
 56 71  1  0  0  0  0
 71 72  1  0  0  0  0
 72 73  2  0  0  0  0
 73 74  1  0  0  0  0
 74 75  2  0  0  0  0
 75 76  1  0  0  0  0
 76 77  2  0  0  0  0
 76 78  1  0  0  0  0
 78 79  1  0  0  0  0
 79 80  1  0  0  0  0
 78 81  1  0  0  0  0
 81 82  2  0  0  0  0
 81 83  1  0  0  0  0
 83 84  1  0  0  0  0
 84 85  2  0  0  0  0
 83 86  1  0  0  0  0
 86 87  1  0  0  0  0
 74 88  1  0  0  0  0
 88 89  1  0  0  0  0
 11  2  1  0  0  0  0
 23 17  1  0  0  0  0
 66 24  1  0  0  0  0
 89 71  1  0  0  0  0
 10  5  1  0  0  0  0
 22 18  1  0  0  0  0
 31 26  1  0  0  0  0
 65 34  2  0  0  0  0
 84 75  1  0  0  0  0
 23  7  1  0  0  0  0
 64 36  2  0  0  0  0
 62 37  2  0  0  0  0
 42 38  2  0  0  0  0
 61 43  2  0  0  0  0
 59 44  2  0  0  0  0
 58 46  2  0  0  0  0
 55 48  1  0  0  0  0
  1 90  1  0  0  0  0
  6 91  1  0  0  0  0
  9 92  1  0  0  0  0
 17 93  1  0  0  0  0
 18 94  1  0  0  0  0
 19 95  1  0  0  0  0
 20 96  1  0  0  0  0
 21 97  1  0  0  0  0
 22 98  1  0  0  0  0
 22 99  1  0  0  0  0
 23100  1  0  0  0  0
 27101  1  0  0  0  0
 28102  1  0  0  0  0
 29103  1  0  0  0  0
 30104  1  0  0  0  0
 32105  1  0  0  0  0
 32106  1  0  0  0  0
 33107  1  0  0  0  0
 33108  1  0  0  0  0
 33109  1  0  0  0  0
 50110  1  0  0  0  0
 50111  1  0  0  0  0
 51112  1  0  0  0  0
 51113  1  0  0  0  0
 51114  1  0  0  0  0
 52115  1  0  0  0  0
 53116  1  0  0  0  0
 54117  1  0  0  0  0
 55118  1  0  0  0  0
 67119  1  0  0  0  0
 67120  1  0  0  0  0
 68121  1  0  0  0  0
 68122  1  0  0  0  0
 68123  1  0  0  0  0
 69124  1  0  0  0  0
 69125  1  0  0  0  0
 70126  1  0  0  0  0
 70127  1  0  0  0  0
 70128  1  0  0  0  0
 71129  1  0  0  0  0
 72130  1  0  0  0  0
 73131  1  0  0  0  0
 79132  1  0  0  0  0
 79133  1  0  0  0  0
 80134  1  0  0  0  0
 80135  1  0  0  0  0
 80136  1  0  0  0  0
 86137  1  0  0  0  0
 86138  1  0  0  0  0
 87139  1  0  0  0  0
 87140  1  0  0  0  0
 87141  1  0  0  0  0
 88142  1  0  0  0  0
 88143  1  0  0  0  0
 89144  1  0  0  0  0
 89145  1  0  0  0  0
M  END
