139

C         -6.63630        0.65270       -3.73880
C         -7.37750       -0.49530       -3.86050
C         -7.00750       -1.82360       -3.36480
O         -5.96400       -2.15000       -2.82220
C         -8.15470       -2.70390       -3.63880
C         -8.27450       -4.05190       -3.31090
C         -9.47550       -4.61130       -3.67590
C        -10.48100       -3.88400       -4.32610
C        -10.37250       -2.55490       -4.66060
C         -9.16110       -1.96370       -4.29200
C         -8.69350       -0.58840       -4.46140
C         -9.39110        0.41190       -5.09040
C         -8.94780        1.73750       -5.27730
N         -8.66460        2.83360       -5.47760
C        -10.67210        0.25790       -5.66050
N        -11.71210        0.21550       -6.14570
C        -11.41530       -5.06680       -4.37590
C        -12.58260       -5.10530       -3.35870
C        -12.13670       -4.30020       -2.16340
C        -11.18510       -4.98670       -1.54520
C        -10.97060       -6.26880       -2.31120
C        -12.40130       -6.52910       -2.80870
C        -10.29550       -5.87660       -3.64930
C         -5.37960        0.87870       -3.16560
C         -4.79500        2.15370       -3.08910
C         -5.36840        3.41720       -3.64260
C         -5.04570        3.55270       -5.13320
C         -3.55570        2.10680       -2.46410
S         -2.39800        3.35960       -2.05460
C         -1.39700        2.14660       -1.34220
C         -0.18560        2.05650       -0.64620
C          0.65540        3.10420       -0.19760
N          0.34280        4.37960       -0.40730
C          1.13740        5.32330        0.07600
C          0.60740        6.65630       -0.06580
S         -0.60650        6.87740       -1.29180
C         -0.85640        8.52340       -0.83050
C         -1.83960        9.40340       -1.52170
C         -3.25260        8.82380       -1.46070
C         -0.05050        8.83180        0.22960
C          0.78330        7.79260        0.67660
F         -0.04850       10.04790        0.80740
C          2.36590        4.97080        0.71140
C          3.42470        5.87980        1.07200
C          3.80380        7.09090        0.55950
C          4.98510        7.55600        1.16220
F          5.54650        8.73120        0.82100
C          5.51810        6.73760        2.11840
C          6.74880        6.95370        2.92960
C          7.75880        5.82400        2.73090
S          4.54780        5.31670        2.27490
N          2.63360        3.70260        0.98740
C          1.78890        2.76160        0.57550
C          2.03970        1.38810        0.81460
C          3.13370        0.79890        1.45890
S          4.57170        1.28490        2.28140
C          4.99580       -0.40870        2.45780
C          6.09450       -1.03810        3.02330
C          7.19330       -0.28740        3.70150
C          6.95150       -0.21450        5.21180
C          5.99860       -2.43800        2.91260
S          4.51920       -2.93880        2.08850
C          4.04910       -1.29080        1.90370
C          2.98280       -0.58730        1.33730
N          1.82040       -0.87240        0.66980
C          1.59350       -2.21580        0.18770
C          1.87730       -2.32440       -1.30880
C          1.21860        0.32560        0.33020
C          0.02450        0.67620       -0.35090
N         -1.05310       -0.03780       -0.84420
C         -1.91670        0.85070       -1.42840
C         -3.16310        0.81820       -2.06300
S         -4.35450       -0.36690       -2.44990
C         -1.50190       -1.38430       -0.57190
C         -1.85990       -1.56390        0.90170
C          6.97910       -3.30460        3.39860
C          7.06430       -4.67760        3.37940
C          6.07790       -5.59830        2.81060
O          5.02380       -5.31910        2.26390
C          6.61400       -6.95470        3.02450
C          6.06700       -8.17240        2.66900
C          6.76620       -9.32830        2.97820
C          7.98940       -9.24080        3.63240
Cl         8.84440      -10.68820        4.00920
C          8.55120       -8.01960        3.99510
C          7.85180       -6.86640        3.68480
C          8.16080       -5.45340        3.91880
C          9.29550       -4.98820        4.53400
C          9.61480       -3.63410        4.76500
N          9.95200       -2.55800        4.98760
C         10.32570       -5.81550        5.02910
N         11.19890       -6.42300        5.46090
H         -7.08890        1.55140       -4.13490
H         -7.47350       -4.57420       -2.81140
H        -11.15740       -2.01230       -5.16000
H        -11.71880       -5.39340       -5.36850
H        -13.55280       -4.84860       -3.77540
H        -12.50730       -3.31920       -1.93040
H        -10.60110       -4.69330       -0.69250
H        -10.47360       -7.07190       -1.77330
H        -13.09310       -6.75930       -1.99980
H        -12.46090       -7.30110       -3.57470
H         -9.86950       -6.73450       -4.16600
H         -6.44950        3.45500       -3.50200
H         -4.92320        4.25610       -3.10380
H         -5.48030        2.73110       -5.69740
H         -3.96930        3.55210       -5.28840
H         -5.45470        4.48370       -5.51480
H         -1.81610       10.38660       -1.04690
H         -1.54680        9.52250       -2.56860
H         -3.95060        9.48460       -1.96780
H         -3.27900        7.84890       -1.94190
H         -3.57140        8.70890       -0.42740
H          1.44730        7.88740        1.51510
H          3.29200        7.61900       -0.22300
H          7.19080        7.90880        2.63830
H          6.47960        7.01080        3.98810
H          8.64320        6.00140        3.33700
H          7.31890        4.87270        3.02170
H          8.05910        5.76240        1.68760
H          8.16260       -0.75090        3.51240
H          7.21290        0.72580        3.29520
H          6.00740        0.28340        5.41970
H          7.75390        0.34340        5.68560
H          6.92290       -1.21100        5.64610
H          0.58390       -2.54380        0.43200
H          2.28500       -2.86350        0.73190
H          2.92140       -2.09240       -1.50480
H          1.67920       -3.33620       -1.65130
H          1.26290       -1.63050       -1.87870
H         -2.39590       -1.54350       -1.17960
H         -0.75680       -2.10920       -0.89780
H         -1.01380       -1.33210        1.54530
H         -2.17410       -2.58770        1.08450
H         -2.67910       -0.89960        1.16620
H          7.80720       -2.78980        3.86580
H          5.11550       -8.21170        2.16190
H          6.37110      -10.29690        2.71630
H          9.50220       -7.99870        4.50060
