
  xtb     02102221263D
 energy: -193.291666832421 gnorm: 0.000286233021 xtb: 6.4.1 (unknown)
108121  0     0  0            999 V2000
    0.1010    2.0650   -5.1732 C   0  0  0  0  0  0  0  0  0  0  0  0
   -0.8848    2.9085   -5.6187 C   0  0  0  0  0  0  0  0  0  0  0  0
   -2.0757    3.4187   -4.9082 C   0  0  0  0  0  0  0  0  0  0  0  0
   -2.5374    3.0732   -3.8374 O   0  0  0  0  0  0  0  0  0  0  0  0
   -2.6315    4.4847   -5.7640 C   0  0  0  0  0  0  0  0  0  0  0  0
   -3.7153    5.3064   -5.4656 C   0  0  0  0  0  0  0  0  0  0  0  0
   -3.9867    6.2461   -6.4303 C   0  0  0  0  0  0  0  0  0  0  0  0
   -3.2360    6.3582   -7.6080 C   0  0  0  0  0  0  0  0  0  0  0  0
   -2.1734    5.5442   -7.9205 C   0  0  0  0  0  0  0  0  0  0  0  0
   -1.8799    4.5816   -6.9501 C   0  0  0  0  0  0  0  0  0  0  0  0
   -0.8308    3.5661   -6.9133 C   0  0  0  0  0  0  0  0  0  0  0  0
    0.0127    3.2722   -7.9566 C   0  0  0  0  0  0  0  0  0  0  0  0
    0.9928    2.2588   -7.9734 C   0  0  0  0  0  0  0  0  0  0  0  0
    1.8091    1.4553   -8.0773 N   0  0  0  0  0  0  0  0  0  0  0  0
    0.0013    3.9332   -9.2025 C   0  0  0  0  0  0  0  0  0  0  0  0
    0.0582    4.4215  -10.2405 N   0  0  0  0  0  0  0  0  0  0  0  0
   -4.0391    7.5352   -8.1020 C   0  0  0  0  0  0  0  0  0  0  0  0
   -3.4073    8.9432   -7.9675 C   0  0  0  0  0  0  0  0  0  0  0  0
   -2.4456    8.8742   -6.8074 C   0  0  0  0  0  0  0  0  0  0  0  0
   -3.1598    8.7663   -5.6950 C   0  0  0  0  0  0  0  0  0  0  0  0
   -4.6177    8.7597   -6.0832 C   0  0  0  0  0  0  0  0  0  0  0  0
   -4.5761    9.6905   -7.3056 C   0  0  0  0  0  0  0  0  0  0  0  0
   -4.8785    7.4073   -6.7919 C   0  0  0  0  0  0  0  0  0  0  0  0
    0.2657    1.3569   -3.9718 C   0  0  0  0  0  0  0  0  0  0  0  0
   -0.6109    1.1744   -2.8835 C   0  0  0  0  0  0  0  0  0  0  0  0
    0.0783    0.4008   -1.9679 C   0  0  0  0  0  0  0  0  0  0  0  0
    1.3563    0.1230   -2.4987 C   0  0  0  0  0  0  0  0  0  0  0  0
    1.4607    0.6821   -3.7193 N   0  0  0  0  0  0  0  0  0  0  0  0
    2.6481    0.6501   -4.5403 C   0  0  0  0  0  0  0  0  0  0  0  0
    3.4601    1.9369   -4.4077 C   0  0  0  0  0  0  0  0  0  0  0  0
    2.0568   -0.6039   -1.5206 C   0  0  0  0  0  0  0  0  0  0  0  0
    3.4018   -1.0293   -1.4542 C   0  0  0  0  0  0  0  0  0  0  0  0
    3.8897   -1.6080   -0.2369 C   0  0  0  0  0  0  0  0  0  0  0  0
    5.1789   -1.9004   -0.2916 N   0  0  0  0  0  0  0  0  0  0  0  0
    5.7388   -1.4941   -1.7534 S   0  0  0  0  0  0  0  0  0  0  0  0
    4.3512   -0.9247   -2.3736 N   0  0  0  0  0  0  0  0  0  0  0  0
    2.9795   -1.8483    0.8146 C   0  0  0  0  0  0  0  0  0  0  0  0
    3.1533   -2.4867    2.0468 C   0  0  0  0  0  0  0  0  0  0  0  0
    4.4255   -3.1777    2.9910 S   0  0  0  0  0  0  0  0  0  0  0  0
    3.2385   -3.6124    4.2070 C   0  0  0  0  0  0  0  0  0  0  0  0
    3.3525   -4.2611    5.4260 C   0  0  0  0  0  0  0  0  0  0  0  0
    4.6652   -4.6906    5.9936 C   0  0  0  0  0  0  0  0  0  0  0  0
    5.2141   -3.6271    6.9493 C   0  0  0  0  0  0  0  0  0  0  0  0
    2.1000   -4.3913    6.0578 C   0  0  0  0  0  0  0  0  0  0  0  0
    0.7954   -3.6888    5.0954 S   0  0  0  0  0  0  0  0  0  0  0  0
    1.9237   -3.2326    3.8753 C   0  0  0  0  0  0  0  0  0  0  0  0
    1.8873   -2.5804    2.6410 C   0  0  0  0  0  0  0  0  0  0  0  0
    0.9481   -1.9967    1.8331 N   0  0  0  0  0  0  0  0  0  0  0  0
    1.5942   -1.5189    0.7062 C   0  0  0  0  0  0  0  0  0  0  0  0
    1.1545   -0.7829   -0.4246 C   0  0  0  0  0  0  0  0  0  0  0  0
   -0.0485   -0.1606   -0.7218 N   0  0  0  0  0  0  0  0  0  0  0  0
   -1.1108    0.2948    0.1470 C   0  0  0  0  0  0  0  0  0  0  0  0
   -0.5850    1.1833    1.2720 C   0  0  0  0  0  0  0  0  0  0  0  0
   -0.4541   -2.2753    2.0567 C   0  0  0  0  0  0  0  0  0  0  0  0
   -1.0295   -3.1649    0.9584 C   0  0  0  0  0  0  0  0  0  0  0  0
    1.9391   -5.0120    7.2959 C   0  0  0  0  0  0  0  0  0  0  0  0
    0.8148   -5.2357    8.0595 C   0  0  0  0  0  0  0  0  0  0  0  0
   -0.5522   -4.8469    7.7185 C   0  0  0  0  0  0  0  0  0  0  0  0
   -0.9405   -4.2616    6.7225 O   0  0  0  0  0  0  0  0  0  0  0  0
   -1.3996   -5.3139    8.8368 C   0  0  0  0  0  0  0  0  0  0  0  0
   -2.7655   -5.1935    8.9859 C   0  0  0  0  0  0  0  0  0  0  0  0
   -3.3511   -5.7198   10.1314 C   0  0  0  0  0  0  0  0  0  0  0  0
   -5.0496   -5.6068   10.3805 Cl  0  0  0  0  0  0  0  0  0  0  0  0
   -2.5463   -6.3462   11.0846 C   0  0  0  0  0  0  0  0  0  0  0  0
   -3.1163   -6.8514   12.1855 F   0  0  0  0  0  0  0  0  0  0  0  0
   -1.1725   -6.4699   10.9400 C   0  0  0  0  0  0  0  0  0  0  0  0
   -0.5909   -5.9454    9.7969 C   0  0  0  0  0  0  0  0  0  0  0  0
    0.7985   -5.9110    9.3398 C   0  0  0  0  0  0  0  0  0  0  0  0
    1.8642   -6.4371   10.0265 C   0  0  0  0  0  0  0  0  0  0  0  0
    3.2097   -6.4196    9.6053 C   0  0  0  0  0  0  0  0  0  0  0  0
    4.3271   -6.4471    9.3374 N   0  0  0  0  0  0  0  0  0  0  0  0
    1.7565   -7.0826   11.2763 C   0  0  0  0  0  0  0  0  0  0  0  0
    1.7415   -7.6175   12.2918 N   0  0  0  0  0  0  0  0  0  0  0  0
    0.9298    1.9457   -5.8563 H   0  0  0  0  0  0  0  0  0  0  0  0
   -4.2626    5.1876   -4.5434 H   0  0  0  0  0  0  0  0  0  0  0  0
   -1.6061    5.6464   -8.8302 H   0  0  0  0  0  0  0  0  0  0  0  0
   -4.5515    7.4002   -9.0524 H   0  0  0  0  0  0  0  0  0  0  0  0
   -3.0124    9.3508   -8.8942 H   0  0  0  0  0  0  0  0  0  0  0  0
   -1.3769    8.8536   -6.9158 H   0  0  0  0  0  0  0  0  0  0  0  0
   -2.8070    8.6369   -4.6885 H   0  0  0  0  0  0  0  0  0  0  0  0
   -5.3256    9.0004   -5.2943 H   0  0  0  0  0  0  0  0  0  0  0  0
   -5.4916    9.6736   -7.8952 H   0  0  0  0  0  0  0  0  0  0  0  0
   -4.3255   10.7176   -7.0444 H   0  0  0  0  0  0  0  0  0  0  0  0
   -5.9398    7.1855   -6.8864 H   0  0  0  0  0  0  0  0  0  0  0  0
   -1.6002    1.5776   -2.8284 H   0  0  0  0  0  0  0  0  0  0  0  0
    2.3759    0.4759   -5.5849 H   0  0  0  0  0  0  0  0  0  0  0  0
    3.2554   -0.1872   -4.1893 H   0  0  0  0  0  0  0  0  0  0  0  0
    2.8704    2.8066   -4.6889 H   0  0  0  0  0  0  0  0  0  0  0  0
    4.3308    1.8833   -5.0540 H   0  0  0  0  0  0  0  0  0  0  0  0
    3.7954    2.0602   -3.3807 H   0  0  0  0  0  0  0  0  0  0  0  0
    5.3671   -4.8231    5.1679 H   0  0  0  0  0  0  0  0  0  0  0  0
    4.5756   -5.6405    6.5223 H   0  0  0  0  0  0  0  0  0  0  0  0
    4.5333   -3.4693    7.7824 H   0  0  0  0  0  0  0  0  0  0  0  0
    6.1728   -3.9488    7.3452 H   0  0  0  0  0  0  0  0  0  0  0  0
    5.3494   -2.6830    6.4268 H   0  0  0  0  0  0  0  0  0  0  0  0
   -1.6839   -0.5479    0.5359 H   0  0  0  0  0  0  0  0  0  0  0  0
   -1.7838    0.8783   -0.4851 H   0  0  0  0  0  0  0  0  0  0  0  0
   -0.1015    2.0625    0.8526 H   0  0  0  0  0  0  0  0  0  0  0  0
   -1.4086    1.5092    1.9016 H   0  0  0  0  0  0  0  0  0  0  0  0
    0.1410    0.6576    1.8877 H   0  0  0  0  0  0  0  0  0  0  0  0
   -1.0193   -1.3487    2.1603 H   0  0  0  0  0  0  0  0  0  0  0  0
   -0.5173   -2.7977    3.0143 H   0  0  0  0  0  0  0  0  0  0  0  0
   -2.0798   -3.3605    1.1559 H   0  0  0  0  0  0  0  0  0  0  0  0
   -0.9357   -2.6989   -0.0197 H   0  0  0  0  0  0  0  0  0  0  0  0
   -0.5002   -4.1146    0.9344 H   0  0  0  0  0  0  0  0  0  0  0  0
    2.8676   -5.3765    7.7132 H   0  0  0  0  0  0  0  0  0  0  0  0
   -3.3607   -4.7042    8.2316 H   0  0  0  0  0  0  0  0  0  0  0  0
   -0.6115   -6.9660   11.7148 H   0  0  0  0  0  0  0  0  0  0  0  0
  1  2  2  0  0  0  0
  2  3  1  0  0  0  0
  3  4  2  0  0  0  0
  3  5  1  0  0  0  0
  5  6  2  0  0  0  0
  6  7  1  0  0  0  0
  7  8  2  0  0  0  0
  8  9  1  0  0  0  0
  9 10  2  0  0  0  0
 10 11  1  0  0  0  0
 11 12  2  0  0  0  0
 12 13  1  0  0  0  0
 13 14  3  0  0  0  0
 12 15  1  0  0  0  0
 15 16  3  0  0  0  0
  8 17  1  0  0  0  0
 17 18  1  0  0  0  0
 18 19  1  0  0  0  0
 19 20  2  0  0  0  0
 20 21  1  0  0  0  0
 21 22  1  0  0  0  0
 21 23  1  0  0  0  0
  1 24  1  0  0  0  0
 24 25  2  0  0  0  0
 25 26  1  0  0  0  0
 26 27  2  0  0  0  0
 27 28  1  0  0  0  0
 28 29  1  0  0  0  0
 29 30  1  0  0  0  0
 27 31  1  0  0  0  0
 31 32  1  0  0  0  0
 32 33  1  0  0  0  0
 33 34  2  0  0  0  0
 34 35  1  0  0  0  0
 35 36  1  0  0  0  0
 33 37  1  0  0  0  0
 37 38  1  0  0  0  0
 38 39  1  0  0  0  0
 39 40  1  0  0  0  0
 40 41  1  0  0  0  0
 41 42  1  0  0  0  0
 42 43  1  0  0  0  0
 41 44  2  0  0  0  0
 44 45  1  0  0  0  0
 45 46  1  0  0  0  0
 46 47  1  0  0  0  0
 47 48  1  0  0  0  0
 48 49  1  0  0  0  0
 49 50  1  0  0  0  0
 50 51  1  0  0  0  0
 51 52  1  0  0  0  0
 52 53  1  0  0  0  0
 48 54  1  0  0  0  0
 54 55  1  0  0  0  0
 44 56  1  0  0  0  0
 56 57  2  0  0  0  0
 57 58  1  0  0  0  0
 58 59  2  0  0  0  0
 58 60  1  0  0  0  0
 60 61  2  0  0  0  0
 61 62  1  0  0  0  0
 62 63  1  0  0  0  0
 62 64  2  0  0  0  0
 64 65  1  0  0  0  0
 64 66  1  0  0  0  0
 66 67  2  0  0  0  0
 67 68  1  0  0  0  0
 68 69  2  0  0  0  0
 69 70  1  0  0  0  0
 70 71  3  0  0  0  0
 69 72  1  0  0  0  0
 72 73  3  0  0  0  0
 11  2  1  0  0  0  0
 23 17  1  0  0  0  0
 28 24  1  0  0  0  0
 50 31  2  0  0  0  0
 68 57  1  0  0  0  0
 10  5  1  0  0  0  0
 22 18  1  0  0  0  0
 51 26  1  0  0  0  0
 67 60  1  0  0  0  0
 23  7  1  0  0  0  0
 36 32  2  0  0  0  0
 49 37  2  0  0  0  0
 47 38  2  0  0  0  0
 46 40  2  0  0  0  0
  1 74  1  0  0  0  0
  6 75  1  0  0  0  0
  9 76  1  0  0  0  0
 17 77  1  0  0  0  0
 18 78  1  0  0  0  0
 19 79  1  0  0  0  0
 20 80  1  0  0  0  0
 21 81  1  0  0  0  0
 22 82  1  0  0  0  0
 22 83  1  0  0  0  0
 23 84  1  0  0  0  0
 25 85  1  0  0  0  0
 29 86  1  0  0  0  0
 29 87  1  0  0  0  0
 30 88  1  0  0  0  0
 30 89  1  0  0  0  0
 30 90  1  0  0  0  0
 42 91  1  0  0  0  0
 42 92  1  0  0  0  0
 43 93  1  0  0  0  0
 43 94  1  0  0  0  0
 43 95  1  0  0  0  0
 52 96  1  0  0  0  0
 52 97  1  0  0  0  0
 53 98  1  0  0  0  0
 53 99  1  0  0  0  0
 53100  1  0  0  0  0
 54101  1  0  0  0  0
 54102  1  0  0  0  0
 55103  1  0  0  0  0
 55104  1  0  0  0  0
 55105  1  0  0  0  0
 56106  1  0  0  0  0
 61107  1  0  0  0  0
 66108  1  0  0  0  0
M  END
