
  xtb     02022217123D
 energy: -187.151171163808 gnorm: 0.000312243999 xtb: 6.4.1 (unknown)
 98112  0     0  0            999 V2000
   -0.8073    0.5365   -6.3847 C   0  0  0  0  0  0  0  0  0  0  0  0
   -0.9819    1.6469   -7.1564 C   0  0  0  0  0  0  0  0  0  0  0  0
   -0.4272    3.0003   -6.9039 C   0  0  0  0  0  0  0  0  0  0  0  0
    0.5309    3.3093   -6.2285 O   0  0  0  0  0  0  0  0  0  0  0  0
   -1.3305    3.9276   -7.6123 C   0  0  0  0  0  0  0  0  0  0  0  0
   -1.3179    5.3186   -7.5392 C   0  0  0  0  0  0  0  0  0  0  0  0
   -2.3204    5.9249   -8.2572 C   0  0  0  0  0  0  0  0  0  0  0  0
   -3.2628    5.2036   -9.0035 C   0  0  0  0  0  0  0  0  0  0  0  0
   -3.2767    3.8325   -9.0988 C   0  0  0  0  0  0  0  0  0  0  0  0
   -2.2708    3.1964   -8.3661 C   0  0  0  0  0  0  0  0  0  0  0  0
   -2.0024    1.7757   -8.1825 C   0  0  0  0  0  0  0  0  0  0  0  0
   -2.5514    0.7460   -8.8986 C   0  0  0  0  0  0  0  0  0  0  0  0
   -3.5144    0.9115   -9.9154 C   0  0  0  0  0  0  0  0  0  0  0  0
   -4.3016    0.9828  -10.7479 N   0  0  0  0  0  0  0  0  0  0  0  0
   -2.1808   -0.6077   -8.7492 C   0  0  0  0  0  0  0  0  0  0  0  0
   -1.9090   -1.7217   -8.6885 N   0  0  0  0  0  0  0  0  0  0  0  0
   -3.9999    6.4494   -9.4254 C   0  0  0  0  0  0  0  0  0  0  0  0
   -5.3296    6.7738   -8.6995 C   0  0  0  0  0  0  0  0  0  0  0  0
   -5.2394    6.1412   -7.3328 C   0  0  0  0  0  0  0  0  0  0  0  0
   -4.3465    6.8240   -6.6287 C   0  0  0  0  0  0  0  0  0  0  0  0
   -3.8169    7.9308   -7.5068 C   0  0  0  0  0  0  0  0  0  0  0  0
   -5.0740    8.2446   -8.3335 C   0  0  0  0  0  0  0  0  0  0  0  0
   -2.9488    7.2529   -8.5966 C   0  0  0  0  0  0  0  0  0  0  0  0
    0.1115    0.3289   -5.3312 C   0  0  0  0  0  0  0  0  0  0  0  0
    1.3474    0.8849   -5.0781 C   0  0  0  0  0  0  0  0  0  0  0  0
    1.9324    0.4663   -3.8837 C   0  0  0  0  0  0  0  0  0  0  0  0
    3.4481    0.9306   -3.1469 S   0  0  0  0  0  0  0  0  0  0  0  0
    3.0566   -0.0495   -1.7802 C   0  0  0  0  0  0  0  0  0  0  0  0
    3.5588   -0.3337   -0.5031 C   0  0  0  0  0  0  0  0  0  0  0  0
    4.6756    0.1935    0.1834 C   0  0  0  0  0  0  0  0  0  0  0  0
    4.8288   -0.0931    1.5795 C   0  0  0  0  0  0  0  0  0  0  0  0
    5.8683    0.5292    2.1126 N   0  0  0  0  0  0  0  0  0  0  0  0
    6.5979    1.3931    0.9547 S   0  0  0  0  0  0  0  0  0  0  0  0
    5.6113    1.0127   -0.2697 N   0  0  0  0  0  0  0  0  0  0  0  0
    3.9233   -0.9858    2.1943 C   0  0  0  0  0  0  0  0  0  0  0  0
    3.8340   -1.4504    3.5130 C   0  0  0  0  0  0  0  0  0  0  0  0
    2.7912   -2.3846    3.5474 C   0  0  0  0  0  0  0  0  0  0  0  0
    2.2312   -2.5111    2.3005 N   0  0  0  0  0  0  0  0  0  0  0  0
    1.5209   -3.7348    2.0034 C   0  0  0  0  0  0  0  0  0  0  0  0
    2.4593   -4.9399    2.0359 C   0  0  0  0  0  0  0  0  0  0  0  0
    2.8849   -1.6312    1.4559 C   0  0  0  0  0  0  0  0  0  0  0  0
    2.6255   -1.2066    0.1278 C   0  0  0  0  0  0  0  0  0  0  0  0
    1.5730   -1.4249   -0.7495 N   0  0  0  0  0  0  0  0  0  0  0  0
    1.8321   -0.7182   -1.8953 C   0  0  0  0  0  0  0  0  0  0  0  0
    1.1859   -0.4374   -3.1050 C   0  0  0  0  0  0  0  0  0  0  0  0
   -0.3963   -0.9073   -3.9705 Se  0  0  0  0  0  2  0  0  0  0  0  0
    0.2260   -1.8911   -0.5011 C   0  0  0  0  0  0  0  0  0  0  0  0
   -0.4309   -1.1742    0.6730 C   0  0  0  0  0  0  0  0  0  0  0  0
    2.5621   -2.9145    4.8157 C   0  0  0  0  0  0  0  0  0  0  0  0
    3.4585   -2.3514    5.7529 C   0  0  0  0  0  0  0  0  0  0  0  0
    4.5828   -1.1993    5.0506 S   0  0  0  0  0  0  0  0  0  0  0  0
    3.2910   -2.7676    7.0563 C   0  0  0  0  0  0  0  0  0  0  0  0
    2.2427   -3.6754    7.2621 C   0  0  0  0  0  0  0  0  0  0  0  0
    1.3688   -4.0959    5.6237 Se  0  0  0  0  0  2  0  0  0  0  0  0
    1.9282   -4.1200    8.5475 C   0  0  0  0  0  0  0  0  0  0  0  0
    0.9126   -4.9409    8.9924 C   0  0  0  0  0  0  0  0  0  0  0  0
   -0.0847   -5.5719    8.1422 C   0  0  0  0  0  0  0  0  0  0  0  0
   -0.1477   -5.5278    6.9193 O   0  0  0  0  0  0  0  0  0  0  0  0
   -1.0098   -6.2827    9.0392 C   0  0  0  0  0  0  0  0  0  0  0  0
   -2.1485   -7.0176    8.7463 C   0  0  0  0  0  0  0  0  0  0  0  0
   -2.6744   -7.2307    7.1303 Cl  0  0  0  0  0  0  0  0  0  0  0  0
   -2.8710   -7.5834    9.7938 C   0  0  0  0  0  0  0  0  0  0  0  0
   -2.4365   -7.4009   11.0959 C   0  0  0  0  0  0  0  0  0  0  0  0
   -3.4406   -8.1737   12.5043 Br  0  0  0  0  0  0  0  0  0  0  0  0
   -1.2943   -6.6704   11.4133 C   0  0  0  0  0  0  0  0  0  0  0  0
   -0.5810   -6.1106   10.3702 C   0  0  0  0  0  0  0  0  0  0  0  0
    0.6347   -5.2889   10.3673 C   0  0  0  0  0  0  0  0  0  0  0  0
    1.3495   -4.9407   11.4842 C   0  0  0  0  0  0  0  0  0  0  0  0
    2.5199   -4.1524   11.4987 C   0  0  0  0  0  0  0  0  0  0  0  0
    3.4731   -3.5199   11.6017 N   0  0  0  0  0  0  0  0  0  0  0  0
    1.0152   -5.3344   12.7974 C   0  0  0  0  0  0  0  0  0  0  0  0
    0.8016   -5.6203   13.8882 N   0  0  0  0  0  0  0  0  0  0  0  0
   -1.5195   -0.2728   -6.5216 H   0  0  0  0  0  0  0  0  0  0  0  0
   -0.5772    5.8360   -6.9499 H   0  0  0  0  0  0  0  0  0  0  0  0
   -4.0105    3.2876   -9.6695 H   0  0  0  0  0  0  0  0  0  0  0  0
   -4.0561    6.6337  -10.4962 H   0  0  0  0  0  0  0  0  0  0  0  0
   -6.2238    6.5482   -9.2742 H   0  0  0  0  0  0  0  0  0  0  0  0
   -5.7757    5.2555   -7.0460 H   0  0  0  0  0  0  0  0  0  0  0  0
   -3.9874    6.6224   -5.6364 H   0  0  0  0  0  0  0  0  0  0  0  0
   -3.3340    8.7593   -6.9954 H   0  0  0  0  0  0  0  0  0  0  0  0
   -5.8752    8.6744   -7.7342 H   0  0  0  0  0  0  0  0  0  0  0  0
   -4.8789    8.8792   -9.1967 H   0  0  0  0  0  0  0  0  0  0  0  0
   -2.3164    7.9631   -9.1253 H   0  0  0  0  0  0  0  0  0  0  0  0
    1.8179    1.5811   -5.7475 H   0  0  0  0  0  0  0  0  0  0  0  0
    0.7348   -3.8595    2.7598 H   0  0  0  0  0  0  0  0  0  0  0  0
    1.0656   -3.6705    1.0221 H   0  0  0  0  0  0  0  0  0  0  0  0
    1.9059   -5.8389    1.7797 H   0  0  0  0  0  0  0  0  0  0  0  0
    3.2690   -4.8092    1.3209 H   0  0  0  0  0  0  0  0  0  0  0  0
    2.8862   -5.0709    3.0281 H   0  0  0  0  0  0  0  0  0  0  0  0
   -0.3459   -1.6774   -1.4112 H   0  0  0  0  0  0  0  0  0  0  0  0
    0.2015   -2.9767   -0.3713 H   0  0  0  0  0  0  0  0  0  0  0  0
   -0.4463   -0.1023    0.4897 H   0  0  0  0  0  0  0  0  0  0  0  0
    0.1017   -1.3565    1.6017 H   0  0  0  0  0  0  0  0  0  0  0  0
   -1.4540   -1.5219    0.7849 H   0  0  0  0  0  0  0  0  0  0  0  0
    3.9009   -2.4172    7.8719 H   0  0  0  0  0  0  0  0  0  0  0  0
    2.5879   -3.7189    9.3085 H   0  0  0  0  0  0  0  0  0  0  0  0
   -3.7614   -8.1558    9.5883 H   0  0  0  0  0  0  0  0  0  0  0  0
   -0.9982   -6.5561   12.4428 H   0  0  0  0  0  0  0  0  0  0  0  0
  1  2  2  0  0  0  0
  2  3  1  0  0  0  0
  3  4  2  0  0  0  0
  3  5  1  0  0  0  0
  5  6  2  0  0  0  0
  6  7  1  0  0  0  0
  7  8  2  0  0  0  0
  8  9  1  0  0  0  0
  9 10  2  0  0  0  0
 10 11  1  0  0  0  0
 11 12  2  0  0  0  0
 12 13  1  0  0  0  0
 13 14  3  0  0  0  0
 12 15  1  0  0  0  0
 15 16  3  0  0  0  0
  8 17  1  0  0  0  0
 17 18  1  0  0  0  0
 18 19  1  0  0  0  0
 19 20  2  0  0  0  0
 20 21  1  0  0  0  0
 21 22  1  0  0  0  0
 21 23  1  0  0  0  0
  1 24  1  0  0  0  0
 24 25  2  0  0  0  0
 25 26  1  0  0  0  0
 26 27  1  0  0  0  0
 27 28  1  0  0  0  0
 28 29  1  0  0  0  0
 29 30  1  0  0  0  0
 30 31  1  0  0  0  0
 31 32  2  0  0  0  0
 32 33  1  0  0  0  0
 33 34  1  0  0  0  0
 31 35  1  0  0  0  0
 35 36  1  0  0  0  0
 36 37  2  0  0  0  0
 37 38  1  0  0  0  0
 38 39  1  0  0  0  0
 39 40  1  0  0  0  0
 38 41  1  0  0  0  0
 41 42  1  0  0  0  0
 42 43  1  0  0  0  0
 43 44  1  0  0  0  0
 44 45  1  0  0  0  0
 45 46  1  0  0  0  0
 43 47  1  0  0  0  0
 47 48  1  0  0  0  0
 37 49  1  0  0  0  0
 49 50  2  0  0  0  0
 50 51  1  0  0  0  0
 50 52  1  0  0  0  0
 52 53  2  0  0  0  0
 53 54  1  0  0  0  0
 53 55  1  0  0  0  0
 55 56  2  0  0  0  0
 56 57  1  0  0  0  0
 57 58  2  0  0  0  0
 57 59  1  0  0  0  0
 59 60  2  0  0  0  0
 60 61  1  0  0  0  0
 60 62  1  0  0  0  0
 62 63  2  0  0  0  0
 63 64  1  0  0  0  0
 63 65  1  0  0  0  0
 65 66  2  0  0  0  0
 66 67  1  0  0  0  0
 67 68  2  0  0  0  0
 68 69  1  0  0  0  0
 69 70  3  0  0  0  0
 68 71  1  0  0  0  0
 71 72  3  0  0  0  0
 11  2  1  0  0  0  0
 23 17  1  0  0  0  0
 46 24  1  0  0  0  0
 54 49  1  0  0  0  0
 67 56  1  0  0  0  0
 10  5  1  0  0  0  0
 22 18  1  0  0  0  0
 45 26  2  0  0  0  0
 66 59  1  0  0  0  0
 23  7  1  0  0  0  0
 44 28  2  0  0  0  0
 42 29  2  0  0  0  0
 34 30  2  0  0  0  0
 41 35  2  0  0  0  0
 51 36  1  0  0  0  0
  1 73  1  0  0  0  0
  6 74  1  0  0  0  0
  9 75  1  0  0  0  0
 17 76  1  0  0  0  0
 18 77  1  0  0  0  0
 19 78  1  0  0  0  0
 20 79  1  0  0  0  0
 21 80  1  0  0  0  0
 22 81  1  0  0  0  0
 22 82  1  0  0  0  0
 23 83  1  0  0  0  0
 25 84  1  0  0  0  0
 39 85  1  0  0  0  0
 39 86  1  0  0  0  0
 40 87  1  0  0  0  0
 40 88  1  0  0  0  0
 40 89  1  0  0  0  0
 47 90  1  0  0  0  0
 47 91  1  0  0  0  0
 48 92  1  0  0  0  0
 48 93  1  0  0  0  0
 48 94  1  0  0  0  0
 52 95  1  0  0  0  0
 55 96  1  0  0  0  0
 62 97  1  0  0  0  0
 65 98  1  0  0  0  0
M  END
