
  xtb     02022210453D
 energy: -229.769147469999 gnorm: 0.000437624697 xtb: 6.4.1 (unknown)
130146  0     0  0            999 V2000
    4.7144    4.1257    1.3153 C   0  0  0  0  0  0  0  0  0  0  0  0
    5.6987    3.8348    0.4038 C   0  0  0  0  0  0  0  0  0  0  0  0
    5.6829    2.7335   -0.5609 C   0  0  0  0  0  0  0  0  0  0  0  0
    4.7859    1.9286   -0.7572 O   0  0  0  0  0  0  0  0  0  0  0  0
    6.9726    2.7804   -1.2678 C   0  0  0  0  0  0  0  0  0  0  0  0
    7.4153    1.9108   -2.2622 C   0  0  0  0  0  0  0  0  0  0  0  0
    8.6726    2.1982   -2.7359 C   0  0  0  0  0  0  0  0  0  0  0  0
    9.4343    3.2705   -2.2536 C   0  0  0  0  0  0  0  0  0  0  0  0
    9.0093    4.1347   -1.2722 C   0  0  0  0  0  0  0  0  0  0  0  0
    7.7301    3.8630   -0.7772 C   0  0  0  0  0  0  0  0  0  0  0  0
    6.9532    4.5452    0.2585 C   0  0  0  0  0  0  0  0  0  0  0  0
    7.3657    5.6548    0.9522 C   0  0  0  0  0  0  0  0  0  0  0  0
    8.6046    6.3013    0.7580 C   0  0  0  0  0  0  0  0  0  0  0  0
    9.5894    6.8836    0.6581 N   0  0  0  0  0  0  0  0  0  0  0  0
    6.6448    6.3328    1.9575 C   0  0  0  0  0  0  0  0  0  0  0  0
    6.1502    6.9551    2.7879 N   0  0  0  0  0  0  0  0  0  0  0  0
   10.5891    2.9698   -3.1765 C   0  0  0  0  0  0  0  0  0  0  0  0
   10.7328    3.8743   -4.4186 C   0  0  0  0  0  0  0  0  0  0  0  0
   11.6095    3.0707   -5.3517 C   0  0  0  0  0  0  0  0  0  0  0  0
   10.8878    2.0556   -5.8093 C   0  0  0  0  0  0  0  0  0  0  0  0
    9.5110    2.1560   -5.1930 C   0  0  0  0  0  0  0  0  0  0  0  0
    9.3731    3.6813   -5.1026 C   0  0  0  0  0  0  0  0  0  0  0  0
    9.7391    1.7743   -3.7150 C   0  0  0  0  0  0  0  0  0  0  0  0
    3.4832    3.5042    1.5537 C   0  0  0  0  0  0  0  0  0  0  0  0
    2.6190    3.9112    2.5887 C   0  0  0  0  0  0  0  0  0  0  0  0
    2.9622    4.9034    3.6021 C   0  0  0  0  0  0  0  0  0  0  0  0
    4.1718    4.8371    4.2923 C   0  0  0  0  0  0  0  0  0  0  0  0
    4.4977    5.8025    5.2219 C   0  0  0  0  0  0  0  0  0  0  0  0
    3.6315    6.8554    5.4901 C   0  0  0  0  0  0  0  0  0  0  0  0
    4.0381    7.9548    6.4240 C   0  0  0  0  0  0  0  0  0  0  0  0
    4.7593    9.0519    5.6366 C   0  0  0  0  0  0  0  0  0  0  0  0
    2.4107    6.8980    4.8268 C   0  0  0  0  0  0  0  0  0  0  0  0
    2.0718    5.9327    3.9008 C   0  0  0  0  0  0  0  0  0  0  0  0
    1.4035    3.2323    2.5382 C   0  0  0  0  0  0  0  0  0  0  0  0
   -0.0226    3.2756    3.5573 S   0  0  0  0  0  0  0  0  0  0  0  0
   -0.7104    2.0160    2.5902 C   0  0  0  0  0  0  0  0  0  0  0  0
   -1.8564    1.2119    2.5533 C   0  0  0  0  0  0  0  0  0  0  0  0
   -2.9420    1.1123    3.4520 C   0  0  0  0  0  0  0  0  0  0  0  0
   -3.9079    0.0721    3.2570 C   0  0  0  0  0  0  0  0  0  0  0  0
   -4.8319    0.0545    4.2044 N   0  0  0  0  0  0  0  0  0  0  0  0
   -4.5167    1.2505    5.2495 S   0  0  0  0  0  0  0  0  0  0  0  0
   -3.1867    1.8337    4.5343 N   0  0  0  0  0  0  0  0  0  0  0  0
   -3.8048   -0.7484    2.1115 C   0  0  0  0  0  0  0  0  0  0  0  0
   -4.6425   -1.7633    1.6337 C   0  0  0  0  0  0  0  0  0  0  0  0
   -6.0652   -2.6229    2.1125 S   0  0  0  0  0  0  0  0  0  0  0  0
   -5.9773   -3.5352    0.6172 C   0  0  0  0  0  0  0  0  0  0  0  0
   -6.7795   -4.5308    0.0715 C   0  0  0  0  0  0  0  0  0  0  0  0
   -7.9769   -5.0694    0.7052 C   0  0  0  0  0  0  0  0  0  0  0  0
   -9.1626   -5.2261   -0.0126 C   0  0  0  0  0  0  0  0  0  0  0  0
  -10.2724   -5.7835    0.5872 C   0  0  0  0  0  0  0  0  0  0  0  0
  -10.2340   -6.1982    1.9132 C   0  0  0  0  0  0  0  0  0  0  0  0
  -11.4080   -6.9000    2.5251 C   0  0  0  0  0  0  0  0  0  0  0  0
  -11.2687   -8.4094    2.3098 C   0  0  0  0  0  0  0  0  0  0  0  0
   -9.0628   -6.0044    2.6367 C   0  0  0  0  0  0  0  0  0  0  0  0
   -7.9496   -5.4405    2.0485 C   0  0  0  0  0  0  0  0  0  0  0  0
   -6.2884   -4.9644   -1.1812 C   0  0  0  0  0  0  0  0  0  0  0  0
   -4.8636   -4.0542   -1.6830 S   0  0  0  0  0  0  0  0  0  0  0  0
   -4.8959   -3.1671   -0.2042 C   0  0  0  0  0  0  0  0  0  0  0  0
   -4.1344   -2.1586    0.3895 C   0  0  0  0  0  0  0  0  0  0  0  0
   -3.0033   -1.4444    0.0962 N   0  0  0  0  0  0  0  0  0  0  0  0
   -2.7640   -0.5793    1.1492 C   0  0  0  0  0  0  0  0  0  0  0  0
   -1.7181    0.3392    1.4324 C   0  0  0  0  0  0  0  0  0  0  0  0
   -0.4999    0.6007    0.8305 N   0  0  0  0  0  0  0  0  0  0  0  0
    0.1110    1.6013    1.5351 C   0  0  0  0  0  0  0  0  0  0  0  0
    1.3289    2.2890    1.5016 C   0  0  0  0  0  0  0  0  0  0  0  0
    2.7760    2.2320    0.5623 S   0  0  0  0  0  0  0  0  0  0  0  0
    0.2760   -0.1869   -0.1015 C   0  0  0  0  0  0  0  0  0  0  0  0
    0.5697   -1.5790    0.4514 C   0  0  0  0  0  0  0  0  0  0  0  0
   -2.5181   -1.4158   -1.2669 C   0  0  0  0  0  0  0  0  0  0  0  0
   -2.7820   -0.0638   -1.9243 C   0  0  0  0  0  0  0  0  0  0  0  0
   -6.8152   -6.0673   -1.8501 C   0  0  0  0  0  0  0  0  0  0  0  0
   -6.4845   -6.6211   -3.0690 C   0  0  0  0  0  0  0  0  0  0  0  0
   -5.4867   -6.1070   -4.0028 C   0  0  0  0  0  0  0  0  0  0  0  0
   -4.7562   -5.1397   -3.8685 O   0  0  0  0  0  0  0  0  0  0  0  0
   -5.5280   -7.0037   -5.1770 C   0  0  0  0  0  0  0  0  0  0  0  0
   -4.7836   -6.9393   -6.3355 C   0  0  0  0  0  0  0  0  0  0  0  0
   -4.9984   -7.9047   -7.3130 C   0  0  0  0  0  0  0  0  0  0  0  0
   -4.0904   -7.8585   -8.7717 Cl  0  0  0  0  0  0  0  0  0  0  0  0
   -5.9498   -8.9045   -7.1023 C   0  0  0  0  0  0  0  0  0  0  0  0
   -6.2435  -10.2170   -8.4329 Br  0  0  0  0  0  0  0  0  0  0  0  0
   -6.6989   -8.9682   -5.9327 C   0  0  0  0  0  0  0  0  0  0  0  0
   -6.4865   -8.0079   -4.9584 C   0  0  0  0  0  0  0  0  0  0  0  0
   -7.0982   -7.7972   -3.6446 C   0  0  0  0  0  0  0  0  0  0  0  0
   -8.0703   -8.5954   -3.0955 C   0  0  0  0  0  0  0  0  0  0  0  0
   -8.6813   -8.4288   -1.8354 C   0  0  0  0  0  0  0  0  0  0  0  0
   -9.2416   -8.3848   -0.8328 N   0  0  0  0  0  0  0  0  0  0  0  0
   -8.6086   -9.7314   -3.7363 C   0  0  0  0  0  0  0  0  0  0  0  0
   -9.0884  -10.6645   -4.2024 N   0  0  0  0  0  0  0  0  0  0  0  0
    4.8971    4.9685    1.9708 H   0  0  0  0  0  0  0  0  0  0  0  0
    6.7965    1.0938   -2.5992 H   0  0  0  0  0  0  0  0  0  0  0  0
    9.6125    4.9504   -0.9111 H   0  0  0  0  0  0  0  0  0  0  0  0
   11.5403    2.7568   -2.6926 H   0  0  0  0  0  0  0  0  0  0  0  0
   11.0473    4.8923   -4.2060 H   0  0  0  0  0  0  0  0  0  0  0  0
   12.6464    3.2844   -5.5334 H   0  0  0  0  0  0  0  0  0  0  0  0
   11.2014    1.2518   -6.4494 H   0  0  0  0  0  0  0  0  0  0  0  0
    8.7127    1.6087   -5.6872 H   0  0  0  0  0  0  0  0  0  0  0  0
    8.5254    4.0160   -4.5076 H   0  0  0  0  0  0  0  0  0  0  0  0
    9.3364    4.1500   -6.0846 H   0  0  0  0  0  0  0  0  0  0  0  0
   10.1241    0.7638   -3.5907 H   0  0  0  0  0  0  0  0  0  0  0  0
    4.8458    4.0115    4.1120 H   0  0  0  0  0  0  0  0  0  0  0  0
    5.4421    5.7431    5.7422 H   0  0  0  0  0  0  0  0  0  0  0  0
    4.7077    7.5622    7.1916 H   0  0  0  0  0  0  0  0  0  0  0  0
    3.1592    8.3761    6.9164 H   0  0  0  0  0  0  0  0  0  0  0  0
    5.1124    9.8325    6.3064 H   0  0  0  0  0  0  0  0  0  0  0  0
    5.6082    8.6330    5.1022 H   0  0  0  0  0  0  0  0  0  0  0  0
    4.0866    9.4960    4.9067 H   0  0  0  0  0  0  0  0  0  0  0  0
    1.7202    7.7029    5.0335 H   0  0  0  0  0  0  0  0  0  0  0  0
    1.1278    5.9874    3.3791 H   0  0  0  0  0  0  0  0  0  0  0  0
   -9.2160   -4.8864   -1.0374 H   0  0  0  0  0  0  0  0  0  0  0  0
  -11.1803   -5.9073    0.0160 H   0  0  0  0  0  0  0  0  0  0  0  0
  -11.4592   -6.6871    3.5949 H   0  0  0  0  0  0  0  0  0  0  0  0
  -12.3326   -6.5533    2.0600 H   0  0  0  0  0  0  0  0  0  0  0  0
  -10.3840   -8.7832    2.8198 H   0  0  0  0  0  0  0  0  0  0  0  0
  -12.1409   -8.9311    2.6966 H   0  0  0  0  0  0  0  0  0  0  0  0
  -11.1658   -8.6290    1.2503 H   0  0  0  0  0  0  0  0  0  0  0  0
   -9.0205   -6.3087    3.6726 H   0  0  0  0  0  0  0  0  0  0  0  0
   -7.0396   -5.3156    2.6164 H   0  0  0  0  0  0  0  0  0  0  0  0
   -0.2208   -0.2331   -1.0706 H   0  0  0  0  0  0  0  0  0  0  0  0
    1.2184    0.3456   -0.2490 H   0  0  0  0  0  0  0  0  0  0  0  0
    1.1392   -2.1519   -0.2752 H   0  0  0  0  0  0  0  0  0  0  0  0
    1.1569   -1.4982    1.3631 H   0  0  0  0  0  0  0  0  0  0  0  0
   -0.3471   -2.1157    0.6846 H   0  0  0  0  0  0  0  0  0  0  0  0
   -1.4625   -1.6840   -1.3070 H   0  0  0  0  0  0  0  0  0  0  0  0
   -3.0662   -2.1911   -1.8074 H   0  0  0  0  0  0  0  0  0  0  0  0
   -2.3047    0.7447   -1.3753 H   0  0  0  0  0  0  0  0  0  0  0  0
   -3.8514    0.1318   -1.9540 H   0  0  0  0  0  0  0  0  0  0  0  0
   -2.4042   -0.0692   -2.9430 H   0  0  0  0  0  0  0  0  0  0  0  0
   -7.6061   -6.5627   -1.3001 H   0  0  0  0  0  0  0  0  0  0  0  0
   -4.0536   -6.1584   -6.4782 H   0  0  0  0  0  0  0  0  0  0  0  0
   -7.4226   -9.7581   -5.8143 H   0  0  0  0  0  0  0  0  0  0  0  0
  1  2  2  0  0  0  0
  2  3  1  0  0  0  0
  3  4  2  0  0  0  0
  3  5  1  0  0  0  0
  5  6  2  0  0  0  0
  6  7  1  0  0  0  0
  7  8  2  0  0  0  0
  8  9  1  0  0  0  0
  9 10  2  0  0  0  0
 10 11  1  0  0  0  0
 11 12  2  0  0  0  0
 12 13  1  0  0  0  0
 13 14  3  0  0  0  0
 12 15  1  0  0  0  0
 15 16  3  0  0  0  0
  8 17  1  0  0  0  0
 17 18  1  0  0  0  0
 18 19  1  0  0  0  0
 19 20  2  0  0  0  0
 20 21  1  0  0  0  0
 21 22  1  0  0  0  0
 21 23  1  0  0  0  0
  1 24  1  0  0  0  0
 24 25  2  0  0  0  0
 25 26  1  0  0  0  0
 26 27  2  0  0  0  0
 27 28  1  0  0  0  0
 28 29  2  0  0  0  0
 29 30  1  0  0  0  0
 30 31  1  0  0  0  0
 29 32  1  0  0  0  0
 32 33  2  0  0  0  0
 25 34  1  0  0  0  0
 34 35  1  0  0  0  0
 35 36  1  0  0  0  0
 36 37  1  0  0  0  0
 37 38  1  0  0  0  0
 38 39  1  0  0  0  0
 39 40  2  0  0  0  0
 40 41  1  0  0  0  0
 41 42  1  0  0  0  0
 39 43  1  0  0  0  0
 43 44  1  0  0  0  0
 44 45  1  0  0  0  0
 45 46  1  0  0  0  0
 46 47  1  0  0  0  0
 47 48  1  0  0  0  0
 48 49  2  0  0  0  0
 49 50  1  0  0  0  0
 50 51  2  0  0  0  0
 51 52  1  0  0  0  0
 52 53  1  0  0  0  0
 51 54  1  0  0  0  0
 54 55  2  0  0  0  0
 47 56  2  0  0  0  0
 56 57  1  0  0  0  0
 57 58  1  0  0  0  0
 58 59  1  0  0  0  0
 59 60  1  0  0  0  0
 60 61  1  0  0  0  0
 61 62  1  0  0  0  0
 62 63  1  0  0  0  0
 63 64  1  0  0  0  0
 64 65  1  0  0  0  0
 65 66  1  0  0  0  0
 63 67  1  0  0  0  0
 67 68  1  0  0  0  0
 60 69  1  0  0  0  0
 69 70  1  0  0  0  0
 56 71  1  0  0  0  0
 71 72  2  0  0  0  0
 72 73  1  0  0  0  0
 73 74  2  0  0  0  0
 73 75  1  0  0  0  0
 75 76  2  0  0  0  0
 76 77  1  0  0  0  0
 77 78  1  0  0  0  0
 77 79  2  0  0  0  0
 79 80  1  0  0  0  0
 79 81  1  0  0  0  0
 81 82  2  0  0  0  0
 82 83  1  0  0  0  0
 83 84  2  0  0  0  0
 84 85  1  0  0  0  0
 85 86  3  0  0  0  0
 84 87  1  0  0  0  0
 87 88  3  0  0  0  0
 11  2  1  0  0  0  0
 23 17  1  0  0  0  0
 66 24  1  0  0  0  0
 83 72  1  0  0  0  0
 10  5  1  0  0  0  0
 22 18  1  0  0  0  0
 33 26  1  0  0  0  0
 65 34  2  0  0  0  0
 82 75  1  0  0  0  0
 23  7  1  0  0  0  0
 64 36  2  0  0  0  0
 62 37  2  0  0  0  0
 42 38  2  0  0  0  0
 61 43  2  0  0  0  0
 59 44  2  0  0  0  0
 58 46  2  0  0  0  0
 55 48  1  0  0  0  0
  1 89  1  0  0  0  0
  6 90  1  0  0  0  0
  9 91  1  0  0  0  0
 17 92  1  0  0  0  0
 18 93  1  0  0  0  0
 19 94  1  0  0  0  0
 20 95  1  0  0  0  0
 21 96  1  0  0  0  0
 22 97  1  0  0  0  0
 22 98  1  0  0  0  0
 23 99  1  0  0  0  0
 27100  1  0  0  0  0
 28101  1  0  0  0  0
 30102  1  0  0  0  0
 30103  1  0  0  0  0
 31104  1  0  0  0  0
 31105  1  0  0  0  0
 31106  1  0  0  0  0
 32107  1  0  0  0  0
 33108  1  0  0  0  0
 49109  1  0  0  0  0
 50110  1  0  0  0  0
 52111  1  0  0  0  0
 52112  1  0  0  0  0
 53113  1  0  0  0  0
 53114  1  0  0  0  0
 53115  1  0  0  0  0
 54116  1  0  0  0  0
 55117  1  0  0  0  0
 67118  1  0  0  0  0
 67119  1  0  0  0  0
 68120  1  0  0  0  0
 68121  1  0  0  0  0
 68122  1  0  0  0  0
 69123  1  0  0  0  0
 69124  1  0  0  0  0
 70125  1  0  0  0  0
 70126  1  0  0  0  0
 70127  1  0  0  0  0
 71128  1  0  0  0  0
 76129  1  0  0  0  0
 81130  1  0  0  0  0
M  END
