130

C          0.32350        6.27690        0.07980
C          0.18780        6.70470       -1.21770
C          0.15160        5.85280       -2.40810
O          0.21130        4.63430       -2.45380
C          0.01970        6.75540       -3.56280
C         -0.05100        6.39210       -4.90580
C         -0.18290        7.45600       -5.76530
C         -0.23680        8.78350       -5.32100
C         -0.16300        9.15480       -3.99910
C         -0.03240        8.08740       -3.10550
C          0.06920        8.08390       -1.64540
C          0.04860        9.20230       -0.85080
C          0.14030        9.23590        0.55630
N          0.20790        9.38370        1.69430
C         -0.07300       10.52200       -1.33470
N         -0.16710       11.62280       -1.64830
C         -0.38570        9.32960       -6.71940
C         -1.80350        9.77250       -7.13850
C         -1.74350        9.79550       -8.64890
C         -1.69200        8.53820       -9.06990
C         -1.71630        7.64420       -7.85110
C         -2.60770        8.48320       -6.92640
C         -0.32510        7.84890       -7.21470
C          0.41500        4.98310        0.60620
C          0.55060        4.73980        1.98810
C          0.77230        5.78120        2.98560
C         -0.00370        5.81480        4.14250
C          0.16480        6.82830        5.06350
C          1.11730        7.82140        4.86770
C          1.23060        8.97550        5.81710
C          0.28900       10.09680        5.36990
C          1.92110        7.75800        3.73580
C          1.75490        6.75380        2.80500
C          0.43900        3.38240        2.28060
S          0.50160        2.47470        3.77960
C          0.27400        1.01710        2.87430
C          0.11250       -0.36060        3.09550
C         -0.04270       -1.14150        4.26490
C         -0.39480       -2.53270        4.14040
N         -0.59030       -3.10860        5.31540
S         -0.34360       -2.00950        6.47740
N          0.01670       -0.75040        5.52740
C         -0.42810       -3.12480        2.85620
C         -0.61790       -4.44310        2.40740
S         -1.02080       -6.00020        3.04150
C         -0.86300       -6.67270        1.43450
C         -1.04750       -7.96110        0.92030
C         -1.46770       -9.09410        1.74270
C         -0.80990       -9.36010        2.94100
C         -1.22000      -10.40650        3.74280
C         -2.29940      -11.20360        3.38090
C         -2.77710      -12.30500        4.28060
C         -3.83570      -11.77540        5.25090
C         -2.96470      -10.92150        2.19340
C         -2.55680       -9.88380        1.37970
C         -0.76890       -8.00780       -0.44920
S         -0.40150       -6.40900       -1.10050
C         -0.51740       -5.71560        0.47000
C         -0.37830       -4.44520        1.02470
N         -0.06230       -3.18010        0.59390
C         -0.12970       -2.35460        1.70100
C         -0.02810       -0.95250        1.81070
N         -0.01600        0.03210        0.84440
C          0.17120        1.22730        1.49140
C          0.25880        2.57780        1.14470
S          0.22200        3.49400       -0.31590
C         -0.68130       -0.00170       -0.44260
C         -2.08320        0.60010       -0.35220
C          0.80620       -3.00310       -0.55590
C          2.12650       -3.75230       -0.37650
C         -0.78230       -9.15220       -1.26290
C         -0.30910       -9.31800       -2.53560
C         -0.87480      -10.39720       -3.38320
O         -1.56360      -11.32450       -3.02040
C         -0.47230      -10.05040       -4.76360
C         -0.82970      -10.64990       -5.95600
C         -0.34150      -10.11790       -7.13940
C          0.48760       -9.00260       -7.10830
Cl         1.06930       -8.34850       -8.59250
C          0.86500       -8.39390       -5.91500
C          0.37760       -8.92940       -4.73680
C          0.61490       -8.55850       -3.34090
C          1.70800       -7.86430       -2.88710
C          2.61550       -7.18430       -3.72110
N          3.36640       -6.58130       -4.34650
C          2.08880       -7.82400       -1.52970
N          2.46520       -7.81080       -0.44480
H          0.34980        7.04720        0.84100
H         -0.00160        5.35620       -5.20280
H         -0.20110       10.18190       -3.67800
H          0.38960       10.02050       -7.04470
H         -2.16210       10.67360       -6.64870
H         -1.69010       10.69500       -9.23350
H         -1.58690        8.17760      -10.07640
H         -1.99610        6.60630       -8.01110
H         -3.62620        8.56720       -7.30190
H         -2.62760        8.13710       -5.89470
H          0.49120        7.55200       -7.87050
H         -0.76110        5.06060        4.29720
H         -0.45930        6.85520        5.94510
H          2.25630        9.34890        5.82840
H          0.96770        8.65930        6.82880
H          0.39900       10.96650        6.01340
H          0.50930       10.38410        4.34500
H         -0.74430        9.76030        5.41160
H          2.67920        8.51050        3.57750
H          2.40160        6.70610        1.94020
H          0.03730       -8.75590        3.22840
H         -0.69400      -10.60830        4.66450
H         -1.93800      -12.70980        4.84930
H         -3.20760      -13.11100        3.68320
H         -3.42200      -10.97740        5.86330
H         -4.68740      -11.37880        4.70280
H         -4.18330      -12.57150        5.90480
H         -3.81430      -11.52240        1.90290
H         -3.10560       -9.66210        0.47590
H         -0.08020        0.56740       -1.15790
H         -0.77100       -1.03320       -0.77630
H         -2.03890        1.64950       -0.07610
H         -2.67520        0.06590        0.38830
H         -2.57400        0.51960       -1.31780
H          1.02800       -1.94390       -0.67490
H          0.28590       -3.37250       -1.44540
H          2.63890       -3.40160        0.51680
H          1.96970       -4.82380       -0.28700
H          2.76380       -3.57230       -1.23770
H         -1.30800      -10.01160       -0.86050
H         -1.47490      -11.51460       -5.95640
H         -0.60060      -10.56100       -8.08800
H          1.50740       -7.52840       -5.92800
