
  xtb     02022201403D
 energy: -248.807176841367 gnorm: 0.000615898502 xtb: 6.4.1 (unknown)
139155  0     0  0            999 V2000
   -3.9405    2.4527    5.7214 C   0  0  0  0  0  0  0  0  0  0  0  0
   -3.8625    3.7059    6.2535 C   0  0  0  0  0  0  0  0  0  0  0  0
   -3.0292    4.8004    5.6961 C   0  0  0  0  0  0  0  0  0  0  0  0
   -2.4739    4.8367    4.6183 O   0  0  0  0  0  0  0  0  0  0  0  0
   -2.9105    5.7933    6.7805 C   0  0  0  0  0  0  0  0  0  0  0  0
   -2.1628    6.9683    6.7537 C   0  0  0  0  0  0  0  0  0  0  0  0
   -2.2101    7.6889    7.9226 C   0  0  0  0  0  0  0  0  0  0  0  0
   -2.9440    7.2713    9.0415 C   0  0  0  0  0  0  0  0  0  0  0  0
   -3.6892    6.1171    9.0811 C   0  0  0  0  0  0  0  0  0  0  0  0
   -3.6552    5.3698    7.9004 C   0  0  0  0  0  0  0  0  0  0  0  0
   -4.2999    4.1024    7.5770 C   0  0  0  0  0  0  0  0  0  0  0  0
   -5.2242    3.4409    8.3419 C   0  0  0  0  0  0  0  0  0  0  0  0
   -5.8995    2.2727    7.9290 C   0  0  0  0  0  0  0  0  0  0  0  0
   -6.5001    1.3382    7.6382 N   0  0  0  0  0  0  0  0  0  0  0  0
   -5.6527    3.8600    9.6180 C   0  0  0  0  0  0  0  0  0  0  0  0
   -6.0369    4.1391   10.6633 N   0  0  0  0  0  0  0  0  0  0  0  0
   -2.5156    8.4592    9.8652 C   0  0  0  0  0  0  0  0  0  0  0  0
   -1.4119    8.2365   10.9292 C   0  0  0  0  0  0  0  0  0  0  0  0
   -0.5829    7.0698   10.4523 C   0  0  0  0  0  0  0  0  0  0  0  0
    0.1079    7.4696    9.3930 C   0  0  0  0  0  0  0  0  0  0  0  0
   -0.2422    8.9142    9.1340 C   0  0  0  0  0  0  0  0  0  0  0  0
   -0.4716    9.3994   10.5743 C   0  0  0  0  0  0  0  0  0  0  0  0
   -1.7024    8.9275    8.6174 C   0  0  0  0  0  0  0  0  0  0  0  0
   -3.5865    2.0938    4.3978 C   0  0  0  0  0  0  0  0  0  0  0  0
   -3.7999    2.7470    3.1938 C   0  0  0  0  0  0  0  0  0  0  0  0
   -4.6287    3.9760    3.0267 C   0  0  0  0  0  0  0  0  0  0  0  0
   -5.7586    3.7733    2.0180 C   0  0  0  0  0  0  0  0  0  0  0  0
   -3.2315    2.0307    2.1279 C   0  0  0  0  0  0  0  0  0  0  0  0
   -3.1047    2.3571    0.4144 S   0  0  0  0  0  0  0  0  0  0  0  0
   -2.1737    0.9162    0.2261 C   0  0  0  0  0  0  0  0  0  0  0  0
   -1.5583    0.1777   -0.7952 C   0  0  0  0  0  0  0  0  0  0  0  0
   -1.5726    0.3850   -2.1965 C   0  0  0  0  0  0  0  0  0  0  0  0
   -2.0933    1.4859   -2.7319 N   0  0  0  0  0  0  0  0  0  0  0  0
   -2.1542    1.5858   -4.0504 C   0  0  0  0  0  0  0  0  0  0  0  0
   -2.5574    2.8840   -4.5417 C   0  0  0  0  0  0  0  0  0  0  0  0
   -2.0173    3.5410   -6.0587 S   0  0  0  0  0  0  0  0  0  0  0  0
   -2.8059    5.0513   -5.7594 C   0  0  0  0  0  0  0  0  0  0  0  0
   -2.7349    6.1834   -6.7240 C   0  0  0  0  0  0  0  0  0  0  0  0
   -1.3261    6.7763   -6.7846 C   0  0  0  0  0  0  0  0  0  0  0  0
   -3.4279    5.0103   -4.5442 C   0  0  0  0  0  0  0  0  0  0  0  0
   -3.2890    3.8030   -3.8386 C   0  0  0  0  0  0  0  0  0  0  0  0
   -4.1293    6.0511   -4.0601 F   0  0  0  0  0  0  0  0  0  0  0  0
   -1.7827    0.4762   -4.8685 C   0  0  0  0  0  0  0  0  0  0  0  0
   -2.0835    0.3611   -6.2742 C   0  0  0  0  0  0  0  0  0  0  0  0
   -3.1487    0.8333   -6.9922 C   0  0  0  0  0  0  0  0  0  0  0  0
   -3.1018    0.3981   -8.3272 C   0  0  0  0  0  0  0  0  0  0  0  0
   -4.0420    0.7455   -9.2261 F   0  0  0  0  0  0  0  0  0  0  0  0
   -2.0350   -0.3931   -8.6480 C   0  0  0  0  0  0  0  0  0  0  0  0
   -1.7145   -1.0119   -9.9646 C   0  0  0  0  0  0  0  0  0  0  0  0
   -1.7322   -2.5385   -9.8842 C   0  0  0  0  0  0  0  0  0  0  0  0
   -1.0524   -0.6404   -7.2482 S   0  0  0  0  0  0  0  0  0  0  0  0
   -1.1488   -0.5593   -4.3420 N   0  0  0  0  0  0  0  0  0  0  0  0
   -0.9896   -0.6086   -3.0225 C   0  0  0  0  0  0  0  0  0  0  0  0
   -0.2512   -1.6442   -2.3974 C   0  0  0  0  0  0  0  0  0  0  0  0
    0.5692   -2.6272   -2.9677 C   0  0  0  0  0  0  0  0  0  0  0  0
    1.0665   -3.1643   -4.5326 S   0  0  0  0  0  0  0  0  0  0  0  0
    2.1436   -4.3144   -3.7574 C   0  0  0  0  0  0  0  0  0  0  0  0
    3.0512   -5.2321   -4.2617 C   0  0  0  0  0  0  0  0  0  0  0  0
    3.2309   -5.4716   -5.7245 C   0  0  0  0  0  0  0  0  0  0  0  0
    2.3753   -6.6543   -6.1876 C   0  0  0  0  0  0  0  0  0  0  0  0
    3.7190   -5.9185   -3.2267 C   0  0  0  0  0  0  0  0  0  0  0  0
    3.1806   -5.3932   -1.6279 S   0  0  0  0  0  0  0  0  0  0  0  0
    2.0921   -4.2727   -2.3503 C   0  0  0  0  0  0  0  0  0  0  0  0
    1.1804   -3.3126   -1.9105 C   0  0  0  0  0  0  0  0  0  0  0  0
    0.7337   -2.8232   -0.7089 N   0  0  0  0  0  0  0  0  0  0  0  0
    1.5376   -3.0648    0.4697 C   0  0  0  0  0  0  0  0  0  0  0  0
    2.6131   -1.9912    0.6221 C   0  0  0  0  0  0  0  0  0  0  0  0
   -0.1502   -1.7955   -0.9825 C   0  0  0  0  0  0  0  0  0  0  0  0
   -0.9343   -0.9406   -0.1717 C   0  0  0  0  0  0  0  0  0  0  0  0
   -1.2265   -0.9091    1.1785 N   0  0  0  0  0  0  0  0  0  0  0  0
   -1.9693    0.2164    1.4194 C   0  0  0  0  0  0  0  0  0  0  0  0
   -2.5894    0.8434    2.5051 C   0  0  0  0  0  0  0  0  0  0  0  0
   -2.7520    0.5540    4.1952 S   0  0  0  0  0  0  0  0  0  0  0  0
   -1.1464   -1.9496    2.1783 C   0  0  0  0  0  0  0  0  0  0  0  0
   -0.0964   -1.6477    3.2463 C   0  0  0  0  0  0  0  0  0  0  0  0
    4.7021   -6.8774   -3.4635 C   0  0  0  0  0  0  0  0  0  0  0  0
    5.4667   -7.6281   -2.5960 C   0  0  0  0  0  0  0  0  0  0  0  0
    5.3915   -7.5980   -1.1374 C   0  0  0  0  0  0  0  0  0  0  0  0
    4.6548   -6.9218   -0.4417 O   0  0  0  0  0  0  0  0  0  0  0  0
    6.4029   -8.5642   -0.6574 C   0  0  0  0  0  0  0  0  0  0  0  0
    7.0517   -9.1438   -1.7632 C   0  0  0  0  0  0  0  0  0  0  0  0
    8.0498  -10.0833   -1.5634 C   0  0  0  0  0  0  0  0  0  0  0  0
    8.3860  -10.4304   -0.2625 C   0  0  0  0  0  0  0  0  0  0  0  0
    7.7439   -9.8562    0.8231 C   0  0  0  0  0  0  0  0  0  0  0  0
    8.2491  -10.3697    2.5706 Br  0  0  0  0  0  0  0  0  0  0  0  0
    6.7330   -8.9053    0.6434 C   0  0  0  0  0  0  0  0  0  0  0  0
    5.9381   -8.1921    1.9813 Cl  0  0  0  0  0  0  0  0  0  0  0  0
    6.4853   -8.5754   -2.9878 C   0  0  0  0  0  0  0  0  0  0  0  0
    6.8848   -8.9009   -4.2608 C   0  0  0  0  0  0  0  0  0  0  0  0
    6.3633   -8.3586   -5.4532 C   0  0  0  0  0  0  0  0  0  0  0  0
    5.9986   -7.9683   -6.4710 N   0  0  0  0  0  0  0  0  0  0  0  0
    7.8957   -9.8378   -4.5594 C   0  0  0  0  0  0  0  0  0  0  0  0
    8.7062  -10.5888   -4.8716 N   0  0  0  0  0  0  0  0  0  0  0  0
   -4.2124    1.6284    6.3712 H   0  0  0  0  0  0  0  0  0  0  0  0
   -1.6083    7.2516    5.8727 H   0  0  0  0  0  0  0  0  0  0  0  0
   -4.2445    5.8035    9.9495 H   0  0  0  0  0  0  0  0  0  0  0  0
   -3.3146    9.1036   10.2259 H   0  0  0  0  0  0  0  0  0  0  0  0
   -1.7761    8.1801   11.9514 H   0  0  0  0  0  0  0  0  0  0  0  0
   -0.6254    6.0879   10.8863 H   0  0  0  0  0  0  0  0  0  0  0  0
    0.7575    6.8886    8.7648 H   0  0  0  0  0  0  0  0  0  0  0  0
    0.4587    9.4759    8.5220 H   0  0  0  0  0  0  0  0  0  0  0  0
   -0.9488   10.3767   10.6323 H   0  0  0  0  0  0  0  0  0  0  0  0
    0.4408    9.3996   11.1686 H   0  0  0  0  0  0  0  0  0  0  0  0
   -1.9730    9.8771    8.1601 H   0  0  0  0  0  0  0  0  0  0  0  0
   -5.0525    4.2591    3.9911 H   0  0  0  0  0  0  0  0  0  0  0  0
   -3.9777    4.7893    2.6960 H   0  0  0  0  0  0  0  0  0  0  0  0
   -6.3919    2.9418    2.3200 H   0  0  0  0  0  0  0  0  0  0  0  0
   -5.3676    3.5711    1.0250 H   0  0  0  0  0  0  0  0  0  0  0  0
   -6.3689    4.6713    1.9692 H   0  0  0  0  0  0  0  0  0  0  0  0
   -3.4462    6.9494   -6.4080 H   0  0  0  0  0  0  0  0  0  0  0  0
   -3.0213    5.8339   -7.7190 H   0  0  0  0  0  0  0  0  0  0  0  0
   -0.6128    6.0200   -7.1044 H   0  0  0  0  0  0  0  0  0  0  0  0
   -1.0273    7.1438   -5.8057 H   0  0  0  0  0  0  0  0  0  0  0  0
   -1.2986    7.6030   -7.4895 H   0  0  0  0  0  0  0  0  0  0  0  0
   -3.7059    3.6128   -2.8679 H   0  0  0  0  0  0  0  0  0  0  0  0
   -3.9442    1.4350   -6.5938 H   0  0  0  0  0  0  0  0  0  0  0  0
   -0.7248   -0.6813  -10.2905 H   0  0  0  0  0  0  0  0  0  0  0  0
   -2.4491   -0.6674  -10.6955 H   0  0  0  0  0  0  0  0  0  0  0  0
   -1.4935   -2.9676  -10.8536 H   0  0  0  0  0  0  0  0  0  0  0  0
   -2.7154   -2.8908   -9.5810 H   0  0  0  0  0  0  0  0  0  0  0  0
   -1.0007   -2.8841   -9.1574 H   0  0  0  0  0  0  0  0  0  0  0  0
    2.9148   -4.5730   -6.2578 H   0  0  0  0  0  0  0  0  0  0  0  0
    4.2766   -5.6645   -5.9680 H   0  0  0  0  0  0  0  0  0  0  0  0
    2.5079   -6.8083   -7.2545 H   0  0  0  0  0  0  0  0  0  0  0  0
    2.6651   -7.5654   -5.6696 H   0  0  0  0  0  0  0  0  0  0  0  0
    1.3239   -6.4603   -5.9891 H   0  0  0  0  0  0  0  0  0  0  0  0
    2.0103   -4.0409    0.3350 H   0  0  0  0  0  0  0  0  0  0  0  0
    0.9209   -3.1116    1.3615 H   0  0  0  0  0  0  0  0  0  0  0  0
    3.2177   -2.1951    1.5014 H   0  0  0  0  0  0  0  0  0  0  0  0
    3.2632   -1.9843   -0.2495 H   0  0  0  0  0  0  0  0  0  0  0  0
    2.1615   -1.0058    0.7213 H   0  0  0  0  0  0  0  0  0  0  0  0
   -0.9666   -2.9029    1.6793 H   0  0  0  0  0  0  0  0  0  0  0  0
   -2.1267   -2.0147    2.6641 H   0  0  0  0  0  0  0  0  0  0  0  0
   -0.3945   -0.7766    3.8232 H   0  0  0  0  0  0  0  0  0  0  0  0
    0.8755   -1.4455    2.8056 H   0  0  0  0  0  0  0  0  0  0  0  0
   -0.0092   -2.4922    3.9243 H   0  0  0  0  0  0  0  0  0  0  0  0
    4.8908   -7.0446   -4.5149 H   0  0  0  0  0  0  0  0  0  0  0  0
    8.5681  -10.5477   -2.3851 H   0  0  0  0  0  0  0  0  0  0  0  0
    9.1612  -11.1601   -0.0865 H   0  0  0  0  0  0  0  0  0  0  0  0
  1  2  2  0  0  0  0
  2  3  1  0  0  0  0
  3  4  2  0  0  0  0
  3  5  1  0  0  0  0
  5  6  2  0  0  0  0
  6  7  1  0  0  0  0
  7  8  2  0  0  0  0
  8  9  1  0  0  0  0
  9 10  2  0  0  0  0
 10 11  1  0  0  0  0
 11 12  2  0  0  0  0
 12 13  1  0  0  0  0
 13 14  3  0  0  0  0
 12 15  1  0  0  0  0
 15 16  3  0  0  0  0
  8 17  1  0  0  0  0
 17 18  1  0  0  0  0
 18 19  1  0  0  0  0
 19 20  2  0  0  0  0
 20 21  1  0  0  0  0
 21 22  1  0  0  0  0
 21 23  1  0  0  0  0
  1 24  1  0  0  0  0
 24 25  2  0  0  0  0
 25 26  1  0  0  0  0
 26 27  1  0  0  0  0
 25 28  1  0  0  0  0
 28 29  1  0  0  0  0
 29 30  1  0  0  0  0
 30 31  1  0  0  0  0
 31 32  2  0  0  0  0
 32 33  1  0  0  0  0
 33 34  2  0  0  0  0
 34 35  1  0  0  0  0
 35 36  1  0  0  0  0
 36 37  1  0  0  0  0
 37 38  1  0  0  0  0
 38 39  1  0  0  0  0
 37 40  2  0  0  0  0
 40 41  1  0  0  0  0
 40 42  1  0  0  0  0
 34 43  1  0  0  0  0
 43 44  1  0  0  0  0
 44 45  2  0  0  0  0
 45 46  1  0  0  0  0
 46 47  1  0  0  0  0
 46 48  2  0  0  0  0
 48 49  1  0  0  0  0
 49 50  1  0  0  0  0
 48 51  1  0  0  0  0
 43 52  2  0  0  0  0
 52 53  1  0  0  0  0
 53 54  2  0  0  0  0
 54 55  1  0  0  0  0
 55 56  1  0  0  0  0
 56 57  1  0  0  0  0
 57 58  1  0  0  0  0
 58 59  1  0  0  0  0
 59 60  1  0  0  0  0
 58 61  2  0  0  0  0
 61 62  1  0  0  0  0
 62 63  1  0  0  0  0
 63 64  1  0  0  0  0
 64 65  1  0  0  0  0
 65 66  1  0  0  0  0
 66 67  1  0  0  0  0
 65 68  1  0  0  0  0
 68 69  2  0  0  0  0
 69 70  1  0  0  0  0
 70 71  1  0  0  0  0
 71 72  1  0  0  0  0
 72 73  1  0  0  0  0
 70 74  1  0  0  0  0
 74 75  1  0  0  0  0
 61 76  1  0  0  0  0
 76 77  2  0  0  0  0
 77 78  1  0  0  0  0
 78 79  2  0  0  0  0
 78 80  1  0  0  0  0
 80 81  2  0  0  0  0
 81 82  1  0  0  0  0
 82 83  2  0  0  0  0
 83 84  1  0  0  0  0
 84 85  1  0  0  0  0
 84 86  2  0  0  0  0
 86 87  1  0  0  0  0
 81 88  1  0  0  0  0
 88 89  2  0  0  0  0
 89 90  1  0  0  0  0
 90 91  3  0  0  0  0
 89 92  1  0  0  0  0
 92 93  3  0  0  0  0
 11  2  1  0  0  0  0
 23 17  1  0  0  0  0
 73 24  1  0  0  0  0
 88 77  1  0  0  0  0
 10  5  1  0  0  0  0
 22 18  1  0  0  0  0
 72 28  2  0  0  0  0
 86 80  1  0  0  0  0
 23  7  1  0  0  0  0
 71 30  2  0  0  0  0
 69 31  1  0  0  0  0
 53 32  1  0  0  0  0
 68 54  1  0  0  0  0
 41 35  2  0  0  0  0
 51 44  1  0  0  0  0
 64 55  2  0  0  0  0
 63 57  2  0  0  0  0
  1 94  1  0  0  0  0
  6 95  1  0  0  0  0
  9 96  1  0  0  0  0
 17 97  1  0  0  0  0
 18 98  1  0  0  0  0
 19 99  1  0  0  0  0
 20100  1  0  0  0  0
 21101  1  0  0  0  0
 22102  1  0  0  0  0
 22103  1  0  0  0  0
 23104  1  0  0  0  0
 26105  1  0  0  0  0
 26106  1  0  0  0  0
 27107  1  0  0  0  0
 27108  1  0  0  0  0
 27109  1  0  0  0  0
 38110  1  0  0  0  0
 38111  1  0  0  0  0
 39112  1  0  0  0  0
 39113  1  0  0  0  0
 39114  1  0  0  0  0
 41115  1  0  0  0  0
 45116  1  0  0  0  0
 49117  1  0  0  0  0
 49118  1  0  0  0  0
 50119  1  0  0  0  0
 50120  1  0  0  0  0
 50121  1  0  0  0  0
 59122  1  0  0  0  0
 59123  1  0  0  0  0
 60124  1  0  0  0  0
 60125  1  0  0  0  0
 60126  1  0  0  0  0
 66127  1  0  0  0  0
 66128  1  0  0  0  0
 67129  1  0  0  0  0
 67130  1  0  0  0  0
 67131  1  0  0  0  0
 74132  1  0  0  0  0
 74133  1  0  0  0  0
 75134  1  0  0  0  0
 75135  1  0  0  0  0
 75136  1  0  0  0  0
 76137  1  0  0  0  0
 82138  1  0  0  0  0
 83139  1  0  0  0  0
M  END
