98

C          0.63340        1.38110       -6.81850
C          1.95290        1.75600       -6.88090
C          2.86000        1.83840       -5.74350
O          2.60650        1.56030       -4.57520
C          4.14630        2.32420       -6.25670
C          5.30840        2.56900       -5.52700
C          6.35650        3.03160       -6.28590
C          6.25760        3.23180       -7.66920
C          5.11910        2.98810       -8.40180
C          4.03780        2.52100       -7.64960
C          2.68190        2.16250       -8.06810
C          2.21340        2.20520       -9.35530
C          0.91320        1.84850       -9.77210
N         -0.11800        1.57720      -10.19900
C          2.97520        2.61240      -10.47130
N          3.52930        2.93300      -11.42440
C          7.68090        3.71790       -7.78160
C          7.87860        5.24250       -7.92080
C          9.32310        5.45640       -7.52900
C          9.41830        5.26620       -6.21940
C          8.03970        4.92040       -5.70380
C          7.18280        5.76380       -6.65670
C          7.79150        3.49410       -6.23920
C         -0.15340        0.99060       -5.72570
C         -1.50310        0.67180       -5.89430
C         -2.17000        0.30650       -4.74030
S         -3.84400       -0.15790       -4.49000
C         -3.50210       -0.35870       -2.80780
C         -4.14590       -0.75770       -1.63220
C         -5.46810       -1.21140       -1.43220
C         -5.85930       -1.63510       -0.12390
N         -7.11100       -2.06380       -0.08170
S         -7.74300       -1.94110       -1.56700
N         -6.44280       -1.33730       -2.31890
C         -4.92770       -1.52730        0.93190
C         -5.07890       -1.80510        2.29290
C         -3.87420       -1.45700        2.91640
N         -2.99360       -0.97500        1.98520
C         -1.73580       -0.44330        2.45240
C         -0.70840       -1.54760        2.70020
C         -3.60080       -1.02330        0.74410
C         -3.18370       -0.68970       -0.57490
N         -1.98230       -0.28820       -1.13060
C         -2.17450       -0.07690       -2.46820
C         -1.39300        0.30330       -3.56300
Se         0.36930        0.81660       -3.90940
C         -0.64290       -0.15950       -0.60950
C         -0.27990        1.29930       -0.33330
C         -3.89170       -1.65180        4.29790
C         -5.14690       -2.16290        4.70450
S         -6.28130       -2.39360        3.38500
C         -5.28430       -2.40220        6.05470
C         -4.15450       -2.11210        6.83110
Se        -2.73710       -1.44950        5.74980
C         -4.16290       -2.32320        8.21040
C         -3.17240       -2.14450        9.15430
C         -1.82800       -1.67030        8.87660
O         -1.36630       -1.32390        7.79510
C         -1.10490       -1.68480       10.16170
C          0.20610       -1.33770       10.42000
C          0.65380       -1.44960       11.72690
F          1.91860       -1.12600       12.02340
C         -0.19980       -1.89750       12.73460
F          0.25940       -1.99820       13.98670
C         -1.51840       -2.24440       12.47380
C         -1.97450       -2.13570       11.17050
C         -3.28200       -2.41940       10.57180
C         -4.38420       -2.85510       11.26010
C         -5.65300       -3.12040       10.70240
N         -6.71480       -3.35650       10.33320
C         -4.40300       -3.09690       12.65050
N         -4.48040       -3.31170       13.77520
H          0.08270        1.38740       -7.75230
H          5.34090        2.39750       -4.46260
H          5.06500        3.14290       -9.46610
H          8.32850        3.14300       -8.44060
H          7.56320        5.65670       -8.87430
H         10.11020        5.66300       -8.22990
H         10.30110        5.28180       -5.60740
H          7.87160        5.04240       -4.63710
H          7.33790        6.83180       -6.51290
H          6.11820        5.54160       -6.61170
H          8.51280        2.76820       -5.86850
H         -1.97740        0.71370       -6.86040
H         -1.37010        0.30740        1.75770
H         -1.93540        0.06050        3.40830
H         -0.60340       -2.19870        1.83450
H          0.25700       -1.10840        2.93490
H         -1.01840       -2.16090        3.54570
H         -0.52550       -0.78450        0.27100
H          0.03990       -0.54270       -1.38040
H         -0.21230        1.84860       -1.27180
H         -1.02830        1.78750        0.28800
H          0.68520        1.35320        0.16200
H         -6.18750       -2.78810        6.49660
H         -5.11090       -2.70160        8.57580
H          0.86330       -0.99320        9.63790
H         -2.13480       -2.58520       13.28910
