102

C          3.11280       -4.99870        2.05240
C          4.16330       -5.23500        1.20340
C          4.59890       -4.47250        0.01400
O          4.20400       -3.39580       -0.39630
C          5.65030       -5.28090       -0.62730
C          6.31780       -4.98140       -1.81290
C          7.23620       -5.92950       -2.19220
C          7.47400       -7.09110       -1.44530
C          6.82930       -7.39280       -0.26950
C          5.89020       -6.43930        0.13530
C          5.02280       -6.40520        1.31040
C          5.07390       -7.30500        2.34390
C          4.31480       -7.26700        3.53360
N          3.76400       -7.32320        4.54050
C          5.94420       -8.41510        2.39220
N          6.61690       -9.33850        2.50880
C          8.50210       -7.60430       -2.42190
C          8.07250       -8.72930       -3.39590
C          6.58140       -8.59320       -3.57880
C          6.35870       -7.49300       -4.28530
C          7.69570       -6.86480       -4.59230
C          8.56400       -8.12650       -4.72170
C          8.23920       -6.30890       -3.25280
C          2.16120       -3.96420        2.11860
Se         0.80590       -4.11960        3.47810
C          0.15680       -2.53350        2.80630
C         -0.87020       -1.61000        3.02840
C         -1.84910       -1.57320        4.04250
C         -2.73560       -0.45210        4.11100
N         -3.56540       -0.52760        5.14000
S         -3.25590       -1.89500        5.94940
N         -2.05010       -2.44550        5.01720
C         -2.66290        0.52720        3.09490
C         -3.46950        1.64550        2.84780
S         -4.80120        2.48120        3.56510
C         -4.79670        3.59110        2.21430
C         -5.60160        4.69030        1.89750
C         -6.67200        5.21530        2.79250
C         -6.12720        6.35680        3.65470
C         -5.20240        5.28680        0.70850
S         -3.85010        4.43410       -0.03840
C         -3.80360        3.30920        1.26790
C         -3.03950        2.19830        1.63560
N         -1.98140        1.48490        1.14430
C         -1.71790        0.44980        2.02770
C         -0.73890       -0.58000        2.05400
N          0.37600       -0.86130        1.28350
C          0.92130       -2.04050        1.73220
C          2.01580       -2.81400        1.35810
C          1.16370        0.01820        0.44720
C          1.63930        1.24630        1.22000
C         -1.57430        1.67060       -0.23030
C         -1.98740        0.48650       -1.10090
C         -5.82490        6.38060        0.06880
C         -5.33640        7.19870       -0.90290
C         -6.27850        7.95390       -1.77920
O         -7.45660        8.12650       -1.57600
C         -5.46020        8.37120       -2.93400
C         -5.85090        8.99690       -4.11650
O         -7.13780        9.32200       -4.31020
C         -4.85940        9.26000       -5.06810
C         -3.54180        8.90750       -4.84590
C         -3.14530        8.29060       -3.66570
C         -4.11220        8.02950       -2.71230
C         -3.99720        7.44100       -1.37930
C         -2.85650        7.40200       -0.61900
C         -1.56990        7.70670       -1.10120
N         -0.49440        7.91170       -1.44810
C         -2.88070        7.13560        0.76590
N         -2.88100        6.97670        1.90290
H          2.95540       -5.75510        2.81430
H          6.10080       -4.07490       -2.35640
H          7.02580       -8.29170        0.28980
H          9.50240       -7.76090       -2.02320
H          8.43490       -9.71870       -3.13010
H          5.86100       -9.25890       -3.14060
H          5.41510       -7.05570       -4.55470
H          7.71560       -6.15670       -5.41680
H          9.63300       -7.91820       -4.73380
H          8.29770       -8.73420       -5.58520
H          9.06830       -5.61840       -3.39560
H         -7.51590        5.57620        2.20120
H         -7.01760        4.40440        3.43690
H         -6.90690        6.73320        4.31150
H         -5.77040        7.17010        3.02720
H         -5.29660        6.00620        4.26190
H          2.69950       -2.59000        0.55860
H          0.60960        0.29620       -0.44940
H          2.03180       -0.55720        0.12130
H          2.28100        0.94020        2.04300
H          2.20760        1.90050        0.56430
H          0.80250        1.80440        1.63360
H         -0.50320        1.86350       -0.29080
H         -2.08120        2.57160       -0.58470
H         -1.65630        0.64570       -2.12360
H         -3.07020        0.38500       -1.10000
H         -1.56020       -0.44320       -0.73230
H         -6.86880        6.54250        0.32170
H         -7.25950        9.75590       -5.16450
H         -5.13700        9.74790       -5.99320
H         -2.80480        9.11850       -5.60580
H         -2.11410        8.01900       -3.51270
