
  xtb     02022202243D
 energy: -260.096863717446 gnorm: 0.000469090060 xtb: 6.4.1 (unknown)
139155  0     0  0            999 V2000
   -3.8742    6.1746    1.8439 C   0  0  0  0  0  0  0  0  0  0  0  0
   -3.9072    7.4043    1.2544 C   0  0  0  0  0  0  0  0  0  0  0  0
   -3.1807    7.7858    0.0240 C   0  0  0  0  0  0  0  0  0  0  0  0
   -2.3307    7.1460   -0.5628 O   0  0  0  0  0  0  0  0  0  0  0  0
   -3.7850    9.0549   -0.4198 C   0  0  0  0  0  0  0  0  0  0  0  0
   -3.4660    9.7718   -1.5706 C   0  0  0  0  0  0  0  0  0  0  0  0
   -4.2159   10.9096   -1.7473 C   0  0  0  0  0  0  0  0  0  0  0  0
   -5.2207   11.3017   -0.8519 C   0  0  0  0  0  0  0  0  0  0  0  0
   -5.5494   10.6017    0.2843 C   0  0  0  0  0  0  0  0  0  0  0  0
   -4.7904    9.4456    0.4882 C   0  0  0  0  0  0  0  0  0  0  0  0
   -4.8491    8.4642    1.5652 C   0  0  0  0  0  0  0  0  0  0  0  0
   -5.5880    8.5672    2.7143 C   0  0  0  0  0  0  0  0  0  0  0  0
   -6.4773    9.6242    2.9992 C   0  0  0  0  0  0  0  0  0  0  0  0
   -7.2200   10.4500    3.2896 N   0  0  0  0  0  0  0  0  0  0  0  0
   -5.5271    7.6526    3.7873 C   0  0  0  0  0  0  0  0  0  0  0  0
   -5.5049    6.9627    4.7052 N   0  0  0  0  0  0  0  0  0  0  0  0
   -5.5656   12.5314   -1.6538 C   0  0  0  0  0  0  0  0  0  0  0  0
   -5.0549   13.8976   -1.1334 C   0  0  0  0  0  0  0  0  0  0  0  0
   -3.8134   13.6111   -0.3256 C   0  0  0  0  0  0  0  0  0  0  0  0
   -2.8584   13.2415   -1.1685 C   0  0  0  0  0  0  0  0  0  0  0  0
   -3.4365   13.2719   -2.5617 C   0  0  0  0  0  0  0  0  0  0  0  0
   -4.4196   14.4451   -2.4216 C   0  0  0  0  0  0  0  0  0  0  0  0
   -4.4426   12.0972   -2.6479 C   0  0  0  0  0  0  0  0  0  0  0  0
   -2.9315    5.1329    1.6652 C   0  0  0  0  0  0  0  0  0  0  0  0
   -1.5514    5.1087    1.5153 C   0  0  0  0  0  0  0  0  0  0  0  0
   -0.6047    6.2597    1.5867 C   0  0  0  0  0  0  0  0  0  0  0  0
   -0.7919    7.1182    2.8360 C   0  0  0  0  0  0  0  0  0  0  0  0
   -1.0879    3.7901    1.3873 C   0  0  0  0  0  0  0  0  0  0  0  0
    0.5153    3.1386    1.1356 S   0  0  0  0  0  0  0  0  0  0  0  0
   -0.1636    1.5515    1.0747 C   0  0  0  0  0  0  0  0  0  0  0  0
    0.2591    0.2230    0.8864 C   0  0  0  0  0  0  0  0  0  0  0  0
    1.5548   -0.3475    0.8031 C   0  0  0  0  0  0  0  0  0  0  0  0
    1.6672   -1.7608    0.6857 C   0  0  0  0  0  0  0  0  0  0  0  0
    2.8629   -2.3306    0.5527 N   0  0  0  0  0  0  0  0  0  0  0  0
    3.9417   -1.5679    0.5982 C   0  0  0  0  0  0  0  0  0  0  0  0
    5.2070   -2.2430    0.2868 C   0  0  0  0  0  0  0  0  0  0  0  0
    6.2045   -1.6170   -0.4591 C   0  0  0  0  0  0  0  0  0  0  0  0
    7.3760   -2.2852   -0.7537 C   0  0  0  0  0  0  0  0  0  0  0  0
    7.5534   -3.5911   -0.3124 C   0  0  0  0  0  0  0  0  0  0  0  0
    8.8472   -4.2984   -0.5963 C   0  0  0  0  0  0  0  0  0  0  0  0
    8.7151   -5.6327   -0.6462 F   0  0  0  0  0  0  0  0  0  0  0  0
    9.7732   -4.0512    0.3538 F   0  0  0  0  0  0  0  0  0  0  0  0
    9.4016   -3.9262   -1.7601 F   0  0  0  0  0  0  0  0  0  0  0  0
    6.5570   -4.2340    0.4112 C   0  0  0  0  0  0  0  0  0  0  0  0
    5.3867   -3.5618    0.7008 C   0  0  0  0  0  0  0  0  0  0  0  0
    3.8316   -0.1816    0.8920 C   0  0  0  0  0  0  0  0  0  0  0  0
    4.9753    0.6833    1.2050 C   0  0  0  0  0  0  0  0  0  0  0  0
    4.9491    2.0126    0.7864 C   0  0  0  0  0  0  0  0  0  0  0  0
    5.9996    2.8593    1.0775 C   0  0  0  0  0  0  0  0  0  0  0  0
    7.0810    2.3817    1.8072 C   0  0  0  0  0  0  0  0  0  0  0  0
    8.2458    3.2851    2.0932 C   0  0  0  0  0  0  0  0  0  0  0  0
    8.8645    2.9914    3.2468 F   0  0  0  0  0  0  0  0  0  0  0  0
    7.8987    4.5793    2.1651 F   0  0  0  0  0  0  0  0  0  0  0  0
    9.1903    3.2061    1.1325 F   0  0  0  0  0  0  0  0  0  0  0  0
    7.1076    1.0654    2.2522 C   0  0  0  0  0  0  0  0  0  0  0  0
    6.0555    0.2221    1.9557 C   0  0  0  0  0  0  0  0  0  0  0  0
    2.6466    0.4025    0.9361 N   0  0  0  0  0  0  0  0  0  0  0  0
    0.4786   -2.5280    0.5876 C   0  0  0  0  0  0  0  0  0  0  0  0
    0.2790   -3.8955    0.3289 C   0  0  0  0  0  0  0  0  0  0  0  0
    1.2103   -5.3374    0.1493 S   0  0  0  0  0  0  0  0  0  0  0  0
   -0.2553   -6.2186   -0.2187 C   0  0  0  0  0  0  0  0  0  0  0  0
   -0.4989   -7.5604   -0.5449 C   0  0  0  0  0  0  0  0  0  0  0  0
    0.5625   -8.6110   -0.4819 C   0  0  0  0  0  0  0  0  0  0  0  0
    1.7158   -8.3360   -1.4467 C   0  0  0  0  0  0  0  0  0  0  0  0
   -1.8548   -7.7813   -0.7535 C   0  0  0  0  0  0  0  0  0  0  0  0
   -2.8235   -6.3290   -0.4857 S   0  0  0  0  0  0  0  0  0  0  0  0
   -1.4012   -5.4116   -0.1764 C   0  0  0  0  0  0  0  0  0  0  0  0
   -1.0943   -4.0841    0.1319 C   0  0  0  0  0  0  0  0  0  0  0  0
   -1.7614   -2.8919    0.2862 N   0  0  0  0  0  0  0  0  0  0  0  0
   -0.8119   -1.9370    0.5911 C   0  0  0  0  0  0  0  0  0  0  0  0
   -0.9195   -0.5676    0.9021 C   0  0  0  0  0  0  0  0  0  0  0  0
   -2.0129    0.2316    1.1707 N   0  0  0  0  0  0  0  0  0  0  0  0
   -1.5516    1.5235    1.2571 C   0  0  0  0  0  0  0  0  0  0  0  0
   -2.0791    2.8043    1.4471 C   0  0  0  0  0  0  0  0  0  0  0  0
   -3.6262    3.5047    1.7230 S   0  0  0  0  0  0  0  0  0  0  0  0
   -3.2231   -0.1723    1.8595 C   0  0  0  0  0  0  0  0  0  0  0  0
   -3.1618    0.1876    3.3435 C   0  0  0  0  0  0  0  0  0  0  0  0
   -3.0280   -2.6748   -0.3843 C   0  0  0  0  0  0  0  0  0  0  0  0
   -2.8903   -2.8551   -1.8958 C   0  0  0  0  0  0  0  0  0  0  0  0
   -2.5730   -8.9689   -1.0281 C   0  0  0  0  0  0  0  0  0  0  0  0
   -2.1933   -9.9690   -1.8783 C   0  0  0  0  0  0  0  0  0  0  0  0
   -1.2370   -9.7842   -2.9966 C   0  0  0  0  0  0  0  0  0  0  0  0
   -0.6069   -8.7870   -3.2741 O   0  0  0  0  0  0  0  0  0  0  0  0
   -1.3331  -11.0190   -3.8011 C   0  0  0  0  0  0  0  0  0  0  0  0
   -0.6516  -11.3450   -4.9586 C   0  0  0  0  0  0  0  0  0  0  0  0
   -0.9169  -12.5644   -5.5610 C   0  0  0  0  0  0  0  0  0  0  0  0
   -1.8601  -13.4077   -4.9918 C   0  0  0  0  0  0  0  0  0  0  0  0
   -2.1113  -14.5806   -5.5936 F   0  0  0  0  0  0  0  0  0  0  0  0
   -2.5610  -13.1005   -3.8334 C   0  0  0  0  0  0  0  0  0  0  0  0
   -2.2849  -11.8838   -3.2321 C   0  0  0  0  0  0  0  0  0  0  0  0
   -2.8245  -11.2625   -2.0237 C   0  0  0  0  0  0  0  0  0  0  0  0
   -3.7035  -11.8396   -1.1455 C   0  0  0  0  0  0  0  0  0  0  0  0
   -4.2810  -13.1139   -1.3249 C   0  0  0  0  0  0  0  0  0  0  0  0
   -4.7875  -14.1391   -1.4220 N   0  0  0  0  0  0  0  0  0  0  0  0
   -4.1265  -11.2477    0.0636 C   0  0  0  0  0  0  0  0  0  0  0  0
   -4.4909  -10.8334    1.0705 N   0  0  0  0  0  0  0  0  0  0  0  0
   -4.7132    5.9044    2.4769 H   0  0  0  0  0  0  0  0  0  0  0  0
   -2.6911    9.4304   -2.2392 H   0  0  0  0  0  0  0  0  0  0  0  0
   -6.3317   10.9084    0.9585 H   0  0  0  0  0  0  0  0  0  0  0  0
   -6.5857   12.5845   -2.0286 H   0  0  0  0  0  0  0  0  0  0  0  0
   -5.8125   14.5077   -0.6493 H   0  0  0  0  0  0  0  0  0  0  0  0
   -3.7753   13.6506    0.7473 H   0  0  0  0  0  0  0  0  0  0  0  0
   -1.8621   12.9102   -0.9406 H   0  0  0  0  0  0  0  0  0  0  0  0
   -2.7203   13.3133   -3.3782 H   0  0  0  0  0  0  0  0  0  0  0  0
   -3.9173   15.3993   -2.2706 H   0  0  0  0  0  0  0  0  0  0  0  0
   -5.1207   14.5254   -3.2512 H   0  0  0  0  0  0  0  0  0  0  0  0
   -4.7282   11.8707   -3.6734 H   0  0  0  0  0  0  0  0  0  0  0  0
   -0.7322    6.8741    0.6917 H   0  0  0  0  0  0  0  0  0  0  0  0
    0.4105    5.8562    1.5733 H   0  0  0  0  0  0  0  0  0  0  0  0
   -0.0449    7.9076    2.8531 H   0  0  0  0  0  0  0  0  0  0  0  0
   -0.6760    6.5141    3.7334 H   0  0  0  0  0  0  0  0  0  0  0  0
   -1.7767    7.5770    2.8573 H   0  0  0  0  0  0  0  0  0  0  0  0
    6.0586   -0.6111   -0.8219 H   0  0  0  0  0  0  0  0  0  0  0  0
    8.1492   -1.8024   -1.3311 H   0  0  0  0  0  0  0  0  0  0  0  0
    6.6989   -5.2533    0.7359 H   0  0  0  0  0  0  0  0  0  0  0  0
    4.5955   -4.0470    1.2501 H   0  0  0  0  0  0  0  0  0  0  0  0
    4.0940    2.3671    0.2330 H   0  0  0  0  0  0  0  0  0  0  0  0
    5.9823    3.8873    0.7495 H   0  0  0  0  0  0  0  0  0  0  0  0
    7.9442    0.7104    2.8338 H   0  0  0  0  0  0  0  0  0  0  0  0
    6.0669   -0.7934    2.3211 H   0  0  0  0  0  0  0  0  0  0  0  0
    0.1279   -9.5889   -0.6905 H   0  0  0  0  0  0  0  0  0  0  0  0
    0.9528   -8.6241    0.5413 H   0  0  0  0  0  0  0  0  0  0  0  0
    2.4389   -9.1458   -1.3934 H   0  0  0  0  0  0  0  0  0  0  0  0
    2.2168   -7.4058   -1.1926 H   0  0  0  0  0  0  0  0  0  0  0  0
    1.3408   -8.2651   -2.4634 H   0  0  0  0  0  0  0  0  0  0  0  0
   -3.3330   -1.2522    1.7749 H   0  0  0  0  0  0  0  0  0  0  0  0
   -4.0795    0.3244    1.3922 H   0  0  0  0  0  0  0  0  0  0  0  0
   -3.1225    1.2635    3.4857 H   0  0  0  0  0  0  0  0  0  0  0  0
   -4.0478   -0.1922    3.8441 H   0  0  0  0  0  0  0  0  0  0  0  0
   -2.2823   -0.2593    3.8023 H   0  0  0  0  0  0  0  0  0  0  0  0
   -3.3688   -1.6603   -0.1905 H   0  0  0  0  0  0  0  0  0  0  0  0
   -3.7567   -3.3888    0.0119 H   0  0  0  0  0  0  0  0  0  0  0  0
   -2.1417   -2.1704   -2.2887 H   0  0  0  0  0  0  0  0  0  0  0  0
   -3.8425   -2.6434   -2.3737 H   0  0  0  0  0  0  0  0  0  0  0  0
   -2.5985   -3.8712   -2.1453 H   0  0  0  0  0  0  0  0  0  0  0  0
   -3.5416   -9.0422   -0.5464 H   0  0  0  0  0  0  0  0  0  0  0  0
    0.0713  -10.6597   -5.3728 H   0  0  0  0  0  0  0  0  0  0  0  0
   -0.4095  -12.8709   -6.4618 H   0  0  0  0  0  0  0  0  0  0  0  0
   -3.2858  -13.7984   -3.4482 H   0  0  0  0  0  0  0  0  0  0  0  0
  1  2  2  0  0  0  0
  2  3  1  0  0  0  0
  3  4  2  0  0  0  0
  3  5  1  0  0  0  0
  5  6  2  0  0  0  0
  6  7  1  0  0  0  0
  7  8  2  0  0  0  0
  8  9  1  0  0  0  0
  9 10  2  0  0  0  0
 10 11  1  0  0  0  0
 11 12  2  0  0  0  0
 12 13  1  0  0  0  0
 13 14  3  0  0  0  0
 12 15  1  0  0  0  0
 15 16  3  0  0  0  0
  8 17  1  0  0  0  0
 17 18  1  0  0  0  0
 18 19  1  0  0  0  0
 19 20  2  0  0  0  0
 20 21  1  0  0  0  0
 21 22  1  0  0  0  0
 21 23  1  0  0  0  0
  1 24  1  0  0  0  0
 24 25  2  0  0  0  0
 25 26  1  0  0  0  0
 26 27  1  0  0  0  0
 25 28  1  0  0  0  0
 28 29  1  0  0  0  0
 29 30  1  0  0  0  0
 30 31  1  0  0  0  0
 31 32  2  0  0  0  0
 32 33  1  0  0  0  0
 33 34  1  0  0  0  0
 34 35  2  0  0  0  0
 35 36  1  0  0  0  0
 36 37  2  0  0  0  0
 37 38  1  0  0  0  0
 38 39  2  0  0  0  0
 39 40  1  0  0  0  0
 40 41  1  0  0  0  0
 40 42  1  0  0  0  0
 40 43  1  0  0  0  0
 39 44  1  0  0  0  0
 44 45  2  0  0  0  0
 35 46  1  0  0  0  0
 46 47  1  0  0  0  0
 47 48  2  0  0  0  0
 48 49  1  0  0  0  0
 49 50  2  0  0  0  0
 50 51  1  0  0  0  0
 51 52  1  0  0  0  0
 51 53  1  0  0  0  0
 51 54  1  0  0  0  0
 50 55  1  0  0  0  0
 55 56  2  0  0  0  0
 46 57  2  0  0  0  0
 33 58  2  0  0  0  0
 58 59  1  0  0  0  0
 59 60  1  0  0  0  0
 60 61  1  0  0  0  0
 61 62  1  0  0  0  0
 62 63  1  0  0  0  0
 63 64  1  0  0  0  0
 62 65  2  0  0  0  0
 65 66  1  0  0  0  0
 66 67  1  0  0  0  0
 67 68  1  0  0  0  0
 68 69  1  0  0  0  0
 69 70  1  0  0  0  0
 70 71  2  0  0  0  0
 71 72  1  0  0  0  0
 72 73  1  0  0  0  0
 73 74  1  0  0  0  0
 74 75  1  0  0  0  0
 72 76  1  0  0  0  0
 76 77  1  0  0  0  0
 69 78  1  0  0  0  0
 78 79  1  0  0  0  0
 65 80  1  0  0  0  0
 80 81  2  0  0  0  0
 81 82  1  0  0  0  0
 82 83  2  0  0  0  0
 82 84  1  0  0  0  0
 84 85  2  0  0  0  0
 85 86  1  0  0  0  0
 86 87  2  0  0  0  0
 87 88  1  0  0  0  0
 87 89  1  0  0  0  0
 89 90  2  0  0  0  0
 90 91  1  0  0  0  0
 91 92  2  0  0  0  0
 92 93  1  0  0  0  0
 93 94  3  0  0  0  0
 92 95  1  0  0  0  0
 95 96  3  0  0  0  0
 11  2  1  0  0  0  0
 23 17  1  0  0  0  0
 75 24  1  0  0  0  0
 91 81  1  0  0  0  0
 10  5  1  0  0  0  0
 22 18  1  0  0  0  0
 74 28  2  0  0  0  0
 90 84  1  0  0  0  0
 23  7  1  0  0  0  0
 73 30  2  0  0  0  0
 71 31  1  0  0  0  0
 57 32  1  0  0  0  0
 70 58  1  0  0  0  0
 45 36  1  0  0  0  0
 56 47  1  0  0  0  0
 68 59  2  0  0  0  0
 67 61  2  0  0  0  0
  1 97  1  0  0  0  0
  6 98  1  0  0  0  0
  9 99  1  0  0  0  0
 17100  1  0  0  0  0
 18101  1  0  0  0  0
 19102  1  0  0  0  0
 20103  1  0  0  0  0
 21104  1  0  0  0  0
 22105  1  0  0  0  0
 22106  1  0  0  0  0
 23107  1  0  0  0  0
 26108  1  0  0  0  0
 26109  1  0  0  0  0
 27110  1  0  0  0  0
 27111  1  0  0  0  0
 27112  1  0  0  0  0
 37113  1  0  0  0  0
 38114  1  0  0  0  0
 44115  1  0  0  0  0
 45116  1  0  0  0  0
 48117  1  0  0  0  0
 49118  1  0  0  0  0
 55119  1  0  0  0  0
 56120  1  0  0  0  0
 63121  1  0  0  0  0
 63122  1  0  0  0  0
 64123  1  0  0  0  0
 64124  1  0  0  0  0
 64125  1  0  0  0  0
 76126  1  0  0  0  0
 76127  1  0  0  0  0
 77128  1  0  0  0  0
 77129  1  0  0  0  0
 77130  1  0  0  0  0
 78131  1  0  0  0  0
 78132  1  0  0  0  0
 79133  1  0  0  0  0
 79134  1  0  0  0  0
 79135  1  0  0  0  0
 80136  1  0  0  0  0
 85137  1  0  0  0  0
 86138  1  0  0  0  0
 89139  1  0  0  0  0
M  END
