
  xtb     02022218123D
 energy: -233.251148287873 gnorm: 0.000625406286 xtb: 6.4.1 (unknown)
133150  0     0  0            999 V2000
   -4.4268   -0.5912   -4.7853 C   0  0  0  0  0  0  0  0  0  0  0  0
   -5.4906    0.0792   -4.2331 C   0  0  0  0  0  0  0  0  0  0  0  0
   -5.4470    0.9397   -3.0495 C   0  0  0  0  0  0  0  0  0  0  0  0
   -4.4804    1.1931   -2.3477 O   0  0  0  0  0  0  0  0  0  0  0  0
   -6.8126    1.4512   -2.8545 C   0  0  0  0  0  0  0  0  0  0  0  0
   -7.2489    2.3098   -1.8481 C   0  0  0  0  0  0  0  0  0  0  0  0
   -8.5876    2.6119   -1.9142 C   0  0  0  0  0  0  0  0  0  0  0  0
   -9.4285    2.1013   -2.9116 C   0  0  0  0  0  0  0  0  0  0  0  0
   -9.0089    1.2558   -3.9116 C   0  0  0  0  0  0  0  0  0  0  0  0
   -7.6500    0.9301   -3.8611 C   0  0  0  0  0  0  0  0  0  0  0  0
   -6.8502    0.0689   -4.7336 C   0  0  0  0  0  0  0  0  0  0  0  0
   -7.3309   -0.6162   -5.8210 C   0  0  0  0  0  0  0  0  0  0  0  0
   -6.5910   -1.4583   -6.6773 C   0  0  0  0  0  0  0  0  0  0  0  0
   -6.0870   -2.1618   -7.4341 N   0  0  0  0  0  0  0  0  0  0  0  0
   -8.6723   -0.5795   -6.2568 C   0  0  0  0  0  0  0  0  0  0  0  0
   -9.7424   -0.6028   -6.6730 N   0  0  0  0  0  0  0  0  0  0  0  0
  -10.6415    2.8129   -2.3647 C   0  0  0  0  0  0  0  0  0  0  0  0
  -11.6427    1.9538   -1.5639 C   0  0  0  0  0  0  0  0  0  0  0  0
  -12.4329    2.9668   -0.7671 C   0  0  0  0  0  0  0  0  0  0  0  0
  -11.6359    3.4470    0.1788 C   0  0  0  0  0  0  0  0  0  0  0  0
  -10.2932    2.7670    0.0369 C   0  0  0  0  0  0  0  0  0  0  0  0
  -10.7474    1.3865   -0.4547 C   0  0  0  0  0  0  0  0  0  0  0  0
   -9.7036    3.3802   -1.2512 C   0  0  0  0  0  0  0  0  0  0  0  0
   -3.0925   -0.6755   -4.3717 C   0  0  0  0  0  0  0  0  0  0  0  0
   -2.1267   -1.4226   -5.0753 C   0  0  0  0  0  0  0  0  0  0  0  0
   -2.3542   -2.0384   -6.3780 C   0  0  0  0  0  0  0  0  0  0  0  0
   -1.9812   -3.3634   -6.5968 C   0  0  0  0  0  0  0  0  0  0  0  0
   -2.2345   -3.9654   -7.8119 C   0  0  0  0  0  0  0  0  0  0  0  0
   -2.8491   -3.2646   -8.8432 C   0  0  0  0  0  0  0  0  0  0  0  0
   -3.2093   -3.9503  -10.1263 C   0  0  0  0  0  0  0  0  0  0  0  0
   -4.5852   -4.6065   -9.9845 C   0  0  0  0  0  0  0  0  0  0  0  0
   -3.1803   -1.9312   -8.6358 C   0  0  0  0  0  0  0  0  0  0  0  0
   -2.9371   -1.3218   -7.4223 C   0  0  0  0  0  0  0  0  0  0  0  0
   -0.9279   -1.5029   -4.3694 C   0  0  0  0  0  0  0  0  0  0  0  0
    0.6038   -2.2876   -4.7081 S   0  0  0  0  0  0  0  0  0  0  0  0
    1.2122   -1.6775   -3.2071 C   0  0  0  0  0  0  0  0  0  0  0  0
    2.3680   -1.7524   -2.4185 C   0  0  0  0  0  0  0  0  0  0  0  0
    3.5564   -2.4968   -2.5886 C   0  0  0  0  0  0  0  0  0  0  0  0
    4.5249   -2.5060   -1.5319 C   0  0  0  0  0  0  0  0  0  0  0  0
    5.5589   -3.2880   -1.7989 N   0  0  0  0  0  0  0  0  0  0  0  0
    5.3344   -3.9528   -3.2582 S   0  0  0  0  0  0  0  0  0  0  0  0
    3.9086   -3.2694   -3.6039 N   0  0  0  0  0  0  0  0  0  0  0  0
    4.3076   -1.6892   -0.4003 C   0  0  0  0  0  0  0  0  0  0  0  0
    5.1034   -1.4543    0.7296 C   0  0  0  0  0  0  0  0  0  0  0  0
    6.5797   -2.0112    1.4349 S   0  0  0  0  0  0  0  0  0  0  0  0
    6.3324   -0.9096    2.7705 C   0  0  0  0  0  0  0  0  0  0  0  0
    7.0376   -0.6780    3.9611 C   0  0  0  0  0  0  0  0  0  0  0  0
    8.2344   -1.3951    4.3717 C   0  0  0  0  0  0  0  0  0  0  0  0
    9.2196   -1.7188    3.4385 C   0  0  0  0  0  0  0  0  0  0  0  0
   10.3541   -2.3981    3.8307 C   0  0  0  0  0  0  0  0  0  0  0  0
   10.5372   -2.7819    5.1551 C   0  0  0  0  0  0  0  0  0  0  0  0
   11.7470   -3.5677    5.5656 C   0  0  0  0  0  0  0  0  0  0  0  0
   11.4737   -5.0678    5.4327 C   0  0  0  0  0  0  0  0  0  0  0  0
    9.5447   -2.4748    6.0785 C   0  0  0  0  0  0  0  0  0  0  0  0
    8.4075   -1.7914    5.6985 C   0  0  0  0  0  0  0  0  0  0  0  0
    6.4011    0.2788    4.7544 C   0  0  0  0  0  0  0  0  0  0  0  0
    4.9304    0.8911    4.0006 S   0  0  0  0  0  0  0  0  0  0  0  0
    5.1621   -0.1503    2.6452 C   0  0  0  0  0  0  0  0  0  0  0  0
    4.4569   -0.4672    1.4828 C   0  0  0  0  0  0  0  0  0  0  0  0
    3.2851   -0.1037    0.8766 N   0  0  0  0  0  0  0  0  0  0  0  0
    3.1553   -0.8588   -0.2777 C   0  0  0  0  0  0  0  0  0  0  0  0
    2.1242   -0.9744   -1.2472 C   0  0  0  0  0  0  0  0  0  0  0  0
    0.8389   -0.4682   -1.3239 N   0  0  0  0  0  0  0  0  0  0  0  0
    0.2877   -0.9015   -2.4987 C   0  0  0  0  0  0  0  0  0  0  0  0
   -0.9430   -0.7996   -3.1551 C   0  0  0  0  0  0  0  0  0  0  0  0
   -2.4553   -0.0211   -2.8655 S   0  0  0  0  0  0  0  0  0  0  0  0
   -0.0251    0.0594   -0.2906 C   0  0  0  0  0  0  0  0  0  0  0  0
   -0.2094   -0.9407    0.8477 C   0  0  0  0  0  0  0  0  0  0  0  0
    2.6360    1.1300    1.2625 C   0  0  0  0  0  0  0  0  0  0  0  0
    2.7607    2.1920    0.1731 C   0  0  0  0  0  0  0  0  0  0  0  0
    6.9014    0.8424    5.9437 C   0  0  0  0  0  0  0  0  0  0  0  0
    6.2292    1.5565    6.8953 C   0  0  0  0  0  0  0  0  0  0  0  0
    6.9606    2.4856    7.7881 C   0  0  0  0  0  0  0  0  0  0  0  0
    8.1584    2.5525    7.9521 O   0  0  0  0  0  0  0  0  0  0  0  0
    5.9157    3.3452    8.3886 C   0  0  0  0  0  0  0  0  0  0  0  0
    6.0743    4.4375    9.2054 C   0  0  0  0  0  0  0  0  0  0  0  0
    4.9220    5.1100    9.6281 C   0  0  0  0  0  0  0  0  0  0  0  0
    4.8222    6.2579   10.4620 C   0  0  0  0  0  0  0  0  0  0  0  0
    3.5368    6.6373   10.6522 C   0  0  0  0  0  0  0  0  0  0  0  0
    2.9469    8.0958   11.6740 Br  0  0  0  0  0  0  0  0  0  0  0  0
    2.3693    5.6311    9.8365 S   0  0  0  0  0  0  0  0  0  0  0  0
    3.6541    4.6455    9.2057 C   0  0  0  0  0  0  0  0  0  0  0  0
    3.4910    3.5331    8.3888 C   0  0  0  0  0  0  0  0  0  0  0  0
    4.6388    2.8823    7.9818 C   0  0  0  0  0  0  0  0  0  0  0  0
    4.8183    1.6816    7.1736 C   0  0  0  0  0  0  0  0  0  0  0  0
    3.8667    0.7149    6.9582 C   0  0  0  0  0  0  0  0  0  0  0  0
    2.5036    0.8660    7.2701 C   0  0  0  0  0  0  0  0  0  0  0  0
    1.3772    0.9552    7.4758 N   0  0  0  0  0  0  0  0  0  0  0  0
    4.1902   -0.5704    6.4785 C   0  0  0  0  0  0  0  0  0  0  0  0
    4.4427   -1.6418    6.1510 N   0  0  0  0  0  0  0  0  0  0  0  0
   -4.6317   -1.1699   -5.6778 H   0  0  0  0  0  0  0  0  0  0  0  0
   -6.5640    2.6829   -1.1027 H   0  0  0  0  0  0  0  0  0  0  0  0
   -9.6708    0.8769   -4.6718 H   0  0  0  0  0  0  0  0  0  0  0  0
  -11.1271    3.5120   -3.0428 H   0  0  0  0  0  0  0  0  0  0  0  0
  -12.2132    1.2462   -2.1593 H   0  0  0  0  0  0  0  0  0  0  0  0
  -13.4395    3.2605   -1.0005 H   0  0  0  0  0  0  0  0  0  0  0  0
  -11.8434    4.2217    0.8934 H   0  0  0  0  0  0  0  0  0  0  0  0
   -9.6343    2.7998    0.9005 H   0  0  0  0  0  0  0  0  0  0  0  0
  -11.3184    0.8485    0.3002 H   0  0  0  0  0  0  0  0  0  0  0  0
   -9.9379    0.7555   -0.8169 H   0  0  0  0  0  0  0  0  0  0  0  0
   -9.5657    4.4578   -1.1849 H   0  0  0  0  0  0  0  0  0  0  0  0
   -1.5217   -3.9258   -5.7976 H   0  0  0  0  0  0  0  0  0  0  0  0
   -1.9587   -4.9994   -7.9612 H   0  0  0  0  0  0  0  0  0  0  0  0
   -2.4649   -4.7118  -10.3685 H   0  0  0  0  0  0  0  0  0  0  0  0
   -3.2379   -3.2247  -10.9412 H   0  0  0  0  0  0  0  0  0  0  0  0
   -4.8870   -5.0659  -10.9229 H   0  0  0  0  0  0  0  0  0  0  0  0
   -4.5596   -5.3728   -9.2133 H   0  0  0  0  0  0  0  0  0  0  0  0
   -5.3262   -3.8641   -9.6992 H   0  0  0  0  0  0  0  0  0  0  0  0
   -3.6419   -1.3662   -9.4318 H   0  0  0  0  0  0  0  0  0  0  0  0
   -3.1786   -0.2773   -7.2848 H   0  0  0  0  0  0  0  0  0  0  0  0
    9.1017   -1.4141    2.4094 H   0  0  0  0  0  0  0  0  0  0  0  0
   11.1135   -2.6328    3.0990 H   0  0  0  0  0  0  0  0  0  0  0  0
   12.0034   -3.3392    6.6018 H   0  0  0  0  0  0  0  0  0  0  0  0
   12.5963   -3.2993    4.9343 H   0  0  0  0  0  0  0  0  0  0  0  0
   11.2280   -5.3180    4.4031 H   0  0  0  0  0  0  0  0  0  0  0  0
   10.6363   -5.3571    6.0635 H   0  0  0  0  0  0  0  0  0  0  0  0
   12.3483   -5.6408    5.7310 H   0  0  0  0  0  0  0  0  0  0  0  0
    9.6630   -2.7794    7.1082 H   0  0  0  0  0  0  0  0  0  0  0  0
    7.6254   -1.5991    6.4178 H   0  0  0  0  0  0  0  0  0  0  0  0
    0.3470    1.0181    0.0697 H   0  0  0  0  0  0  0  0  0  0  0  0
   -0.9921    0.2490   -0.7624 H   0  0  0  0  0  0  0  0  0  0  0  0
    0.7421   -1.2064    1.3025 H   0  0  0  0  0  0  0  0  0  0  0  0
   -0.8580   -0.5177    1.6098 H   0  0  0  0  0  0  0  0  0  0  0  0
   -0.6696   -1.8505    0.4694 H   0  0  0  0  0  0  0  0  0  0  0  0
    1.5957    0.9506    1.5351 H   0  0  0  0  0  0  0  0  0  0  0  0
    3.1452    1.4788    2.1644 H   0  0  0  0  0  0  0  0  0  0  0  0
    2.2475    3.0991    0.4803 H   0  0  0  0  0  0  0  0  0  0  0  0
    3.8085    2.4281    0.0019 H   0  0  0  0  0  0  0  0  0  0  0  0
    2.3343    1.8471   -0.7658 H   0  0  0  0  0  0  0  0  0  0  0  0
    7.9779    0.7838    6.0769 H   0  0  0  0  0  0  0  0  0  0  0  0
    7.0557    4.7644    9.5112 H   0  0  0  0  0  0  0  0  0  0  0  0
    5.6673    6.7654   10.8902 H   0  0  0  0  0  0  0  0  0  0  0  0
    2.5068    3.2132    8.0882 H   0  0  0  0  0  0  0  0  0  0  0  0
  1  2  2  0  0  0  0
  2  3  1  0  0  0  0
  3  4  2  0  0  0  0
  3  5  1  0  0  0  0
  5  6  2  0  0  0  0
  6  7  1  0  0  0  0
  7  8  2  0  0  0  0
  8  9  1  0  0  0  0
  9 10  2  0  0  0  0
 10 11  1  0  0  0  0
 11 12  2  0  0  0  0
 12 13  1  0  0  0  0
 13 14  3  0  0  0  0
 12 15  1  0  0  0  0
 15 16  3  0  0  0  0
  8 17  1  0  0  0  0
 17 18  1  0  0  0  0
 18 19  1  0  0  0  0
 19 20  2  0  0  0  0
 20 21  1  0  0  0  0
 21 22  1  0  0  0  0
 21 23  1  0  0  0  0
  1 24  1  0  0  0  0
 24 25  2  0  0  0  0
 25 26  1  0  0  0  0
 26 27  2  0  0  0  0
 27 28  1  0  0  0  0
 28 29  2  0  0  0  0
 29 30  1  0  0  0  0
 30 31  1  0  0  0  0
 29 32  1  0  0  0  0
 32 33  2  0  0  0  0
 25 34  1  0  0  0  0
 34 35  1  0  0  0  0
 35 36  1  0  0  0  0
 36 37  1  0  0  0  0
 37 38  1  0  0  0  0
 38 39  1  0  0  0  0
 39 40  2  0  0  0  0
 40 41  1  0  0  0  0
 41 42  1  0  0  0  0
 39 43  1  0  0  0  0
 43 44  1  0  0  0  0
 44 45  1  0  0  0  0
 45 46  1  0  0  0  0
 46 47  1  0  0  0  0
 47 48  1  0  0  0  0
 48 49  2  0  0  0  0
 49 50  1  0  0  0  0
 50 51  2  0  0  0  0
 51 52  1  0  0  0  0
 52 53  1  0  0  0  0
 51 54  1  0  0  0  0
 54 55  2  0  0  0  0
 47 56  2  0  0  0  0
 56 57  1  0  0  0  0
 57 58  1  0  0  0  0
 58 59  1  0  0  0  0
 59 60  1  0  0  0  0
 60 61  1  0  0  0  0
 61 62  1  0  0  0  0
 62 63  1  0  0  0  0
 63 64  1  0  0  0  0
 64 65  1  0  0  0  0
 65 66  1  0  0  0  0
 63 67  1  0  0  0  0
 67 68  1  0  0  0  0
 60 69  1  0  0  0  0
 69 70  1  0  0  0  0
 56 71  1  0  0  0  0
 71 72  2  0  0  0  0
 72 73  1  0  0  0  0
 73 74  2  0  0  0  0
 73 75  1  0  0  0  0
 75 76  2  0  0  0  0
 76 77  1  0  0  0  0
 77 78  1  0  0  0  0
 78 79  2  0  0  0  0
 79 80  1  0  0  0  0
 79 81  1  0  0  0  0
 81 82  1  0  0  0  0
 82 83  1  0  0  0  0
 83 84  2  0  0  0  0
 84 85  1  0  0  0  0
 85 86  2  0  0  0  0
 86 87  1  0  0  0  0
 87 88  3  0  0  0  0
 86 89  1  0  0  0  0
 89 90  3  0  0  0  0
 11  2  1  0  0  0  0
 23 17  1  0  0  0  0
 66 24  1  0  0  0  0
 85 72  1  0  0  0  0
 10  5  1  0  0  0  0
 22 18  1  0  0  0  0
 33 26  1  0  0  0  0
 65 34  2  0  0  0  0
 84 75  1  0  0  0  0
 23  7  1  0  0  0  0
 64 36  2  0  0  0  0
 82 77  2  0  0  0  0
 62 37  2  0  0  0  0
 42 38  2  0  0  0  0
 61 43  2  0  0  0  0
 59 44  2  0  0  0  0
 58 46  2  0  0  0  0
 55 48  1  0  0  0  0
  1 91  1  0  0  0  0
  6 92  1  0  0  0  0
  9 93  1  0  0  0  0
 17 94  1  0  0  0  0
 18 95  1  0  0  0  0
 19 96  1  0  0  0  0
 20 97  1  0  0  0  0
 21 98  1  0  0  0  0
 22 99  1  0  0  0  0
 22100  1  0  0  0  0
 23101  1  0  0  0  0
 27102  1  0  0  0  0
 28103  1  0  0  0  0
 30104  1  0  0  0  0
 30105  1  0  0  0  0
 31106  1  0  0  0  0
 31107  1  0  0  0  0
 31108  1  0  0  0  0
 32109  1  0  0  0  0
 33110  1  0  0  0  0
 49111  1  0  0  0  0
 50112  1  0  0  0  0
 52113  1  0  0  0  0
 52114  1  0  0  0  0
 53115  1  0  0  0  0
 53116  1  0  0  0  0
 53117  1  0  0  0  0
 54118  1  0  0  0  0
 55119  1  0  0  0  0
 67120  1  0  0  0  0
 67121  1  0  0  0  0
 68122  1  0  0  0  0
 68123  1  0  0  0  0
 68124  1  0  0  0  0
 69125  1  0  0  0  0
 69126  1  0  0  0  0
 70127  1  0  0  0  0
 70128  1  0  0  0  0
 70129  1  0  0  0  0
 71130  1  0  0  0  0
 76131  1  0  0  0  0
 78132  1  0  0  0  0
 83133  1  0  0  0  0
M  END
