107

C          2.01740       -2.29930       -5.37850
C          2.38530       -1.05440       -5.82580
C          2.10000        0.22310       -5.16890
O          1.46670        0.40820       -4.14170
C          2.72440        1.26670       -5.99770
C          2.72280        2.63910       -5.75810
C          3.39460        3.37200       -6.70660
C          4.01770        2.78280       -7.81430
C          4.02140        1.43080       -8.06480
C          3.34720        0.66460       -7.10920
C          3.14330       -0.78210       -7.03100
C          3.60060       -1.69450       -7.94870
C          4.33960       -1.36490       -9.10410
N          4.94690       -1.17770      -10.06060
C          3.41050       -3.09050       -7.89220
N          3.30120       -4.23440       -7.92350
C          4.50580        4.10750       -8.34560
C          5.99590        4.43630       -8.11390
C          6.06680        5.93570       -8.29240
C          5.47580        6.49520       -7.24440
C          4.99570        5.38320       -6.33960
C          6.10050        4.34770       -6.58580
C          3.81010        4.76490       -7.11060
C          1.32710       -2.69160       -4.22650
C          1.08090       -4.03530       -3.89880
C          1.51890       -5.22500       -4.68900
C          2.95840       -5.60840       -4.33830
C          0.42100       -4.15530       -2.68240
Se        -0.16140       -5.65920       -1.67730
C         -0.75530       -4.38910       -0.45370
C         -1.41560       -4.33870        0.77920
C         -1.97390       -5.37800        1.55390
C         -2.68850       -5.04040        2.74590
N         -3.20060       -6.09990        3.35110
S         -2.81170       -7.41640        2.48720
N         -1.97430       -6.67870        1.31060
C         -2.71150       -3.69230        3.16310
C         -3.19120       -3.12590        4.34760
Se        -4.06620       -3.65780        5.90120
C         -3.82860       -1.85060        6.43870
C         -4.17710       -1.16100        7.59050
C         -4.83190       -1.82860        8.75510
C         -3.78610       -2.27370        9.78020
C         -3.77820        0.18710        7.53120
S         -2.96840        0.56520        6.01150
C         -3.16490       -1.06220        5.48060
C         -2.82210       -1.77360        4.32630
N         -2.15050       -1.49620        3.16520
C         -2.08480       -2.65180        2.41570
C         -1.52790       -2.96690        1.14650
N         -0.97650       -2.20420        0.13020
C         -0.51100       -3.06380       -0.83310
C          0.13650       -2.92490       -2.06640
S          0.69610       -1.59100       -3.00320
C         -1.27470       -0.84460       -0.26810
C         -2.65560       -0.76330       -0.91610
C         -1.45270       -0.23880        3.02530
C         -2.37880        0.88570        2.56300
C         -4.00770        1.09820        8.56380
C         -3.69920        2.43430        8.67910
C         -3.02210        3.26060        7.66950
O         -2.61400        2.91030        6.57490
C         -2.94230        4.60550        8.25120
C         -2.47030        5.82520        7.89210
S         -2.74850        6.97930        9.14490
C         -3.50760        5.80680       10.15910
C         -3.53940        4.58960        9.55290
C         -4.01450        3.24830        9.83780
C         -4.63650        2.88430       11.00630
C         -4.85420        3.82120       12.03670
N         -5.03530        4.57140       12.88650
C         -5.11860        1.60250       11.32820
N         -5.53310        0.57950       11.65000
H          2.31710       -3.13280       -5.99860
H          2.22540        3.04970       -4.89330
H          4.50210        0.99750       -8.92560
H          4.16100        4.37550       -9.34230
H          6.68990        3.83980       -8.69960
H          6.47610        6.41780       -9.16060
H          5.29280        7.53800       -7.06230
H          4.77960        5.65040       -5.30860
H          5.88190        3.36070       -6.18220
H          7.06910        4.68420       -6.21960
H          3.00000        5.47100       -7.28390
H          1.44100       -5.04130       -5.76140
H          0.85720       -6.05910       -4.43440
H          3.64210       -4.79780       -4.57920
H          3.03990       -5.82950       -3.27580
H          3.25460       -6.48750       -4.90320
H         -5.55670       -1.17060        9.23640
H         -5.36270       -2.71050        8.38230
H         -3.23920       -1.41780       10.16870
H         -3.07820       -2.96080        9.32080
H         -4.27360       -2.77570       10.61080
H         -0.51120       -0.54860       -0.99160
H         -1.22030       -0.16630        0.57500
H         -3.42620       -1.08560       -0.21780
H         -2.86020        0.25890       -1.22160
H         -2.69910       -1.40220       -1.79490
H         -0.60110       -0.38110        2.35820
H         -1.05480        0.02610        4.01060
H         -1.79680        1.77850        2.35240
H         -3.08970        1.12430        3.34900
H         -2.93620        0.60520        1.67310
H         -4.51960        0.66370        9.41210
H         -1.98270        6.12220        6.98550
H         -3.87220        6.10290       11.12210
