108

C         -3.43580        1.95660       -4.09990
C         -3.11260        3.12060       -4.74990
C         -1.93730        3.99790       -4.56970
O         -1.09060        3.97760       -3.69700
C         -1.96120        4.94350       -5.70260
C         -1.00530        5.91480       -5.99220
C         -1.26840        6.63550       -7.13190
C         -2.40140        6.40910       -7.92450
C         -3.35680        5.46150       -7.64400
C         -3.10630        4.71470       -6.48810
C         -3.86950        3.62680       -5.88190
C         -5.10980        3.21070       -6.29970
C         -5.80860        3.75810       -7.39570
N         -6.43960        4.14670       -8.27310
C         -5.89460        2.20560       -5.69810
N         -6.60190        1.40570       -5.27090
C         -2.01590        7.47420       -8.92100
C         -1.40720        6.98390      -10.25190
C         -0.70100        8.20370      -10.79820
C          0.37110        8.41970      -10.04680
C          0.40750        7.34920       -8.98000
C         -0.19770        6.17660       -9.76250
C         -0.75350        7.72790       -8.03590
C         -2.84950        1.29380       -3.00940
C         -1.83640        1.70570       -2.12070
C         -1.65130        0.65290       -1.24370
C         -2.54110       -0.38230       -1.60290
N         -3.28170        0.01530       -2.65510
C         -4.26100       -0.80360       -3.32970
C         -3.68880       -1.43920       -4.59510
C         -2.27910       -1.46350       -0.74360
C         -2.76760       -2.78850       -0.72890
C         -2.17760       -3.73880        0.16790
N         -2.68430       -4.95320        0.02990
S         -3.81730       -4.91210       -1.12320
N         -3.70170       -3.33620       -1.49370
C         -1.20900       -3.29230        1.09230
C         -0.54640       -3.96670        2.12320
S         -0.41280       -5.56620        2.76560
C          0.68460       -4.94730        3.98660
C          1.37600       -5.56550        5.01590
C          1.24810       -7.02250        5.31730
C          0.21020       -7.26340        6.41720
C          2.15130       -4.63990        5.74290
S          1.99650       -2.99930        5.10510
C          0.91430       -3.56130        3.88820
C          0.21100       -3.01160        2.81500
N          0.05880       -1.78160        2.23220
C         -0.79570       -1.92660        1.15290
C         -1.24930       -1.03050        0.15070
N         -0.88440        0.26720       -0.17310
C          0.31640        1.01150        0.13370
C          1.57750        0.24730       -0.26220
C          0.43140       -0.59570        2.97370
C         -0.79700        0.19360        3.41750
C          2.94710       -5.00570        6.82700
C          3.75930       -4.25560        7.64980
C          3.97430       -2.81280        7.56780
O          3.48710       -2.02260        6.77750
C          4.92170       -2.48020        8.65240
C          5.44260       -1.25010        8.99320
C          6.32880       -1.18130       10.06270
Cl         7.00030        0.33390       10.51780
C          6.66680       -2.34350       10.75920
Br         7.87210       -2.25010       12.21420
C          6.14070       -3.58320       10.41360
C          5.25890       -3.65340        9.34860
C          4.54750       -4.78080        8.74430
C          4.64090       -6.08410        9.16460
C          3.96800       -7.18590        8.59760
N          3.45840       -8.13470        8.19650
C          5.44270       -6.50890       10.24490
N          6.07210       -6.91980       11.11250
H         -4.27850        1.42670       -4.52070
H         -0.14740        6.05470       -5.35320
H         -4.22190        5.30110       -8.26500
H         -2.73160        8.28330       -9.05280
H         -2.10750        6.48510      -10.91620
H         -1.07200        8.79690      -11.61320
H          1.07450        9.22930      -10.10860
H          1.36120        7.18300       -8.48600
H          0.44200        5.85550      -10.58300
H         -0.45700        5.31800       -9.14580
H         -0.62740        8.70680       -7.57700
H         -1.34080        2.65270       -2.16280
H         -4.54590       -1.59660       -2.63450
H         -5.14630       -0.20740       -3.56760
H         -4.45740       -2.03170       -5.08210
H         -2.85640       -2.09050       -4.33980
H         -3.33780       -0.68210       -5.29290
H          2.20550       -7.44560        5.62470
H          0.92580       -7.53140        4.40670
H          0.12520       -8.32810        6.61400
H          0.50200       -6.76550        7.33880
H         -0.76170       -6.88500        6.10950
H          0.33540        1.30160        1.18520
H          0.25620        1.93060       -0.45320
H          2.45870        0.83160       -0.01130
H          1.63660       -0.71280        0.24500
H          1.57720        0.06540       -1.33440
H          0.97690       -0.94060        3.85540
H          1.11810        0.02210        2.39500
H         -1.42240       -0.42240        4.05950
H         -1.39360        0.51130        2.56560
H         -0.48760        1.07170        3.97760
H          2.91060       -6.06410        7.04510
H          5.16870       -0.36430        8.44250
H          6.43040       -4.45370       10.97930
