
  xtb     02022222053D
 energy: -196.329632026355 gnorm: 0.000412565021 xtb: 6.4.1 (unknown)
110124  0     0  0            999 V2000
   -5.0977   -4.7410   -1.5875 C   0  0  0  0  0  0  0  0  0  0  0  0
   -5.2445   -5.5358   -0.4789 C   0  0  0  0  0  0  0  0  0  0  0  0
   -4.4584   -5.4584    0.7547 C   0  0  0  0  0  0  0  0  0  0  0  0
   -3.5217   -4.7130    0.9932 O   0  0  0  0  0  0  0  0  0  0  0  0
   -5.0174   -6.4688    1.6679 C   0  0  0  0  0  0  0  0  0  0  0  0
   -4.6075   -6.7409    2.9714 C   0  0  0  0  0  0  0  0  0  0  0  0
   -5.3337   -7.7296    3.5908 C   0  0  0  0  0  0  0  0  0  0  0  0
   -6.3925   -8.3965    2.9607 C   0  0  0  0  0  0  0  0  0  0  0  0
   -6.8059   -8.1387    1.6751 C   0  0  0  0  0  0  0  0  0  0  0  0
   -6.0774   -7.1387    1.0240 C   0  0  0  0  0  0  0  0  0  0  0  0
   -6.2273   -6.5899   -0.3233 C   0  0  0  0  0  0  0  0  0  0  0  0
   -7.1399   -7.0185   -1.2543 C   0  0  0  0  0  0  0  0  0  0  0  0
   -8.0629   -8.0649   -1.0471 C   0  0  0  0  0  0  0  0  0  0  0  0
   -8.8393   -8.9060   -0.9554 N   0  0  0  0  0  0  0  0  0  0  0  0
   -7.3009   -6.4988   -2.5553 C   0  0  0  0  0  0  0  0  0  0  0  0
   -7.5035   -6.1364   -3.6273 N   0  0  0  0  0  0  0  0  0  0  0  0
   -6.6749   -9.2570    4.1668 C   0  0  0  0  0  0  0  0  0  0  0  0
   -6.1761  -10.7161    4.1064 C   0  0  0  0  0  0  0  0  0  0  0  0
   -6.1568  -11.1510    5.5541 C   0  0  0  0  0  0  0  0  0  0  0  0
   -5.1531  -10.5211    6.1512 C   0  0  0  0  0  0  0  0  0  0  0  0
   -4.4768   -9.6499    5.1170 C   0  0  0  0  0  0  0  0  0  0  0  0
   -4.6730  -10.5209    3.8695 C   0  0  0  0  0  0  0  0  0  0  0  0
   -5.4929   -8.5148    4.8693 C   0  0  0  0  0  0  0  0  0  0  0  0
   -4.2276   -3.6759   -1.8460 C   0  0  0  0  0  0  0  0  0  0  0  0
   -4.2668   -2.9342   -3.0385 C   0  0  0  0  0  0  0  0  0  0  0  0
   -5.2239   -3.1420   -4.1665 C   0  0  0  0  0  0  0  0  0  0  0  0
   -6.5567   -2.4422   -3.8859 C   0  0  0  0  0  0  0  0  0  0  0  0
   -3.3294   -1.9097   -3.0284 C   0  0  0  0  0  0  0  0  0  0  0  0
   -2.9359   -0.6634   -4.1990 S   0  0  0  0  0  0  0  0  0  0  0  0
   -1.7365   -0.0668   -3.1078 C   0  0  0  0  0  0  0  0  0  0  0  0
   -0.7771    0.9512   -3.0445 C   0  0  0  0  0  0  0  0  0  0  0  0
   -0.3978    1.9015   -4.0223 C   0  0  0  0  0  0  0  0  0  0  0  0
    0.6923    2.7887   -3.7241 C   0  0  0  0  0  0  0  0  0  0  0  0
    1.0181    3.6189   -4.6955 N   0  0  0  0  0  0  0  0  0  0  0  0
   -0.0512    3.3271   -6.0672 Se  0  0  0  0  0  2  0  0  0  0  0  0
   -0.9217    2.0463   -5.2237 N   0  0  0  0  0  0  0  0  0  0  0  0
    1.2697    2.7311   -2.4334 C   0  0  0  0  0  0  0  0  0  0  0  0
    2.2445    3.5514   -1.8510 C   0  0  0  0  0  0  0  0  0  0  0  0
    3.2545    4.8838   -2.2789 S   0  0  0  0  0  0  0  0  0  0  0  0
    3.8666    4.9218   -0.6395 C   0  0  0  0  0  0  0  0  0  0  0  0
    4.8406    5.7060   -0.0075 C   0  0  0  0  0  0  0  0  0  0  0  0
    5.4982    6.8898   -0.6390 C   0  0  0  0  0  0  0  0  0  0  0  0
    4.4856    7.8469   -1.2678 C   0  0  0  0  0  0  0  0  0  0  0  0
    5.0228    5.3097    1.3146 C   0  0  0  0  0  0  0  0  0  0  0  0
    3.9238    4.0124    1.7786 S   0  0  0  0  0  0  0  0  0  0  0  0
    3.2944    3.9375    0.1796 C   0  0  0  0  0  0  0  0  0  0  0  0
    2.3710    3.1520   -0.5167 C   0  0  0  0  0  0  0  0  0  0  0  0
    1.5347    2.0982   -0.2646 N   0  0  0  0  0  0  0  0  0  0  0  0
    0.8437    1.8131   -1.4296 C   0  0  0  0  0  0  0  0  0  0  0  0
   -0.1357    0.8413   -1.7750 C   0  0  0  0  0  0  0  0  0  0  0  0
   -0.6805   -0.2425   -1.1094 N   0  0  0  0  0  0  0  0  0  0  0  0
   -1.6448   -0.7899   -1.9128 C   0  0  0  0  0  0  0  0  0  0  0  0
   -2.5535   -1.8519   -1.8584 C   0  0  0  0  0  0  0  0  0  0  0  0
   -2.9910   -3.0847   -0.7346 S   0  0  0  0  0  0  0  0  0  0  0  0
   -0.1777   -1.0109    0.0083 C   0  0  0  0  0  0  0  0  0  0  0  0
    1.2121   -1.5718   -0.2834 C   0  0  0  0  0  0  0  0  0  0  0  0
    1.2743    1.7101    1.1030 C   0  0  0  0  0  0  0  0  0  0  0  0
   -0.1036    2.1801    1.5634 C   0  0  0  0  0  0  0  0  0  0  0  0
    5.8802    5.7895    2.3267 C   0  0  0  0  0  0  0  0  0  0  0  0
    7.1081    6.3804    2.2436 C   0  0  0  0  0  0  0  0  0  0  0  0
    7.6142    7.1497    3.4133 C   0  0  0  0  0  0  0  0  0  0  0  0
    7.1288    7.1729    4.5201 O   0  0  0  0  0  0  0  0  0  0  0  0
    8.7866    7.8942    2.9069 C   0  0  0  0  0  0  0  0  0  0  0  0
    9.5719    8.8507    3.5297 C   0  0  0  0  0  0  0  0  0  0  0  0
    9.2743    9.3166    5.1539 Cl  0  0  0  0  0  0  0  0  0  0  0  0
   10.6142    9.4346    2.8116 C   0  0  0  0  0  0  0  0  0  0  0  0
   10.8510    9.0633    1.5002 C   0  0  0  0  0  0  0  0  0  0  0  0
   10.0774    8.0980    0.8653 C   0  0  0  0  0  0  0  0  0  0  0  0
    9.0467    7.5105    1.5763 C   0  0  0  0  0  0  0  0  0  0  0  0
    8.0940    6.4655    1.1955 C   0  0  0  0  0  0  0  0  0  0  0  0
    8.2649    5.5818    0.1597 C   0  0  0  0  0  0  0  0  0  0  0  0
    7.4756    4.4292   -0.0201 C   0  0  0  0  0  0  0  0  0  0  0  0
    6.8891    3.4564   -0.1860 N   0  0  0  0  0  0  0  0  0  0  0  0
    9.3026    5.6675   -0.7898 C   0  0  0  0  0  0  0  0  0  0  0  0
   10.1142    5.6998   -1.6011 N   0  0  0  0  0  0  0  0  0  0  0  0
   -5.7742   -4.9433   -2.4064 H   0  0  0  0  0  0  0  0  0  0  0  0
   -3.7919   -6.1961    3.4206 H   0  0  0  0  0  0  0  0  0  0  0  0
   -7.6267   -8.6578    1.2100 H   0  0  0  0  0  0  0  0  0  0  0  0
   -7.6731   -9.1657    4.5906 H   0  0  0  0  0  0  0  0  0  0  0  0
   -6.7153  -11.3529    3.4106 H   0  0  0  0  0  0  0  0  0  0  0  0
   -6.8853  -11.8069    5.9931 H   0  0  0  0  0  0  0  0  0  0  0  0
   -4.8759  -10.5457    7.1887 H   0  0  0  0  0  0  0  0  0  0  0  0
   -3.4672   -9.3170    5.3426 H   0  0  0  0  0  0  0  0  0  0  0  0
   -4.1218  -11.4578    3.9309 H   0  0  0  0  0  0  0  0  0  0  0  0
   -4.4328  -10.0179    2.9346 H   0  0  0  0  0  0  0  0  0  0  0  0
   -5.7031   -7.9293    5.7625 H   0  0  0  0  0  0  0  0  0  0  0  0
   -4.7826   -2.7164   -5.0698 H   0  0  0  0  0  0  0  0  0  0  0  0
   -5.4021   -4.2040   -4.3407 H   0  0  0  0  0  0  0  0  0  0  0  0
   -6.4025   -1.3738   -3.7545 H   0  0  0  0  0  0  0  0  0  0  0  0
   -7.0192   -2.8401   -2.9856 H   0  0  0  0  0  0  0  0  0  0  0  0
   -7.2362   -2.5983   -4.7188 H   0  0  0  0  0  0  0  0  0  0  0  0
    6.1933    6.5445   -1.4117 H   0  0  0  0  0  0  0  0  0  0  0  0
    6.0709    7.4314    0.1155 H   0  0  0  0  0  0  0  0  0  0  0  0
    5.0015    8.7287   -1.6391 H   0  0  0  0  0  0  0  0  0  0  0  0
    3.9645    7.3798   -2.0981 H   0  0  0  0  0  0  0  0  0  0  0  0
    3.7529    8.1609   -0.5276 H   0  0  0  0  0  0  0  0  0  0  0  0
   -0.8760   -1.8385    0.1542 H   0  0  0  0  0  0  0  0  0  0  0  0
   -0.1908   -0.4172    0.9220 H   0  0  0  0  0  0  0  0  0  0  0  0
    1.1681   -2.2439   -1.1372 H   0  0  0  0  0  0  0  0  0  0  0  0
    1.5738   -2.1298    0.5758 H   0  0  0  0  0  0  0  0  0  0  0  0
    1.9202   -0.7788   -0.5137 H   0  0  0  0  0  0  0  0  0  0  0  0
    2.0416    2.1920    1.7140 H   0  0  0  0  0  0  0  0  0  0  0  0
    1.3964    0.6345    1.2260 H   0  0  0  0  0  0  0  0  0  0  0  0
   -0.8892    1.7850    0.9234 H   0  0  0  0  0  0  0  0  0  0  0  0
   -0.2840    1.8560    2.5847 H   0  0  0  0  0  0  0  0  0  0  0  0
   -0.1549    3.2659    1.5314 H   0  0  0  0  0  0  0  0  0  0  0  0
    5.4954    5.7056    3.3402 H   0  0  0  0  0  0  0  0  0  0  0  0
   11.2306   10.1795    3.2890 H   0  0  0  0  0  0  0  0  0  0  0  0
   11.6564    9.5330    0.9567 H   0  0  0  0  0  0  0  0  0  0  0  0
   10.2793    7.8305   -0.1589 H   0  0  0  0  0  0  0  0  0  0  0  0
  1  2  2  0  0  0  0
  2  3  1  0  0  0  0
  3  4  2  0  0  0  0
  3  5  1  0  0  0  0
  5  6  2  0  0  0  0
  6  7  1  0  0  0  0
  7  8  2  0  0  0  0
  8  9  1  0  0  0  0
  9 10  2  0  0  0  0
 10 11  1  0  0  0  0
 11 12  2  0  0  0  0
 12 13  1  0  0  0  0
 13 14  3  0  0  0  0
 12 15  1  0  0  0  0
 15 16  3  0  0  0  0
  8 17  1  0  0  0  0
 17 18  1  0  0  0  0
 18 19  1  0  0  0  0
 19 20  2  0  0  0  0
 20 21  1  0  0  0  0
 21 22  1  0  0  0  0
 21 23  1  0  0  0  0
  1 24  1  0  0  0  0
 24 25  2  0  0  0  0
 25 26  1  0  0  0  0
 26 27  1  0  0  0  0
 25 28  1  0  0  0  0
 28 29  1  0  0  0  0
 29 30  1  0  0  0  0
 30 31  1  0  0  0  0
 31 32  1  0  0  0  0
 32 33  1  0  0  0  0
 33 34  2  0  0  0  0
 34 35  1  0  0  0  0
 35 36  1  0  0  0  0
 33 37  1  0  0  0  0
 37 38  1  0  0  0  0
 38 39  1  0  0  0  0
 39 40  1  0  0  0  0
 40 41  1  0  0  0  0
 41 42  1  0  0  0  0
 42 43  1  0  0  0  0
 41 44  2  0  0  0  0
 44 45  1  0  0  0  0
 45 46  1  0  0  0  0
 46 47  1  0  0  0  0
 47 48  1  0  0  0  0
 48 49  1  0  0  0  0
 49 50  1  0  0  0  0
 50 51  1  0  0  0  0
 51 52  1  0  0  0  0
 52 53  1  0  0  0  0
 53 54  1  0  0  0  0
 51 55  1  0  0  0  0
 55 56  1  0  0  0  0
 48 57  1  0  0  0  0
 57 58  1  0  0  0  0
 44 59  1  0  0  0  0
 59 60  2  0  0  0  0
 60 61  1  0  0  0  0
 61 62  2  0  0  0  0
 61 63  1  0  0  0  0
 63 64  2  0  0  0  0
 64 65  1  0  0  0  0
 64 66  1  0  0  0  0
 66 67  2  0  0  0  0
 67 68  1  0  0  0  0
 68 69  2  0  0  0  0
 69 70  1  0  0  0  0
 70 71  2  0  0  0  0
 71 72  1  0  0  0  0
 72 73  3  0  0  0  0
 71 74  1  0  0  0  0
 74 75  3  0  0  0  0
 11  2  1  0  0  0  0
 23 17  1  0  0  0  0
 54 24  1  0  0  0  0
 70 60  1  0  0  0  0
 10  5  1  0  0  0  0
 22 18  1  0  0  0  0
 53 28  2  0  0  0  0
 69 63  1  0  0  0  0
 23  7  1  0  0  0  0
 52 30  2  0  0  0  0
 50 31  2  0  0  0  0
 36 32  2  0  0  0  0
 49 37  2  0  0  0  0
 47 38  2  0  0  0  0
 46 40  2  0  0  0  0
  1 76  1  0  0  0  0
  6 77  1  0  0  0  0
  9 78  1  0  0  0  0
 17 79  1  0  0  0  0
 18 80  1  0  0  0  0
 19 81  1  0  0  0  0
 20 82  1  0  0  0  0
 21 83  1  0  0  0  0
 22 84  1  0  0  0  0
 22 85  1  0  0  0  0
 23 86  1  0  0  0  0
 26 87  1  0  0  0  0
 26 88  1  0  0  0  0
 27 89  1  0  0  0  0
 27 90  1  0  0  0  0
 27 91  1  0  0  0  0
 42 92  1  0  0  0  0
 42 93  1  0  0  0  0
 43 94  1  0  0  0  0
 43 95  1  0  0  0  0
 43 96  1  0  0  0  0
 55 97  1  0  0  0  0
 55 98  1  0  0  0  0
 56 99  1  0  0  0  0
 56100  1  0  0  0  0
 56101  1  0  0  0  0
 57102  1  0  0  0  0
 57103  1  0  0  0  0
 58104  1  0  0  0  0
 58105  1  0  0  0  0
 58106  1  0  0  0  0
 59107  1  0  0  0  0
 66108  1  0  0  0  0
 67109  1  0  0  0  0
 68110  1  0  0  0  0
M  END
