134

C          0.38950        0.01140       -6.78440
C         -0.53590        0.73450       -7.48360
C         -1.87610        1.09290       -6.96510
O         -2.40560        0.70590       -5.94470
C         -2.37600        2.15160       -7.86120
C         -3.57650        2.84560       -7.73670
C         -3.75700        3.82460       -8.68370
C         -2.80990        4.10040       -9.67920
C         -1.62450        3.41790       -9.81820
C         -1.42340        2.41480       -8.86590
C         -0.29660        1.50610       -8.68270
C          0.75540        1.33080       -9.54470
C          0.95100        2.07230      -10.72690
N          1.17010        2.64910      -11.69520
C          1.75210        0.34750       -9.37680
N          2.57590       -0.44990       -9.30770
C         -3.62600        5.23140      -10.25310
C         -3.19170        6.67830       -9.90960
C         -2.47320        6.60980       -8.58490
C         -3.37420        6.34470       -7.64840
C         -4.71860        6.22880       -8.32330
C         -4.54250        7.25390       -9.45470
C         -4.68460        4.91880       -9.14900
C          0.09960       -0.86310       -5.71180
C         -0.98400       -1.71340       -5.52440
C         -2.05080       -1.97640       -6.49580
C         -3.36380       -1.80870       -6.06050
C         -4.42480       -1.99840       -6.92400
C         -4.18160       -2.37370       -8.23290
C         -2.88110       -2.58430       -8.65550
C         -1.79780       -2.39590       -7.80700
C         -0.42020       -2.75810       -8.29090
C          0.05220       -4.06330       -7.64820
C         -0.92390       -2.33450       -4.26740
S         -2.01880       -3.40960       -3.43060
C         -0.98830       -3.33840       -2.04260
C         -0.97610       -3.77550       -0.70670
C         -1.82190       -4.63210        0.03340
C         -1.52790       -4.87430        1.42030
N         -2.37510       -5.72730        1.97250
S         -3.45050       -6.18500        0.85290
N         -2.87960       -5.30940       -0.38300
C         -0.48760       -4.14460        2.04150
C         -0.14660       -3.96550        3.39000
S         -0.62930       -4.54130        4.94980
C          0.46290       -3.37870        5.67920
C          0.75440       -3.05640        6.99880
C          0.17280       -3.70070        8.18590
C         -1.15750       -3.48610        8.55180
C         -2.03580       -2.52920        7.79730
C         -1.75610       -1.08990        8.23670
C         -1.63700       -4.11110        9.69470
C         -0.82950       -4.93150       10.45960
C          0.48870       -5.13820       10.09250
C          0.98690       -4.52060        8.96200
C          1.70650       -2.02600        7.08280
S          2.24380       -1.48190        5.49740
C          1.17490       -2.60740        4.74340
C          0.82240       -2.95370        3.43610
N          1.12490       -2.53010        2.16790
C          0.33380       -3.25360        1.29470
C          0.17450       -3.19500       -0.10930
N          0.89200       -2.50940       -1.07250
C          0.16480       -2.56550       -2.23550
C          0.20640       -1.99750       -3.51120
S          1.24610       -0.92720       -4.37410
C          2.32670       -2.31520       -1.08540
C          3.00690       -3.21360       -2.11720
C          1.75300       -1.23740        1.97610
C          0.76650       -0.20130        1.44670
C          2.07650       -1.46790        8.31110
C          2.96030       -0.45970        8.60100
C          3.84990        0.20640        7.64810
O          3.88710        0.06250        6.43760
C          4.71590        1.09070        8.45270
C          5.74250        1.90010        8.03280
C          6.44080        2.64950        8.99090
O          7.44070        3.42180        8.51290
C          8.19820        4.20110        9.41030
C          6.07700        2.55660       10.33530
C          5.03470        1.73950       10.74820
C          4.34130        0.99560        9.80780
C          3.22130        0.07080        9.92520
C          2.51560       -0.19030       11.07300
C          1.37140       -1.00900       11.16980
N          0.42230       -1.63580       11.33560
C          2.82630        0.37430       12.32690
N          3.03250        0.79810       13.37410
H          1.44220        0.16080       -7.00050
H         -4.27440        2.60640       -6.94980
H         -0.90090        3.64370      -10.58400
H         -3.92600        5.12530      -11.29360
H         -2.67120        7.19510      -10.71130
H         -1.40840        6.70140       -8.47580
H         -3.21250        6.17000       -6.60070
H         -5.58900        6.33600       -7.68120
H         -5.31790        7.19610      -10.21730
H         -4.46260        8.27610       -9.08790
H         -5.67570        4.60290       -9.46860
H         -3.54340       -1.49680       -5.04400
H         -5.43590       -1.85370       -6.57480
H         -5.00130       -2.51770       -8.92130
H         -2.69820       -2.90920       -9.67020
H          0.30110       -1.97030       -8.07100
H         -0.44400       -2.88370       -9.37510
H         -0.64530       -4.86830       -7.86910
H          1.03280       -4.33500       -8.03090
H          0.11900       -3.95740       -6.56750
H         -1.87120       -2.61880        6.72260
H         -3.08170       -2.76700        7.99860
H         -2.45720       -0.40610        7.76350
H         -1.85270       -1.00120        9.31630
H         -0.74620       -0.79290        7.96210
H         -2.66140       -3.94090        9.99220
H         -1.22500       -5.40230       11.34670
H          1.12940       -5.77170       10.68710
H          2.01550       -4.67260        8.66540
H          2.55230       -1.26520       -1.29880
H          2.70740       -2.58510       -0.10220
H          2.72800       -4.25250       -1.95350
H          2.73260       -2.93240       -3.12940
H          4.08500       -3.12280       -2.01790
H          2.61840       -1.30810        1.31610
H          2.11820       -0.92520        2.95710
H         -0.08620       -0.11900        2.11660
H          1.25500        0.76700        1.38650
H          0.40450       -0.47140        0.45830
H          1.56350       -1.92400        9.14980
H          6.01740        1.96690        6.99250
H          8.71640        3.57660       10.14430
H          7.57450        4.93520        9.92910
H          8.93260        4.72120        8.79780
H          6.60650        3.12500       11.08320
H          4.78660        1.69470       11.79600
