
  xtb     02112206383D
 energy: -225.313200232235 gnorm: 0.000202058270 xtb: 6.4.1 (unknown)
133149  0     0  0            999 V2000
   -6.4459    1.3886    1.4583 C   0  0  0  0  0  0  0  0  0  0  0  0
   -6.7673    0.4940    2.4484 C   0  0  0  0  0  0  0  0  0  0  0  0
   -5.8427   -0.4262    3.1132 C   0  0  0  0  0  0  0  0  0  0  0  0
   -4.6782   -0.6501    2.8227 O   0  0  0  0  0  0  0  0  0  0  0  0
   -6.5962   -1.0449    4.2169 C   0  0  0  0  0  0  0  0  0  0  0  0
   -6.1113   -1.9443    5.1638 C   0  0  0  0  0  0  0  0  0  0  0  0
   -7.0435   -2.3292    6.0973 C   0  0  0  0  0  0  0  0  0  0  0  0
   -8.3636   -1.8610    6.0839 C   0  0  0  0  0  0  0  0  0  0  0  0
   -8.8569   -0.9810    5.1497 C   0  0  0  0  0  0  0  0  0  0  0  0
   -7.9227   -0.5688    4.1949 C   0  0  0  0  0  0  0  0  0  0  0  0
   -8.0642    0.3684    3.0800 C   0  0  0  0  0  0  0  0  0  0  0  0
   -9.2277    1.0013    2.7211 C   0  0  0  0  0  0  0  0  0  0  0  0
   -9.3936    1.9051    1.6507 C   0  0  0  0  0  0  0  0  0  0  0  0
   -9.6399    2.6506    0.8111 N   0  0  0  0  0  0  0  0  0  0  0  0
  -10.4633    0.8312    3.3800 C   0  0  0  0  0  0  0  0  0  0  0  0
  -11.5021    0.7485    3.8629 N   0  0  0  0  0  0  0  0  0  0  0  0
   -8.7380   -2.6408    7.3197 C   0  0  0  0  0  0  0  0  0  0  0  0
   -8.8311   -1.8389    8.6352 C   0  0  0  0  0  0  0  0  0  0  0  0
   -8.7298   -2.8954    9.7114 C   0  0  0  0  0  0  0  0  0  0  0  0
   -7.4791   -3.3386    9.7252 C   0  0  0  0  0  0  0  0  0  0  0  0
   -6.7142   -2.5889    8.6583 C   0  0  0  0  0  0  0  0  0  0  0  0
   -7.4254   -1.2314    8.7294 C   0  0  0  0  0  0  0  0  0  0  0  0
   -7.2653   -3.1625    7.3353 C   0  0  0  0  0  0  0  0  0  0  0  0
   -5.2238    1.6473    0.8285 C   0  0  0  0  0  0  0  0  0  0  0  0
   -5.0474    2.7188   -0.0688 C   0  0  0  0  0  0  0  0  0  0  0  0
   -6.0725    3.7134   -0.3684 C   0  0  0  0  0  0  0  0  0  0  0  0
   -6.7824    4.3542    0.6457 C   0  0  0  0  0  0  0  0  0  0  0  0
   -7.7923    5.2417    0.3363 C   0  0  0  0  0  0  0  0  0  0  0  0
   -8.1189    5.5179   -0.9856 C   0  0  0  0  0  0  0  0  0  0  0  0
   -9.2889    6.3948   -1.3148 C   0  0  0  0  0  0  0  0  0  0  0  0
  -10.5444    5.5319   -1.4677 C   0  0  0  0  0  0  0  0  0  0  0  0
   -7.3783    4.9120   -1.9939 C   0  0  0  0  0  0  0  0  0  0  0  0
   -6.3631    4.0271   -1.6947 C   0  0  0  0  0  0  0  0  0  0  0  0
   -3.7737    2.7102   -0.6306 C   0  0  0  0  0  0  0  0  0  0  0  0
   -2.9532    3.8165   -1.7149 S   0  0  0  0  0  0  0  0  0  0  0  0
   -1.5249    2.8525   -1.5609 C   0  0  0  0  0  0  0  0  0  0  0  0
   -0.1830    2.8782   -1.9599 C   0  0  0  0  0  0  0  0  0  0  0  0
    0.5590    3.8788   -2.6268 C   0  0  0  0  0  0  0  0  0  0  0  0
    1.9820    3.7351   -2.7208 C   0  0  0  0  0  0  0  0  0  0  0  0
    2.5592    4.7756   -3.2995 N   0  0  0  0  0  0  0  0  0  0  0  0
    1.4084    5.8439   -3.6976 S   0  0  0  0  0  0  0  0  0  0  0  0
    0.1296    5.0185   -3.1437 N   0  0  0  0  0  0  0  0  0  0  0  0
    2.5754    2.5325   -2.2758 C   0  0  0  0  0  0  0  0  0  0  0  0
    3.8906    2.0666   -2.3895 C   0  0  0  0  0  0  0  0  0  0  0  0
    5.4337    2.6328   -2.9259 S   0  0  0  0  0  0  0  0  0  0  0  0
    6.0858    1.0343   -2.6234 C   0  0  0  0  0  0  0  0  0  0  0  0
    7.3636    0.4987   -2.7605 C   0  0  0  0  0  0  0  0  0  0  0  0
    8.5394    1.2817   -3.1250 C   0  0  0  0  0  0  0  0  0  0  0  0
    9.7153    1.1832   -2.3810 C   0  0  0  0  0  0  0  0  0  0  0  0
   10.8178    1.9413   -2.7147 C   0  0  0  0  0  0  0  0  0  0  0  0
   10.7823    2.8146   -3.7952 C   0  0  0  0  0  0  0  0  0  0  0  0
   11.9767    3.6585   -4.1274 C   0  0  0  0  0  0  0  0  0  0  0  0
   11.9761    4.9370   -3.2861 C   0  0  0  0  0  0  0  0  0  0  0  0
    9.6026    2.9263   -4.5213 C   0  0  0  0  0  0  0  0  0  0  0  0
    8.4916    2.1764   -4.1919 C   0  0  0  0  0  0  0  0  0  0  0  0
    7.3823   -0.8775   -2.4545 C   0  0  0  0  0  0  0  0  0  0  0  0
    5.8125   -1.4512   -1.8956 S   0  0  0  0  0  0  0  0  0  0  0  0
    5.1389    0.1210   -2.1303 C   0  0  0  0  0  0  0  0  0  0  0  0
    3.8906    0.7310   -1.9680 C   0  0  0  0  0  0  0  0  0  0  0  0
    2.6342    0.3773   -1.5545 N   0  0  0  0  0  0  0  0  0  0  0  0
    1.8067    1.4719   -1.7097 C   0  0  0  0  0  0  0  0  0  0  0  0
    0.4337    1.7083   -1.4229 C   0  0  0  0  0  0  0  0  0  0  0  0
   -0.5089    1.0327   -0.6737 N   0  0  0  0  0  0  0  0  0  0  0  0
   -1.6879    1.7235   -0.7489 C   0  0  0  0  0  0  0  0  0  0  0  0
   -2.9672    1.6486   -0.1882 C   0  0  0  0  0  0  0  0  0  0  0  0
   -3.7739    0.6590    0.9738 S   0  0  0  0  0  0  0  0  0  0  0  0
   -0.3759   -0.0437    0.2807 C   0  0  0  0  0  0  0  0  0  0  0  0
   -1.0706   -1.3212   -0.1887 C   0  0  0  0  0  0  0  0  0  0  0  0
    2.3296   -1.0112   -1.2955 C   0  0  0  0  0  0  0  0  0  0  0  0
    2.8807   -1.4874    0.0482 C   0  0  0  0  0  0  0  0  0  0  0  0
    8.4972   -1.6820   -2.7063 C   0  0  0  0  0  0  0  0  0  0  0  0
    8.6801   -3.0348   -2.5447 C   0  0  0  0  0  0  0  0  0  0  0  0
    7.6965   -3.9811   -2.0154 C   0  0  0  0  0  0  0  0  0  0  0  0
    6.5839   -3.7336   -1.5781 O   0  0  0  0  0  0  0  0  0  0  0  0
    8.3157   -5.3149   -2.1167 C   0  0  0  0  0  0  0  0  0  0  0  0
    7.7850   -6.5416   -1.7818 C   0  0  0  0  0  0  0  0  0  0  0  0
    8.5547   -7.6876   -1.9814 C   0  0  0  0  0  0  0  0  0  0  0  0
    7.9934   -9.0332   -1.6474 C   0  0  0  0  0  0  0  0  0  0  0  0
    9.8355   -7.5554   -2.5084 C   0  0  0  0  0  0  0  0  0  0  0  0
   10.3762   -6.3219   -2.8456 C   0  0  0  0  0  0  0  0  0  0  0  0
    9.6101   -5.1844   -2.6509 C   0  0  0  0  0  0  0  0  0  0  0  0
    9.8743   -3.7702   -2.9090 C   0  0  0  0  0  0  0  0  0  0  0  0
   11.0531   -3.2658   -3.3971 C   0  0  0  0  0  0  0  0  0  0  0  0
   12.1749   -4.0576   -3.7204 C   0  0  0  0  0  0  0  0  0  0  0  0
   13.1256   -4.6366   -4.0028 N   0  0  0  0  0  0  0  0  0  0  0  0
   11.3475   -1.9082   -3.6388 C   0  0  0  0  0  0  0  0  0  0  0  0
   11.6891   -0.8336   -3.8625 N   0  0  0  0  0  0  0  0  0  0  0  0
   -7.2460    2.0308    1.1109 H   0  0  0  0  0  0  0  0  0  0  0  0
   -5.0866   -2.2805    5.1349 H   0  0  0  0  0  0  0  0  0  0  0  0
   -9.8760   -0.6331    5.1551 H   0  0  0  0  0  0  0  0  0  0  0  0
   -9.5452   -3.3610    7.2019 H   0  0  0  0  0  0  0  0  0  0  0  0
   -9.6764   -1.1588    8.6944 H   0  0  0  0  0  0  0  0  0  0  0  0
   -9.5635   -3.2395   10.2948 H   0  0  0  0  0  0  0  0  0  0  0  0
   -7.0595   -4.1270   10.3222 H   0  0  0  0  0  0  0  0  0  0  0  0
   -5.6305   -2.5917    8.7401 H   0  0  0  0  0  0  0  0  0  0  0  0
   -7.1775   -0.5567    7.9121 H   0  0  0  0  0  0  0  0  0  0  0  0
   -7.2576   -0.7282    9.6803 H   0  0  0  0  0  0  0  0  0  0  0  0
   -7.0900   -4.2315    7.2288 H   0  0  0  0  0  0  0  0  0  0  0  0
   -6.5249    4.1682    1.6790 H   0  0  0  0  0  0  0  0  0  0  0  0
   -8.3424    5.7209    1.1327 H   0  0  0  0  0  0  0  0  0  0  0  0
   -9.1039    6.9376   -2.2442 H   0  0  0  0  0  0  0  0  0  0  0  0
   -9.4458    7.1223   -0.5163 H   0  0  0  0  0  0  0  0  0  0  0  0
  -10.4287    4.8424   -2.3007 H   0  0  0  0  0  0  0  0  0  0  0  0
  -10.7092    4.9471   -0.5664 H   0  0  0  0  0  0  0  0  0  0  0  0
  -11.4163    6.1560   -1.6496 H   0  0  0  0  0  0  0  0  0  0  0  0
   -7.6082    5.1288   -3.0271 H   0  0  0  0  0  0  0  0  0  0  0  0
   -5.8097    3.5462   -2.4878 H   0  0  0  0  0  0  0  0  0  0  0  0
    9.7513    0.5286   -1.5219 H   0  0  0  0  0  0  0  0  0  0  0  0
   11.7226    1.8485   -2.1331 H   0  0  0  0  0  0  0  0  0  0  0  0
   11.9617    3.9236   -5.1861 H   0  0  0  0  0  0  0  0  0  0  0  0
   12.8897    3.0950   -3.9274 H   0  0  0  0  0  0  0  0  0  0  0  0
   11.0771    5.5179   -3.4807 H   0  0  0  0  0  0  0  0  0  0  0  0
   12.8434    5.5486   -3.5231 H   0  0  0  0  0  0  0  0  0  0  0  0
   12.0020    4.6935   -2.2263 H   0  0  0  0  0  0  0  0  0  0  0  0
    9.5552    3.6055   -5.3603 H   0  0  0  0  0  0  0  0  0  0  0  0
    7.5872    2.2618   -4.7756 H   0  0  0  0  0  0  0  0  0  0  0  0
   -0.8513    0.2818    1.2127 H   0  0  0  0  0  0  0  0  0  0  0  0
    0.6784   -0.2101    0.4834 H   0  0  0  0  0  0  0  0  0  0  0  0
   -0.7495   -1.6113   -1.1870 H   0  0  0  0  0  0  0  0  0  0  0  0
   -2.1469   -1.1764   -0.2089 H   0  0  0  0  0  0  0  0  0  0  0  0
   -0.8487   -2.1302    0.5011 H   0  0  0  0  0  0  0  0  0  0  0  0
    2.7981   -1.6052   -2.0881 H   0  0  0  0  0  0  0  0  0  0  0  0
    1.2542   -1.1540   -1.3628 H   0  0  0  0  0  0  0  0  0  0  0  0
    3.9651   -1.5373    0.0136 H   0  0  0  0  0  0  0  0  0  0  0  0
    2.5994   -0.8185    0.8589 H   0  0  0  0  0  0  0  0  0  0  0  0
    2.5015   -2.4818    0.2649 H   0  0  0  0  0  0  0  0  0  0  0  0
    9.3274   -1.1331   -3.1342 H   0  0  0  0  0  0  0  0  0  0  0  0
    6.7868   -6.6052   -1.3746 H   0  0  0  0  0  0  0  0  0  0  0  0
    7.5304   -9.0208   -0.6626 H   0  0  0  0  0  0  0  0  0  0  0  0
    8.7663   -9.7968   -1.6659 H   0  0  0  0  0  0  0  0  0  0  0  0
    7.2245   -9.3043   -2.3711 H   0  0  0  0  0  0  0  0  0  0  0  0
   10.4323   -8.4425   -2.6634 H   0  0  0  0  0  0  0  0  0  0  0  0
   11.3726   -6.2706   -3.2527 H   0  0  0  0  0  0  0  0  0  0  0  0
  1  2  2  0  0  0  0
  2  3  1  0  0  0  0
  3  4  2  0  0  0  0
  3  5  1  0  0  0  0
  5  6  2  0  0  0  0
  6  7  1  0  0  0  0
  7  8  2  0  0  0  0
  8  9  1  0  0  0  0
  9 10  2  0  0  0  0
 10 11  1  0  0  0  0
 11 12  2  0  0  0  0
 12 13  1  0  0  0  0
 13 14  3  0  0  0  0
 12 15  1  0  0  0  0
 15 16  3  0  0  0  0
  8 17  1  0  0  0  0
 17 18  1  0  0  0  0
 18 19  1  0  0  0  0
 19 20  2  0  0  0  0
 20 21  1  0  0  0  0
 21 22  1  0  0  0  0
 21 23  1  0  0  0  0
  1 24  1  0  0  0  0
 24 25  2  0  0  0  0
 25 26  1  0  0  0  0
 26 27  2  0  0  0  0
 27 28  1  0  0  0  0
 28 29  2  0  0  0  0
 29 30  1  0  0  0  0
 30 31  1  0  0  0  0
 29 32  1  0  0  0  0
 32 33  2  0  0  0  0
 25 34  1  0  0  0  0
 34 35  1  0  0  0  0
 35 36  1  0  0  0  0
 36 37  1  0  0  0  0
 37 38  1  0  0  0  0
 38 39  1  0  0  0  0
 39 40  2  0  0  0  0
 40 41  1  0  0  0  0
 41 42  1  0  0  0  0
 39 43  1  0  0  0  0
 43 44  1  0  0  0  0
 44 45  1  0  0  0  0
 45 46  1  0  0  0  0
 46 47  1  0  0  0  0
 47 48  1  0  0  0  0
 48 49  2  0  0  0  0
 49 50  1  0  0  0  0
 50 51  2  0  0  0  0
 51 52  1  0  0  0  0
 52 53  1  0  0  0  0
 51 54  1  0  0  0  0
 54 55  2  0  0  0  0
 47 56  2  0  0  0  0
 56 57  1  0  0  0  0
 57 58  1  0  0  0  0
 58 59  1  0  0  0  0
 59 60  1  0  0  0  0
 60 61  1  0  0  0  0
 61 62  1  0  0  0  0
 62 63  1  0  0  0  0
 63 64  1  0  0  0  0
 64 65  1  0  0  0  0
 65 66  1  0  0  0  0
 63 67  1  0  0  0  0
 67 68  1  0  0  0  0
 60 69  1  0  0  0  0
 69 70  1  0  0  0  0
 56 71  1  0  0  0  0
 71 72  2  0  0  0  0
 72 73  1  0  0  0  0
 73 74  2  0  0  0  0
 73 75  1  0  0  0  0
 75 76  2  0  0  0  0
 76 77  1  0  0  0  0
 77 78  1  0  0  0  0
 77 79  2  0  0  0  0
 79 80  1  0  0  0  0
 80 81  2  0  0  0  0
 81 82  1  0  0  0  0
 82 83  2  0  0  0  0
 83 84  1  0  0  0  0
 84 85  3  0  0  0  0
 83 86  1  0  0  0  0
 86 87  3  0  0  0  0
 11  2  1  0  0  0  0
 23 17  1  0  0  0  0
 66 24  1  0  0  0  0
 82 72  1  0  0  0  0
 10  5  1  0  0  0  0
 22 18  1  0  0  0  0
 33 26  1  0  0  0  0
 65 34  2  0  0  0  0
 81 75  1  0  0  0  0
 23  7  1  0  0  0  0
 64 36  2  0  0  0  0
 62 37  2  0  0  0  0
 42 38  2  0  0  0  0
 61 43  2  0  0  0  0
 59 44  2  0  0  0  0
 58 46  2  0  0  0  0
 55 48  1  0  0  0  0
  1 88  1  0  0  0  0
  6 89  1  0  0  0  0
  9 90  1  0  0  0  0
 17 91  1  0  0  0  0
 18 92  1  0  0  0  0
 19 93  1  0  0  0  0
 20 94  1  0  0  0  0
 21 95  1  0  0  0  0
 22 96  1  0  0  0  0
 22 97  1  0  0  0  0
 23 98  1  0  0  0  0
 27 99  1  0  0  0  0
 28100  1  0  0  0  0
 30101  1  0  0  0  0
 30102  1  0  0  0  0
 31103  1  0  0  0  0
 31104  1  0  0  0  0
 31105  1  0  0  0  0
 32106  1  0  0  0  0
 33107  1  0  0  0  0
 49108  1  0  0  0  0
 50109  1  0  0  0  0
 52110  1  0  0  0  0
 52111  1  0  0  0  0
 53112  1  0  0  0  0
 53113  1  0  0  0  0
 53114  1  0  0  0  0
 54115  1  0  0  0  0
 55116  1  0  0  0  0
 67117  1  0  0  0  0
 67118  1  0  0  0  0
 68119  1  0  0  0  0
 68120  1  0  0  0  0
 68121  1  0  0  0  0
 69122  1  0  0  0  0
 69123  1  0  0  0  0
 70124  1  0  0  0  0
 70125  1  0  0  0  0
 70126  1  0  0  0  0
 71127  1  0  0  0  0
 76128  1  0  0  0  0
 78129  1  0  0  0  0
 78130  1  0  0  0  0
 78131  1  0  0  0  0
 79132  1  0  0  0  0
 80133  1  0  0  0  0
M  END
