
  xtb     02102219423D
 energy: -223.645743842620 gnorm: 0.000607762995 xtb: 6.4.1 (unknown)
127143  0     0  0            999 V2000
   -1.7744   -4.1285   -4.6416 C   0  0  0  0  0  0  0  0  0  0  0  0
   -0.6471   -4.1070   -5.4211 C   0  0  0  0  0  0  0  0  0  0  0  0
    0.5366   -3.2703   -5.2045 C   0  0  0  0  0  0  0  0  0  0  0  0
    0.7804   -2.5630   -4.2403 O   0  0  0  0  0  0  0  0  0  0  0  0
    1.3842   -3.4372   -6.3966 C   0  0  0  0  0  0  0  0  0  0  0  0
    2.5924   -2.7970   -6.6643 C   0  0  0  0  0  0  0  0  0  0  0  0
    3.1510   -3.1404   -7.8719 C   0  0  0  0  0  0  0  0  0  0  0  0
    2.5539   -4.0562   -8.7483 C   0  0  0  0  0  0  0  0  0  0  0  0
    1.3658   -4.6995   -8.4935 C   0  0  0  0  0  0  0  0  0  0  0  0
    0.7783   -4.3629   -7.2705 C   0  0  0  0  0  0  0  0  0  0  0  0
   -0.4621   -4.8374   -6.6588 C   0  0  0  0  0  0  0  0  0  0  0  0
   -1.2590   -5.8399   -7.1491 C   0  0  0  0  0  0  0  0  0  0  0  0
   -1.0274   -6.5199   -8.3630 C   0  0  0  0  0  0  0  0  0  0  0  0
   -0.9060   -7.1098   -9.3405 N   0  0  0  0  0  0  0  0  0  0  0  0
   -2.3920   -6.3791   -6.5043 C   0  0  0  0  0  0  0  0  0  0  0  0
   -3.3050   -6.9006   -6.0410 N   0  0  0  0  0  0  0  0  0  0  0  0
    3.6526   -3.9155   -9.7722 C   0  0  0  0  0  0  0  0  0  0  0  0
    3.3352   -3.0499  -11.0098 C   0  0  0  0  0  0  0  0  0  0  0  0
    4.6968   -2.7010  -11.5662 C   0  0  0  0  0  0  0  0  0  0  0  0
    5.2612   -1.8325  -10.7370 C   0  0  0  0  0  0  0  0  0  0  0  0
    4.2906   -1.5798   -9.6058 C   0  0  0  0  0  0  0  0  0  0  0  0
    2.9631   -1.7090  -10.3639 C   0  0  0  0  0  0  0  0  0  0  0  0
    4.3180   -2.8934   -8.7955 C   0  0  0  0  0  0  0  0  0  0  0  0
   -2.0621   -3.4635   -3.4425 C   0  0  0  0  0  0  0  0  0  0  0  0
   -3.3178   -3.5729   -2.8222 C   0  0  0  0  0  0  0  0  0  0  0  0
   -4.4334   -4.3752   -3.3479 C   0  0  0  0  0  0  0  0  0  0  0  0
   -5.5150   -3.7061   -3.9118 C   0  0  0  0  0  0  0  0  0  0  0  0
   -6.5841   -4.4125   -4.4276 C   0  0  0  0  0  0  0  0  0  0  0  0
   -6.5801   -5.7958   -4.3751 C   0  0  0  0  0  0  0  0  0  0  0  0
   -5.5153   -6.4614   -3.7975 C   0  0  0  0  0  0  0  0  0  0  0  0
   -4.4294   -5.7702   -3.2777 C   0  0  0  0  0  0  0  0  0  0  0  0
   -3.3290   -6.5198   -2.5822 C   0  0  0  0  0  0  0  0  0  0  0  0
   -3.6099   -6.5939   -1.0797 C   0  0  0  0  0  0  0  0  0  0  0  0
   -3.3888   -2.8028   -1.6684 C   0  0  0  0  0  0  0  0  0  0  0  0
   -4.6678   -2.5242   -0.5027 S   0  0  0  0  0  0  0  0  0  0  0  0
   -3.5922   -1.4953    0.3815 C   0  0  0  0  0  0  0  0  0  0  0  0
   -3.5845   -0.7232    1.5546 C   0  0  0  0  0  0  0  0  0  0  0  0
   -4.5112   -0.5589    2.6109 C   0  0  0  0  0  0  0  0  0  0  0  0
   -4.1269    0.2009    3.7721 C   0  0  0  0  0  0  0  0  0  0  0  0
   -5.0649    0.2015    4.7051 N   0  0  0  0  0  0  0  0  0  0  0  0
   -6.3241   -0.6654    4.1734 S   0  0  0  0  0  0  0  0  0  0  0  0
   -5.7212   -1.0803    2.7303 N   0  0  0  0  0  0  0  0  0  0  0  0
   -2.8905    0.8885    3.7697 C   0  0  0  0  0  0  0  0  0  0  0  0
   -2.2947    1.7967    4.6592 C   0  0  0  0  0  0  0  0  0  0  0  0
   -2.5818    2.4740    6.2259 S   0  0  0  0  0  0  0  0  0  0  0  0
   -1.1117    3.4131    6.0531 C   0  0  0  0  0  0  0  0  0  0  0  0
   -0.4591    4.3029    6.8935 C   0  0  0  0  0  0  0  0  0  0  0  0
   -0.9648    4.7240    8.2099 C   0  0  0  0  0  0  0  0  0  0  0  0
   -0.3914    4.2695    9.3990 C   0  0  0  0  0  0  0  0  0  0  0  0
    0.7107    3.2485    9.3978 C   0  0  0  0  0  0  0  0  0  0  0  0
    0.1199    1.8382    9.3300 C   0  0  0  0  0  0  0  0  0  0  0  0
   -0.9162    4.7219   10.6018 C   0  0  0  0  0  0  0  0  0  0  0  0
   -1.9799    5.6039   10.6341 C   0  0  0  0  0  0  0  0  0  0  0  0
   -2.5525    6.0390    9.4515 C   0  0  0  0  0  0  0  0  0  0  0  0
   -2.0474    5.5969    8.2442 C   0  0  0  0  0  0  0  0  0  0  0  0
    0.7250    4.7931    6.3129 C   0  0  0  0  0  0  0  0  0  0  0  0
    1.0076    4.1203    4.7083 S   0  0  0  0  0  0  0  0  0  0  0  0
   -0.4446    3.2003    4.8319 C   0  0  0  0  0  0  0  0  0  0  0  0
   -1.1293    2.2770    4.0412 C   0  0  0  0  0  0  0  0  0  0  0  0
   -0.9730    1.6899    2.8096 N   0  0  0  0  0  0  0  0  0  0  0  0
   -2.0234    0.8100    2.6459 C   0  0  0  0  0  0  0  0  0  0  0  0
   -2.2992   -0.1203    1.6221 C   0  0  0  0  0  0  0  0  0  0  0  0
   -1.5260   -0.5603    0.5663 N   0  0  0  0  0  0  0  0  0  0  0  0
   -2.3179   -1.3836   -0.1950 C   0  0  0  0  0  0  0  0  0  0  0  0
   -2.1917   -2.1298   -1.3691 C   0  0  0  0  0  0  0  0  0  0  0  0
   -0.9673   -2.4095   -2.5516 S   0  0  0  0  0  0  0  0  0  0  0  0
   -0.0851   -0.7232    0.5560 C   0  0  0  0  0  0  0  0  0  0  0  0
    0.3105   -2.1538    0.9204 C   0  0  0  0  0  0  0  0  0  0  0  0
   -0.2454    2.3751    1.7588 C   0  0  0  0  0  0  0  0  0  0  0  0
   -0.8191    3.7691    1.5078 C   0  0  0  0  0  0  0  0  0  0  0  0
    1.5473    5.7050    6.9806 C   0  0  0  0  0  0  0  0  0  0  0  0
    2.7317    6.2885    6.6043 C   0  0  0  0  0  0  0  0  0  0  0  0
    3.4128    6.1139    5.3106 C   0  0  0  0  0  0  0  0  0  0  0  0
    3.0760    5.4126    4.3731 O   0  0  0  0  0  0  0  0  0  0  0  0
    4.5867    6.9782    5.3969 C   0  0  0  0  0  0  0  0  0  0  0  0
    5.8925    7.3864    4.3712 S   0  0  0  0  0  0  0  0  0  0  0  0
    6.5150    8.4317    5.6149 C   0  0  0  0  0  0  0  0  0  0  0  0
    8.0962    9.3902    5.3162 Br  0  0  0  0  0  0  0  0  0  0  0  0
    5.7606    8.4640    6.7557 C   0  0  0  0  0  0  0  0  0  0  0  0
    4.6433    7.6209    6.6250 C   0  0  0  0  0  0  0  0  0  0  0  0
    3.5015    7.2040    7.4234 C   0  0  0  0  0  0  0  0  0  0  0  0
    3.2708    7.6115    8.7117 C   0  0  0  0  0  0  0  0  0  0  0  0
    2.2103    7.1965    9.5415 C   0  0  0  0  0  0  0  0  0  0  0  0
    1.3879    6.8997   10.2866 N   0  0  0  0  0  0  0  0  0  0  0  0
    4.1355    8.5167    9.3627 C   0  0  0  0  0  0  0  0  0  0  0  0
    4.8272    9.2524    9.9077 N   0  0  0  0  0  0  0  0  0  0  0  0
   -2.6035   -4.7314   -4.9950 H   0  0  0  0  0  0  0  0  0  0  0  0
    3.0190   -2.1008   -5.9592 H   0  0  0  0  0  0  0  0  0  0  0  0
    0.9209   -5.4015   -9.1785 H   0  0  0  0  0  0  0  0  0  0  0  0
    4.1914   -4.8285  -10.0178 H   0  0  0  0  0  0  0  0  0  0  0  0
    2.6215   -3.4891  -11.7013 H   0  0  0  0  0  0  0  0  0  0  0  0
    5.1177   -3.1493  -12.4470 H   0  0  0  0  0  0  0  0  0  0  0  0
    6.2477   -1.4103  -10.7865 H   0  0  0  0  0  0  0  0  0  0  0  0
    4.4471   -0.6787   -9.0189 H   0  0  0  0  0  0  0  0  0  0  0  0
    2.8322   -0.9192  -11.1018 H   0  0  0  0  0  0  0  0  0  0  0  0
    2.0865   -1.7545   -9.7202 H   0  0  0  0  0  0  0  0  0  0  0  0
    5.3021   -3.1237   -8.3914 H   0  0  0  0  0  0  0  0  0  0  0  0
   -5.5033   -2.6262   -3.9517 H   0  0  0  0  0  0  0  0  0  0  0  0
   -7.4149   -3.8840   -4.8706 H   0  0  0  0  0  0  0  0  0  0  0  0
   -7.4087   -6.3556   -4.7821 H   0  0  0  0  0  0  0  0  0  0  0  0
   -5.5161   -7.5400   -3.7542 H   0  0  0  0  0  0  0  0  0  0  0  0
   -2.3657   -6.0329   -2.7427 H   0  0  0  0  0  0  0  0  0  0  0  0
   -3.2681   -7.5288   -2.9923 H   0  0  0  0  0  0  0  0  0  0  0  0
   -4.5589   -7.0924   -0.8966 H   0  0  0  0  0  0  0  0  0  0  0  0
   -3.6628   -5.5949   -0.6520 H   0  0  0  0  0  0  0  0  0  0  0  0
   -2.8225   -7.1472   -0.5730 H   0  0  0  0  0  0  0  0  0  0  0  0
    1.3778    3.3988    8.5470 H   0  0  0  0  0  0  0  0  0  0  0  0
    1.2991    3.3515   10.3111 H   0  0  0  0  0  0  0  0  0  0  0  0
    0.9121    1.0932    9.3441 H   0  0  0  0  0  0  0  0  0  0  0  0
   -0.5378    1.6635   10.1781 H   0  0  0  0  0  0  0  0  0  0  0  0
   -0.4599    1.7116    8.4185 H   0  0  0  0  0  0  0  0  0  0  0  0
   -0.4745    4.3805   11.5259 H   0  0  0  0  0  0  0  0  0  0  0  0
   -2.3634    5.9508   11.5815 H   0  0  0  0  0  0  0  0  0  0  0  0
   -3.3874    6.7232    9.4669 H   0  0  0  0  0  0  0  0  0  0  0  0
   -2.4813    5.9345    7.3138 H   0  0  0  0  0  0  0  0  0  0  0  0
    0.3569   -0.0498    1.2875 H   0  0  0  0  0  0  0  0  0  0  0  0
    0.2868   -0.4809   -0.4442 H   0  0  0  0  0  0  0  0  0  0  0  0
   -0.0558   -2.8604    0.1816 H   0  0  0  0  0  0  0  0  0  0  0  0
    1.3934   -2.2291    0.9599 H   0  0  0  0  0  0  0  0  0  0  0  0
   -0.0954   -2.4203    1.8941 H   0  0  0  0  0  0  0  0  0  0  0  0
    0.8052    2.4564    2.0545 H   0  0  0  0  0  0  0  0  0  0  0  0
   -0.3265    1.8018    0.8374 H   0  0  0  0  0  0  0  0  0  0  0  0
   -1.8776    3.7026    1.2648 H   0  0  0  0  0  0  0  0  0  0  0  0
   -0.2967    4.2281    0.6733 H   0  0  0  0  0  0  0  0  0  0  0  0
   -0.6975    4.4052    2.3794 H   0  0  0  0  0  0  0  0  0  0  0  0
    1.1652    5.9773    7.9584 H   0  0  0  0  0  0  0  0  0  0  0  0
    6.0079    9.0584    7.6155 H   0  0  0  0  0  0  0  0  0  0  0  0
  1  2  2  0  0  0  0
  2  3  1  0  0  0  0
  3  4  2  0  0  0  0
  3  5  1  0  0  0  0
  5  6  2  0  0  0  0
  6  7  1  0  0  0  0
  7  8  2  0  0  0  0
  8  9  1  0  0  0  0
  9 10  2  0  0  0  0
 10 11  1  0  0  0  0
 11 12  2  0  0  0  0
 12 13  1  0  0  0  0
 13 14  3  0  0  0  0
 12 15  1  0  0  0  0
 15 16  3  0  0  0  0
  8 17  1  0  0  0  0
 17 18  1  0  0  0  0
 18 19  1  0  0  0  0
 19 20  2  0  0  0  0
 20 21  1  0  0  0  0
 21 22  1  0  0  0  0
 21 23  1  0  0  0  0
  1 24  1  0  0  0  0
 24 25  2  0  0  0  0
 25 26  1  0  0  0  0
 26 27  2  0  0  0  0
 27 28  1  0  0  0  0
 28 29  2  0  0  0  0
 29 30  1  0  0  0  0
 30 31  2  0  0  0  0
 31 32  1  0  0  0  0
 32 33  1  0  0  0  0
 25 34  1  0  0  0  0
 34 35  1  0  0  0  0
 35 36  1  0  0  0  0
 36 37  1  0  0  0  0
 37 38  1  0  0  0  0
 38 39  1  0  0  0  0
 39 40  2  0  0  0  0
 40 41  1  0  0  0  0
 41 42  1  0  0  0  0
 39 43  1  0  0  0  0
 43 44  1  0  0  0  0
 44 45  1  0  0  0  0
 45 46  1  0  0  0  0
 46 47  1  0  0  0  0
 47 48  1  0  0  0  0
 48 49  2  0  0  0  0
 49 50  1  0  0  0  0
 50 51  1  0  0  0  0
 49 52  1  0  0  0  0
 52 53  2  0  0  0  0
 53 54  1  0  0  0  0
 54 55  2  0  0  0  0
 47 56  2  0  0  0  0
 56 57  1  0  0  0  0
 57 58  1  0  0  0  0
 58 59  1  0  0  0  0
 59 60  1  0  0  0  0
 60 61  1  0  0  0  0
 61 62  1  0  0  0  0
 62 63  1  0  0  0  0
 63 64  1  0  0  0  0
 64 65  1  0  0  0  0
 65 66  1  0  0  0  0
 63 67  1  0  0  0  0
 67 68  1  0  0  0  0
 60 69  1  0  0  0  0
 69 70  1  0  0  0  0
 56 71  1  0  0  0  0
 71 72  2  0  0  0  0
 72 73  1  0  0  0  0
 73 74  2  0  0  0  0
 73 75  1  0  0  0  0
 75 76  1  0  0  0  0
 76 77  1  0  0  0  0
 77 78  1  0  0  0  0
 77 79  2  0  0  0  0
 79 80  1  0  0  0  0
 80 81  1  0  0  0  0
 81 82  2  0  0  0  0
 82 83  1  0  0  0  0
 83 84  3  0  0  0  0
 82 85  1  0  0  0  0
 85 86  3  0  0  0  0
 11  2  1  0  0  0  0
 23 17  1  0  0  0  0
 66 24  1  0  0  0  0
 81 72  1  0  0  0  0
 10  5  1  0  0  0  0
 22 18  1  0  0  0  0
 31 26  1  0  0  0  0
 65 34  2  0  0  0  0
 80 75  2  0  0  0  0
 23  7  1  0  0  0  0
 64 36  2  0  0  0  0
 62 37  2  0  0  0  0
 42 38  2  0  0  0  0
 61 43  2  0  0  0  0
 59 44  2  0  0  0  0
 58 46  2  0  0  0  0
 55 48  1  0  0  0  0
  1 87  1  0  0  0  0
  6 88  1  0  0  0  0
  9 89  1  0  0  0  0
 17 90  1  0  0  0  0
 18 91  1  0  0  0  0
 19 92  1  0  0  0  0
 20 93  1  0  0  0  0
 21 94  1  0  0  0  0
 22 95  1  0  0  0  0
 22 96  1  0  0  0  0
 23 97  1  0  0  0  0
 27 98  1  0  0  0  0
 28 99  1  0  0  0  0
 29100  1  0  0  0  0
 30101  1  0  0  0  0
 32102  1  0  0  0  0
 32103  1  0  0  0  0
 33104  1  0  0  0  0
 33105  1  0  0  0  0
 33106  1  0  0  0  0
 50107  1  0  0  0  0
 50108  1  0  0  0  0
 51109  1  0  0  0  0
 51110  1  0  0  0  0
 51111  1  0  0  0  0
 52112  1  0  0  0  0
 53113  1  0  0  0  0
 54114  1  0  0  0  0
 55115  1  0  0  0  0
 67116  1  0  0  0  0
 67117  1  0  0  0  0
 68118  1  0  0  0  0
 68119  1  0  0  0  0
 68120  1  0  0  0  0
 69121  1  0  0  0  0
 69122  1  0  0  0  0
 70123  1  0  0  0  0
 70124  1  0  0  0  0
 70125  1  0  0  0  0
 71126  1  0  0  0  0
 79127  1  0  0  0  0
M  END
