
  xtb     02022215453D
 energy: -210.314704619347 gnorm: 0.000168643432 xtb: 6.4.1 (unknown)
123140  0     0  0            999 V2000
   -6.2714   -5.0154    0.3653 C   0  0  0  0  0  0  0  0  0  0  0  0
   -5.4609   -6.0817    0.6632 C   0  0  0  0  0  0  0  0  0  0  0  0
   -4.0277   -6.0267    0.9612 C   0  0  0  0  0  0  0  0  0  0  0  0
   -3.2852   -5.0623    0.8696 O   0  0  0  0  0  0  0  0  0  0  0  0
   -3.6451   -7.3780    1.4047 C   0  0  0  0  0  0  0  0  0  0  0  0
   -2.3932   -7.7913    1.8549 C   0  0  0  0  0  0  0  0  0  0  0  0
   -2.3423   -9.1128    2.2289 C   0  0  0  0  0  0  0  0  0  0  0  0
   -3.4529   -9.9634    2.1524 C   0  0  0  0  0  0  0  0  0  0  0  0
   -4.6913   -9.5703    1.7027 C   0  0  0  0  0  0  0  0  0  0  0  0
   -4.7676   -8.2267    1.3243 C   0  0  0  0  0  0  0  0  0  0  0  0
   -5.9023   -7.4526    0.8228 C   0  0  0  0  0  0  0  0  0  0  0  0
   -7.1420   -7.9622    0.5287 C   0  0  0  0  0  0  0  0  0  0  0  0
   -7.5074   -9.3154    0.6845 C   0  0  0  0  0  0  0  0  0  0  0  0
   -7.8791  -10.3973    0.7850 N   0  0  0  0  0  0  0  0  0  0  0  0
   -8.2284   -7.2297    0.0073 C   0  0  0  0  0  0  0  0  0  0  0  0
   -9.1587   -6.7085   -0.4220 N   0  0  0  0  0  0  0  0  0  0  0  0
   -2.6896  -11.1421    2.7030 C   0  0  0  0  0  0  0  0  0  0  0  0
   -2.9517  -11.5008    4.1810 C   0  0  0  0  0  0  0  0  0  0  0  0
   -1.7554  -12.3403    4.5674 C   0  0  0  0  0  0  0  0  0  0  0  0
   -0.7041  -11.5342    4.6423 C   0  0  0  0  0  0  0  0  0  0  0  0
   -1.1721  -10.1362    4.3075 C   0  0  0  0  0  0  0  0  0  0  0  0
   -2.5913  -10.1877    4.8880 C   0  0  0  0  0  0  0  0  0  0  0  0
   -1.4514  -10.1932    2.7903 C   0  0  0  0  0  0  0  0  0  0  0  0
   -5.9779   -3.6566    0.2076 C   0  0  0  0  0  0  0  0  0  0  0  0
   -6.9677   -2.6810    0.0006 C   0  0  0  0  0  0  0  0  0  0  0  0
   -8.4408   -2.9271   -0.0346 C   0  0  0  0  0  0  0  0  0  0  0  0
   -9.0174   -2.9938    1.3822 C   0  0  0  0  0  0  0  0  0  0  0  0
   -6.4126   -1.4136   -0.1118 C   0  0  0  0  0  0  0  0  0  0  0  0
   -7.1323    0.1731   -0.3194 S   0  0  0  0  0  0  0  0  0  0  0  0
   -5.5455    0.8570   -0.3017 C   0  0  0  0  0  0  0  0  0  0  0  0
   -4.9370    2.1172   -0.3405 C   0  0  0  0  0  0  0  0  0  0  0  0
   -5.5221    3.4061   -0.3245 C   0  0  0  0  0  0  0  0  0  0  0  0
   -4.6550    4.5468   -0.2107 C   0  0  0  0  0  0  0  0  0  0  0  0
   -5.2705    5.7105   -0.1403 N   0  0  0  0  0  0  0  0  0  0  0  0
   -7.0109    5.4331   -0.2208 Se  0  0  0  0  0  2  0  0  0  0  0  0
   -6.8104    3.6850   -0.3484 N   0  0  0  0  0  0  0  0  0  0  0  0
   -3.2561    4.3325   -0.2446 C   0  0  0  0  0  0  0  0  0  0  0  0
   -2.2097    5.2605   -0.3046 C   0  0  0  0  0  0  0  0  0  0  0  0
   -1.9810    6.9731   -0.2724 S   0  0  0  0  0  0  0  0  0  0  0  0
   -0.2684    6.7142   -0.5534 C   0  0  0  0  0  0  0  0  0  0  0  0
    0.7915    7.5958   -0.7182 C   0  0  0  0  0  0  0  0  0  0  0  0
    0.6338    9.0755   -0.5871 C   0  0  0  0  0  0  0  0  0  0  0  0
    0.9749    9.5360    0.8328 C   0  0  0  0  0  0  0  0  0  0  0  0
    1.9924    6.9115   -0.9698 C   0  0  0  0  0  0  0  0  0  0  0  0
    1.7673    5.1616   -0.9958 S   0  0  0  0  0  0  0  0  0  0  0  0
    0.0891    5.3588   -0.6542 C   0  0  0  0  0  0  0  0  0  0  0  0
   -1.0282    4.5335   -0.4930 C   0  0  0  0  0  0  0  0  0  0  0  0
   -1.3095    3.1946   -0.5210 N   0  0  0  0  0  0  0  0  0  0  0  0
   -2.6697    3.0355   -0.3504 C   0  0  0  0  0  0  0  0  0  0  0  0
   -3.5273    1.9015   -0.2799 C   0  0  0  0  0  0  0  0  0  0  0  0
   -3.3081    0.5450   -0.1521 N   0  0  0  0  0  0  0  0  0  0  0  0
   -4.5213   -0.0879   -0.1662 C   0  0  0  0  0  0  0  0  0  0  0  0
   -5.0091   -1.3918   -0.0361 C   0  0  0  0  0  0  0  0  0  0  0  0
   -4.3561   -2.9637    0.2372 S   0  0  0  0  0  0  0  0  0  0  0  0
   -2.1222   -0.2161    0.1667 C   0  0  0  0  0  0  0  0  0  0  0  0
   -1.6357   -1.0457   -1.0213 C   0  0  0  0  0  0  0  0  0  0  0  0
   -0.2672    2.2661   -0.8932 C   0  0  0  0  0  0  0  0  0  0  0  0
    0.7015    1.9987    0.2584 C   0  0  0  0  0  0  0  0  0  0  0  0
    3.2149    7.5630   -1.1703 C   0  0  0  0  0  0  0  0  0  0  0  0
    4.4518    7.0691   -1.5004 C   0  0  0  0  0  0  0  0  0  0  0  0
    4.7765    5.6754   -1.8161 C   0  0  0  0  0  0  0  0  0  0  0  0
    4.0557    4.6981   -1.6955 O   0  0  0  0  0  0  0  0  0  0  0  0
    6.1557    5.6788   -2.3327 C   0  0  0  0  0  0  0  0  0  0  0  0
    6.8692    4.5917   -2.8311 C   0  0  0  0  0  0  0  0  0  0  0  0
    8.1304    4.9074   -3.2769 C   0  0  0  0  0  0  0  0  0  0  0  0
    8.6432    6.2105   -3.2339 C   0  0  0  0  0  0  0  0  0  0  0  0
    7.9507    7.2914   -2.7416 C   0  0  0  0  0  0  0  0  0  0  0  0
    6.6674    6.9911   -2.2780 C   0  0  0  0  0  0  0  0  0  0  0  0
    5.6456    7.8650   -1.7040 C   0  0  0  0  0  0  0  0  0  0  0  0
    5.8249    9.1845   -1.3740 C   0  0  0  0  0  0  0  0  0  0  0  0
    4.8645   10.0114   -0.7556 C   0  0  0  0  0  0  0  0  0  0  0  0
    4.1451   10.7449   -0.2406 N   0  0  0  0  0  0  0  0  0  0  0  0
    7.0236    9.9010   -1.5708 C   0  0  0  0  0  0  0  0  0  0  0  0
    7.9633   10.5486   -1.6986 N   0  0  0  0  0  0  0  0  0  0  0  0
    9.9564    5.8001   -3.8510 C   0  0  0  0  0  0  0  0  0  0  0  0
   11.1819    5.6601   -2.9150 C   0  0  0  0  0  0  0  0  0  0  0  0
   10.6398    5.3364   -1.5449 C   0  0  0  0  0  0  0  0  0  0  0  0
   10.1558    4.1021   -1.5823 C   0  0  0  0  0  0  0  0  0  0  0  0
   10.3617    3.5688   -2.9785 C   0  0  0  0  0  0  0  0  0  0  0  0
   11.6791    4.2707   -3.3451 C   0  0  0  0  0  0  0  0  0  0  0  0
    9.3865    4.3472   -3.8961 C   0  0  0  0  0  0  0  0  0  0  0  0
   -7.3239   -5.2384    0.2557 H   0  0  0  0  0  0  0  0  0  0  0  0
   -1.5634   -7.1031    1.8943 H   0  0  0  0  0  0  0  0  0  0  0  0
   -5.5346  -10.2382    1.6510 H   0  0  0  0  0  0  0  0  0  0  0  0
   -2.6328  -12.0155    2.0563 H   0  0  0  0  0  0  0  0  0  0  0  0
   -3.9322  -11.9247    4.3794 H   0  0  0  0  0  0  0  0  0  0  0  0
   -1.7852  -13.4072    4.6883 H   0  0  0  0  0  0  0  0  0  0  0  0
    0.3199  -11.7933    4.8381 H   0  0  0  0  0  0  0  0  0  0  0  0
   -0.5311   -9.3172    4.6227 H   0  0  0  0  0  0  0  0  0  0  0  0
   -3.2181   -9.3441    4.6045 H   0  0  0  0  0  0  0  0  0  0  0  0
   -2.5889  -10.2912    5.9718 H   0  0  0  0  0  0  0  0  0  0  0  0
   -0.5671  -10.4349    2.2034 H   0  0  0  0  0  0  0  0  0  0  0  0
   -8.6702   -3.8525   -0.5654 H   0  0  0  0  0  0  0  0  0  0  0  0
   -8.9108   -2.1003   -0.5708 H   0  0  0  0  0  0  0  0  0  0  0  0
   -8.8346   -2.0599    1.9085 H   0  0  0  0  0  0  0  0  0  0  0  0
   -8.5619   -3.8046    1.9464 H   0  0  0  0  0  0  0  0  0  0  0  0
  -10.0893   -3.1645    1.3363 H   0  0  0  0  0  0  0  0  0  0  0  0
    1.2669    9.6031   -1.3018 H   0  0  0  0  0  0  0  0  0  0  0  0
   -0.4071    9.3253   -0.8027 H   0  0  0  0  0  0  0  0  0  0  0  0
    2.0160    9.3279    1.0663 H   0  0  0  0  0  0  0  0  0  0  0  0
    0.3438    9.0258    1.5567 H   0  0  0  0  0  0  0  0  0  0  0  0
    0.8136   10.6064    0.9207 H   0  0  0  0  0  0  0  0  0  0  0  0
   -2.3833   -0.9024    0.9797 H   0  0  0  0  0  0  0  0  0  0  0  0
   -1.3518    0.4566    0.5330 H   0  0  0  0  0  0  0  0  0  0  0  0
   -2.3449   -1.8393   -1.2383 H   0  0  0  0  0  0  0  0  0  0  0  0
   -1.5241   -0.4384   -1.9173 H   0  0  0  0  0  0  0  0  0  0  0  0
   -0.6789   -1.5004   -0.7816 H   0  0  0  0  0  0  0  0  0  0  0  0
    0.2958    2.7198   -1.7161 H   0  0  0  0  0  0  0  0  0  0  0  0
   -0.7182    1.3498   -1.2634 H   0  0  0  0  0  0  0  0  0  0  0  0
    1.2783    2.8930    0.4764 H   0  0  0  0  0  0  0  0  0  0  0  0
    1.3919    1.2084   -0.0216 H   0  0  0  0  0  0  0  0  0  0  0  0
    0.1770    1.7052    1.1655 H   0  0  0  0  0  0  0  0  0  0  0  0
    3.1467    8.6379   -1.0693 H   0  0  0  0  0  0  0  0  0  0  0  0
    6.4329    3.6052   -2.8535 H   0  0  0  0  0  0  0  0  0  0  0  0
    8.3574    8.2886   -2.7233 H   0  0  0  0  0  0  0  0  0  0  0  0
   10.2083    6.2783   -4.7956 H   0  0  0  0  0  0  0  0  0  0  0  0
   11.8877    6.4844   -2.9693 H   0  0  0  0  0  0  0  0  0  0  0  0
   10.6128    6.0371   -0.7312 H   0  0  0  0  0  0  0  0  0  0  0  0
    9.6432    3.5651   -0.8056 H   0  0  0  0  0  0  0  0  0  0  0  0
   10.3221    2.4884   -3.0909 H   0  0  0  0  0  0  0  0  0  0  0  0
   12.5219    3.9220   -2.7501 H   0  0  0  0  0  0  0  0  0  0  0  0
   11.9249    4.2066   -4.4042 H   0  0  0  0  0  0  0  0  0  0  0  0
    9.2685    3.8762   -4.8702 H   0  0  0  0  0  0  0  0  0  0  0  0
  1  2  2  0  0  0  0
  2  3  1  0  0  0  0
  3  4  2  0  0  0  0
  3  5  1  0  0  0  0
  5  6  2  0  0  0  0
  6  7  1  0  0  0  0
  7  8  2  0  0  0  0
  8  9  1  0  0  0  0
  9 10  2  0  0  0  0
 10 11  1  0  0  0  0
 11 12  2  0  0  0  0
 12 13  1  0  0  0  0
 13 14  3  0  0  0  0
 12 15  1  0  0  0  0
 15 16  3  0  0  0  0
  8 17  1  0  0  0  0
 17 18  1  0  0  0  0
 18 19  1  0  0  0  0
 19 20  2  0  0  0  0
 20 21  1  0  0  0  0
 21 22  1  0  0  0  0
 21 23  1  0  0  0  0
  1 24  1  0  0  0  0
 24 25  2  0  0  0  0
 25 26  1  0  0  0  0
 26 27  1  0  0  0  0
 25 28  1  0  0  0  0
 28 29  1  0  0  0  0
 29 30  1  0  0  0  0
 30 31  1  0  0  0  0
 31 32  1  0  0  0  0
 32 33  1  0  0  0  0
 33 34  2  0  0  0  0
 34 35  1  0  0  0  0
 35 36  1  0  0  0  0
 33 37  1  0  0  0  0
 37 38  1  0  0  0  0
 38 39  1  0  0  0  0
 39 40  1  0  0  0  0
 40 41  1  0  0  0  0
 41 42  1  0  0  0  0
 42 43  1  0  0  0  0
 41 44  2  0  0  0  0
 44 45  1  0  0  0  0
 45 46  1  0  0  0  0
 46 47  1  0  0  0  0
 47 48  1  0  0  0  0
 48 49  1  0  0  0  0
 49 50  1  0  0  0  0
 50 51  1  0  0  0  0
 51 52  1  0  0  0  0
 52 53  1  0  0  0  0
 53 54  1  0  0  0  0
 51 55  1  0  0  0  0
 55 56  1  0  0  0  0
 48 57  1  0  0  0  0
 57 58  1  0  0  0  0
 44 59  1  0  0  0  0
 59 60  2  0  0  0  0
 60 61  1  0  0  0  0
 61 62  2  0  0  0  0
 61 63  1  0  0  0  0
 63 64  2  0  0  0  0
 64 65  1  0  0  0  0
 65 66  2  0  0  0  0
 66 67  1  0  0  0  0
 67 68  2  0  0  0  0
 68 69  1  0  0  0  0
 69 70  2  0  0  0  0
 70 71  1  0  0  0  0
 71 72  3  0  0  0  0
 70 73  1  0  0  0  0
 73 74  3  0  0  0  0
 66 75  1  0  0  0  0
 75 76  1  0  0  0  0
 76 77  1  0  0  0  0
 77 78  2  0  0  0  0
 78 79  1  0  0  0  0
 79 80  1  0  0  0  0
 79 81  1  0  0  0  0
 11  2  1  0  0  0  0
 23 17  1  0  0  0  0
 54 24  1  0  0  0  0
 69 60  1  0  0  0  0
 81 75  1  0  0  0  0
 10  5  1  0  0  0  0
 22 18  1  0  0  0  0
 53 28  2  0  0  0  0
 68 63  1  0  0  0  0
 80 76  1  0  0  0  0
 23  7  1  0  0  0  0
 52 30  2  0  0  0  0
 81 65  1  0  0  0  0
 50 31  2  0  0  0  0
 36 32  2  0  0  0  0
 49 37  2  0  0  0  0
 47 38  2  0  0  0  0
 46 40  2  0  0  0  0
  1 82  1  0  0  0  0
  6 83  1  0  0  0  0
  9 84  1  0  0  0  0
 17 85  1  0  0  0  0
 18 86  1  0  0  0  0
 19 87  1  0  0  0  0
 20 88  1  0  0  0  0
 21 89  1  0  0  0  0
 22 90  1  0  0  0  0
 22 91  1  0  0  0  0
 23 92  1  0  0  0  0
 26 93  1  0  0  0  0
 26 94  1  0  0  0  0
 27 95  1  0  0  0  0
 27 96  1  0  0  0  0
 27 97  1  0  0  0  0
 42 98  1  0  0  0  0
 42 99  1  0  0  0  0
 43100  1  0  0  0  0
 43101  1  0  0  0  0
 43102  1  0  0  0  0
 55103  1  0  0  0  0
 55104  1  0  0  0  0
 56105  1  0  0  0  0
 56106  1  0  0  0  0
 56107  1  0  0  0  0
 57108  1  0  0  0  0
 57109  1  0  0  0  0
 58110  1  0  0  0  0
 58111  1  0  0  0  0
 58112  1  0  0  0  0
 59113  1  0  0  0  0
 64114  1  0  0  0  0
 67115  1  0  0  0  0
 75116  1  0  0  0  0
 76117  1  0  0  0  0
 77118  1  0  0  0  0
 78119  1  0  0  0  0
 79120  1  0  0  0  0
 80121  1  0  0  0  0
 80122  1  0  0  0  0
 81123  1  0  0  0  0
M  END
