152

C          7.49630        0.84310        3.29840
C          7.80860        2.17250        3.43950
C          6.89910        3.30320        3.24100
O          5.72980        3.26630        2.89290
C          7.67220        4.51780        3.54760
C          7.21460        5.83320        3.51440
C          8.16550        6.76400        3.85740
C          9.47500        6.41160        4.20900
C          9.93820        5.11760        4.24730
C          8.98720        4.15340        3.89960
C          9.10230        2.69670        3.82900
C         10.24760        1.98200        4.07670
C         10.37870        0.57990        4.00610
N         10.57460       -0.55230        3.96960
C         11.48560        2.55450        4.43600
N         12.52560        2.94380        4.72850
C          9.88740        7.84570        4.42930
C         10.72820        8.50100        3.31320
C         10.56980        9.98310        3.56500
C          9.32930       10.31830        3.23410
C          8.62850        9.06840        2.75260
C          9.80850        8.34070        2.09570
C          8.42660        8.23890        4.03830
C          6.30640        0.21530        2.91540
C          6.16990       -1.18130        2.83840
C          7.21320       -2.18400        3.20960
C          7.21950       -2.42820        4.72110
C          4.89830       -1.54410        2.41440
S          4.15050       -3.10570        2.12760
C          2.70890       -2.28570        1.64420
C          1.41530       -2.59340        1.20300
C          0.80110       -3.85920        1.04150
N          1.48440       -4.98940        1.19020
C          0.84930       -6.14580        1.07390
C          1.71930       -7.29440        1.06150
S          3.30430       -7.07680        1.74370
C          3.78240       -8.67400        1.28960
C          5.14050       -9.21090        1.58280
C          6.22670       -8.39510        0.88110
C          2.75780       -9.29120        0.62830
C          1.58420       -8.53070        0.48980
F          2.85870      -10.54410        0.14550
C         -0.57080       -6.16870        0.92690
C         -1.41260       -7.32830        1.07590
C         -1.23840       -8.49100        1.77710
C         -2.38510       -9.30110        1.72070
F         -2.44630      -10.49720        2.33590
C         -3.43040       -8.78970        1.00370
C         -4.75350       -9.42030        0.73760
C         -4.96270       -9.67490       -0.75550
S         -3.00380       -7.23550        0.37990
N         -1.22870       -5.04790        0.67070
C         -0.56710       -3.89490        0.67590
C         -1.19570       -2.67180        0.33580
C         -2.47220       -2.45020       -0.19740
S         -3.87400       -3.35680       -0.64220
C         -4.60150       -1.87250       -1.23200
C         -5.81720       -1.61030       -1.84970
C         -6.85400       -2.66320       -2.06770
C         -7.88520       -2.65110       -0.93590
C         -5.94270       -0.24990       -2.17970
S         -4.52540        0.68470       -1.69740
C         -3.78400       -0.74040       -1.07210
C         -2.56960       -1.08080       -0.46890
N         -1.41880       -0.44530       -0.08520
C         -1.17600        0.91250       -0.51620
C         -0.15320        0.96330       -1.64860
C         -0.55320       -1.40010        0.41490
C          0.75440       -1.35310        0.95960
N          1.62260       -0.32680        1.28570
C          2.79960       -0.89060        1.70250
C          4.05050       -0.45480        2.14910
S          4.82560        1.05510        2.44970
C          1.36180        1.06650        1.57140
C          0.35830        1.22040        2.71180
C         -7.06200        0.27340       -2.83560
C         -7.34270        1.54760       -3.26270
C         -6.48090        2.72250       -3.11390
O         -5.39270        2.78300       -2.56420
C         -7.18170        3.83840       -3.77030
C         -6.73640        5.15280       -3.89200
C         -7.60130        5.97460       -4.57380
C         -8.82050        5.52240       -5.09500
C         -9.27430        4.23000       -4.97550
C         -8.40870        3.37540       -4.28620
C         -8.54100        1.95330       -3.96960
C         -9.62040        1.16950       -4.29310
C         -9.77060       -0.19860       -3.98670
N         -9.97560       -1.31090       -3.78040
C        -10.76090        1.62510       -4.98660
N        -11.72050        1.91830       -5.54500
C         -9.16930        6.87380       -5.66720
C         -8.97460        7.04930       -7.18820
C         -8.92470        8.54850       -7.37550
C         -7.77150        8.97890       -6.88000
C         -7.02230        7.77760       -6.34980
C         -7.48660        6.71370       -7.35280
C         -7.81050        7.37890       -5.08410
H          8.29290        0.14530        3.51640
H          6.19530        6.05840        3.24180
H         10.94730        4.86610        4.52660
H         10.24330        8.08930        5.42850
H         11.74370        8.12420        3.22780
H         11.33350       10.60330        3.99640
H          8.84980       11.27440        3.33390
H          7.73130        9.20970        2.15570
H          9.59980        7.30600        1.83010
H         10.18520        8.87160        1.22300
H          7.80770        8.74340        4.77810
H          6.98090       -3.12050        2.69870
H          8.20440       -1.85720        2.89160
H          7.97470       -3.16780        4.97130
H          7.44510       -1.51010        5.25860
H          6.24900       -2.79360        5.04880
H          5.18030      -10.25050        1.25080
H          5.31580       -9.18760        2.66160
H          7.20810       -8.80070        1.11230
H          6.18840       -7.35910        1.20980
H          6.08460       -8.42240       -0.19670
H          0.71020       -8.88060       -0.02660
H         -0.35370       -8.75550        2.32500
H         -5.54850       -8.76560        1.10410
H         -4.80350      -10.36240        1.28750
H         -4.91650       -8.73800       -1.30570
H         -4.19320      -10.34100       -1.13840
H         -5.93350      -10.13320       -0.92460
H         -6.35420       -3.63380       -2.08450
H         -7.36360       -2.52380       -3.02210
H         -7.39810       -2.82460        0.02080
H         -8.40140       -1.69490       -0.89600
H         -8.62200       -3.43180       -1.10120
H         -0.87440        1.53270        0.32790
H         -2.13130        1.30060       -0.87740
H         -0.53350        0.42660       -2.51450
H          0.03030        1.99490       -1.93590
H          0.78810        0.50540       -1.35220
H          2.31640        1.50700        1.86910
H          1.03270        1.58870        0.67330
H          0.16990        2.27370        2.89980
H          0.75760        0.77370        3.61940
H         -0.58370        0.72880        2.47830
H         -7.81760       -0.47120       -3.04430
H         -5.79000        5.45820       -3.47360
H        -10.21740        3.90220       -5.37910
H        -10.09210        7.32060       -5.30210
H         -9.68330        6.50220       -7.80390
H         -9.73030        9.12920       -7.78480
H         -7.42160        9.99080       -6.79250
H         -5.95200        7.89450       -6.20230
H         -7.22750        5.69470       -7.07110
H         -7.12870        6.91470       -8.36120
H         -7.82750        8.16200       -4.32830
