
  xtb     02022218173D
 energy: -225.439613028135 gnorm: 0.000536842568 xtb: 6.4.1 (unknown)
130146  0     0  0            999 V2000
    2.0038   -2.7687    5.7513 C   0  0  0  0  0  0  0  0  0  0  0  0
    2.3426   -2.3302    7.0019 C   0  0  0  0  0  0  0  0  0  0  0  0
    2.5048   -0.9120    7.3954 C   0  0  0  0  0  0  0  0  0  0  0  0
    2.4456    0.0669    6.6802 O   0  0  0  0  0  0  0  0  0  0  0  0
    2.6068   -0.9158    8.8673 C   0  0  0  0  0  0  0  0  0  0  0  0
    2.7286    0.1952    9.6981 C   0  0  0  0  0  0  0  0  0  0  0  0
    2.7473   -0.1055   11.0393 C   0  0  0  0  0  0  0  0  0  0  0  0
    2.6411   -1.4171   11.5213 C   0  0  0  0  0  0  0  0  0  0  0  0
    2.5198   -2.5226   10.7135 C   0  0  0  0  0  0  0  0  0  0  0  0
    2.5076   -2.2378    9.3452 C   0  0  0  0  0  0  0  0  0  0  0  0
    2.3890   -3.1370    8.2014 C   0  0  0  0  0  0  0  0  0  0  0  0
    2.4251   -4.5076    8.2476 C   0  0  0  0  0  0  0  0  0  0  0  0
    2.4986   -5.2661    9.4333 C   0  0  0  0  0  0  0  0  0  0  0  0
    2.5499   -5.9448   10.3583 N   0  0  0  0  0  0  0  0  0  0  0  0
    2.4401   -5.3442    7.1123 C   0  0  0  0  0  0  0  0  0  0  0  0
    2.4865   -6.0835    6.2344 N   0  0  0  0  0  0  0  0  0  0  0  0
    2.6963   -0.9777   12.9627 C   0  0  0  0  0  0  0  0  0  0  0  0
    4.0251   -1.1717   13.7330 C   0  0  0  0  0  0  0  0  0  0  0  0
    5.1272   -1.1450   12.7033 C   0  0  0  0  0  0  0  0  0  0  0  0
    5.2297    0.0977   12.2513 C   0  0  0  0  0  0  0  0  0  0  0  0
    4.1969    0.9335   12.9655 C   0  0  0  0  0  0  0  0  0  0  0  0
    4.1821    0.2343   14.3344 C   0  0  0  0  0  0  0  0  0  0  0  0
    2.8166    0.4838   12.4267 C   0  0  0  0  0  0  0  0  0  0  0  0
    2.1246   -2.0540    4.5401 C   0  0  0  0  0  0  0  0  0  0  0  0
    3.0493   -1.0927    4.1384 C   0  0  0  0  0  0  0  0  0  0  0  0
    4.2314   -0.7171    4.9043 C   0  0  0  0  0  0  0  0  0  0  0  0
    4.9882   -1.6860    5.5607 C   0  0  0  0  0  0  0  0  0  0  0  0
    6.0714   -1.3182    6.3305 C   0  0  0  0  0  0  0  0  0  0  0  0
    6.4311    0.0191    6.4644 C   0  0  0  0  0  0  0  0  0  0  0  0
    7.5495    0.4162    7.3824 C   0  0  0  0  0  0  0  0  0  0  0  0
    7.0207    0.5565    8.8118 C   0  0  0  0  0  0  0  0  0  0  0  0
    5.6963    0.9765    5.7782 C   0  0  0  0  0  0  0  0  0  0  0  0
    4.6134    0.6184    4.9998 C   0  0  0  0  0  0  0  0  0  0  0  0
    2.7526   -0.6055    2.8563 C   0  0  0  0  0  0  0  0  0  0  0  0
    3.5165    0.6008    1.8476 S   0  0  0  0  0  0  0  0  0  0  0  0
    2.3159    0.3113    0.6375 C   0  0  0  0  0  0  0  0  0  0  0  0
    1.9304    0.8096   -0.6142 C   0  0  0  0  0  0  0  0  0  0  0  0
    2.4417    1.8888   -1.3681 C   0  0  0  0  0  0  0  0  0  0  0  0
    1.7501    2.2884   -2.5570 C   0  0  0  0  0  0  0  0  0  0  0  0
    2.3001    3.3462   -3.1320 N   0  0  0  0  0  0  0  0  0  0  0  0
    3.5839    3.7961   -2.2539 S   0  0  0  0  0  0  0  0  0  0  0  0
    3.4841    2.6608   -1.1045 N   0  0  0  0  0  0  0  0  0  0  0  0
    0.6411    1.5274   -2.9878 C   0  0  0  0  0  0  0  0  0  0  0  0
   -0.1599    1.6486   -4.1297 C   0  0  0  0  0  0  0  0  0  0  0  0
   -0.3517    2.7010   -5.4884 S   0  0  0  0  0  0  0  0  0  0  0  0
   -1.6602    1.6788   -6.0520 C   0  0  0  0  0  0  0  0  0  0  0  0
   -2.4865    1.7362   -7.1693 C   0  0  0  0  0  0  0  0  0  0  0  0
   -2.4106    2.7597   -8.2048 C   0  0  0  0  0  0  0  0  0  0  0  0
   -2.4251    2.4159   -9.5566 C   0  0  0  0  0  0  0  0  0  0  0  0
   -2.4003    3.3967  -10.5259 C   0  0  0  0  0  0  0  0  0  0  0  0
   -2.3599    4.7418  -10.1787 C   0  0  0  0  0  0  0  0  0  0  0  0
   -2.4389    5.8027  -11.2339 C   0  0  0  0  0  0  0  0  0  0  0  0
   -3.9050    6.1660  -11.4837 C   0  0  0  0  0  0  0  0  0  0  0  0
   -2.3081    5.0794   -8.8311 C   0  0  0  0  0  0  0  0  0  0  0  0
   -2.3243    4.1058   -7.8537 C   0  0  0  0  0  0  0  0  0  0  0  0
   -3.4199    0.6762   -7.1780 C   0  0  0  0  0  0  0  0  0  0  0  0
   -3.1839   -0.4244   -5.8210 S   0  0  0  0  0  0  0  0  0  0  0  0
   -1.9108    0.5732   -5.2198 C   0  0  0  0  0  0  0  0  0  0  0  0
   -1.0497    0.5677   -4.1195 C   0  0  0  0  0  0  0  0  0  0  0  0
   -0.8407   -0.2014   -3.0053 N   0  0  0  0  0  0  0  0  0  0  0  0
    0.1853    0.3762   -2.2772 C   0  0  0  0  0  0  0  0  0  0  0  0
    0.7781    0.0751   -1.0211 C   0  0  0  0  0  0  0  0  0  0  0  0
    0.4709   -0.8319   -0.0193 N   0  0  0  0  0  0  0  0  0  0  0  0
    1.3887   -0.6773    0.9837 C   0  0  0  0  0  0  0  0  0  0  0  0
    1.6379   -1.2052    2.2553 C   0  0  0  0  0  0  0  0  0  0  0  0
    0.9460   -2.4092    3.2774 S   0  0  0  0  0  0  0  0  0  0  0  0
   -0.7481   -1.5638    0.2419 C   0  0  0  0  0  0  0  0  0  0  0  0
   -1.9386   -0.6237    0.4139 C   0  0  0  0  0  0  0  0  0  0  0  0
   -1.3796   -1.5436   -2.9645 C   0  0  0  0  0  0  0  0  0  0  0  0
   -0.2813   -2.5904   -3.1325 C   0  0  0  0  0  0  0  0  0  0  0  0
   -4.4773    0.6214   -8.0854 C   0  0  0  0  0  0  0  0  0  0  0  0
   -5.4739   -0.3159   -8.2455 C   0  0  0  0  0  0  0  0  0  0  0  0
   -5.6025   -1.5684   -7.5023 C   0  0  0  0  0  0  0  0  0  0  0  0
   -4.8864   -1.9854   -6.6065 O   0  0  0  0  0  0  0  0  0  0  0  0
   -6.7900   -2.2495   -8.0523 C   0  0  0  0  0  0  0  0  0  0  0  0
   -7.3344   -3.4685   -7.7003 C   0  0  0  0  0  0  0  0  0  0  0  0
   -8.4726   -3.9012   -8.3641 C   0  0  0  0  0  0  0  0  0  0  0  0
   -9.0325   -3.1087   -9.3544 C   0  0  0  0  0  0  0  0  0  0  0  0
  -10.7688   -3.7889  -10.3476 I   0  0  0  0  0  0  0  0  0  0  0  0
   -8.4954   -1.8809   -9.7193 C   0  0  0  0  0  0  0  0  0  0  0  0
   -7.3581   -1.4491   -9.0579 C   0  0  0  0  0  0  0  0  0  0  0  0
   -6.5557   -0.2305   -9.2007 C   0  0  0  0  0  0  0  0  0  0  0  0
   -6.8195    0.7848  -10.0849 C   0  0  0  0  0  0  0  0  0  0  0  0
   -6.0714    1.9694  -10.2494 C   0  0  0  0  0  0  0  0  0  0  0  0
   -5.5333    2.9615  -10.4670 N   0  0  0  0  0  0  0  0  0  0  0  0
   -7.9105    0.7883  -10.9798 C   0  0  0  0  0  0  0  0  0  0  0  0
   -8.7753    0.8553  -11.7320 N   0  0  0  0  0  0  0  0  0  0  0  0
    1.5388   -3.7444    5.6606 H   0  0  0  0  0  0  0  0  0  0  0  0
    2.7931    1.1894    9.2843 H   0  0  0  0  0  0  0  0  0  0  0  0
    2.4244   -3.5242   11.0987 H   0  0  0  0  0  0  0  0  0  0  0  0
    1.8270   -1.2279   13.5678 H   0  0  0  0  0  0  0  0  0  0  0  0
    4.0301   -2.0141   14.4195 H   0  0  0  0  0  0  0  0  0  0  0  0
    5.6643   -2.0172   12.3796 H   0  0  0  0  0  0  0  0  0  0  0  0
    5.8697    0.4733   11.4752 H   0  0  0  0  0  0  0  0  0  0  0  0
    4.3578    2.0084   12.9544 H   0  0  0  0  0  0  0  0  0  0  0  0
    3.3455    0.5321   14.9650 H   0  0  0  0  0  0  0  0  0  0  0  0
    5.1162    0.3574   14.8803 H   0  0  0  0  0  0  0  0  0  0  0  0
    2.0245    1.1855   12.6820 H   0  0  0  0  0  0  0  0  0  0  0  0
    4.7285   -2.7301    5.4568 H   0  0  0  0  0  0  0  0  0  0  0  0
    6.6487   -2.0787    6.8373 H   0  0  0  0  0  0  0  0  0  0  0  0
    7.9782    1.3668    7.0601 H   0  0  0  0  0  0  0  0  0  0  0  0
    8.3364   -0.3404    7.3623 H   0  0  0  0  0  0  0  0  0  0  0  0
    6.5995   -0.3876    9.1527 H   0  0  0  0  0  0  0  0  0  0  0  0
    6.2382    1.3118    8.8491 H   0  0  0  0  0  0  0  0  0  0  0  0
    7.8226    0.8470    9.4872 H   0  0  0  0  0  0  0  0  0  0  0  0
    5.9701    2.0185    5.8609 H   0  0  0  0  0  0  0  0  0  0  0  0
    4.0321    1.3763    4.4989 H   0  0  0  0  0  0  0  0  0  0  0  0
   -2.4326    1.3736   -9.8429 H   0  0  0  0  0  0  0  0  0  0  0  0
   -2.4207    3.1155  -11.5683 H   0  0  0  0  0  0  0  0  0  0  0  0
   -1.8917    6.6926  -10.9158 H   0  0  0  0  0  0  0  0  0  0  0  0
   -1.9945    5.4384  -12.1620 H   0  0  0  0  0  0  0  0  0  0  0  0
   -4.3472    6.5889  -10.5848 H   0  0  0  0  0  0  0  0  0  0  0  0
   -3.9852    6.8936  -12.2879 H   0  0  0  0  0  0  0  0  0  0  0  0
   -4.4709    5.2777  -11.7522 H   0  0  0  0  0  0  0  0  0  0  0  0
   -2.2638    6.1201   -8.5444 H   0  0  0  0  0  0  0  0  0  0  0  0
   -2.3050    4.3833   -6.8103 H   0  0  0  0  0  0  0  0  0  0  0  0
   -0.9262   -2.3030   -0.5387 H   0  0  0  0  0  0  0  0  0  0  0  0
   -0.5867   -2.1132    1.1725 H   0  0  0  0  0  0  0  0  0  0  0  0
   -1.7717    0.0331    1.2645 H   0  0  0  0  0  0  0  0  0  0  0  0
   -2.8425   -1.1992    0.5940 H   0  0  0  0  0  0  0  0  0  0  0  0
   -2.0838   -0.0050   -0.4686 H   0  0  0  0  0  0  0  0  0  0  0  0
   -1.9531   -1.7025   -2.0512 H   0  0  0  0  0  0  0  0  0  0  0  0
   -2.0803   -1.6218   -3.7991 H   0  0  0  0  0  0  0  0  0  0  0  0
    0.4789   -2.4958   -2.3603 H   0  0  0  0  0  0  0  0  0  0  0  0
   -0.7105   -3.5874   -3.0851 H   0  0  0  0  0  0  0  0  0  0  0  0
    0.2018   -2.4685   -4.0993 H   0  0  0  0  0  0  0  0  0  0  0  0
   -4.5115    1.4746   -8.7520 H   0  0  0  0  0  0  0  0  0  0  0  0
   -6.8786   -4.0650   -6.9253 H   0  0  0  0  0  0  0  0  0  0  0  0
   -8.9210   -4.8495   -8.1111 H   0  0  0  0  0  0  0  0  0  0  0  0
   -8.9600   -1.2947  -10.4947 H   0  0  0  0  0  0  0  0  0  0  0  0
  1  2  2  0  0  0  0
  2  3  1  0  0  0  0
  3  4  2  0  0  0  0
  3  5  1  0  0  0  0
  5  6  2  0  0  0  0
  6  7  1  0  0  0  0
  7  8  2  0  0  0  0
  8  9  1  0  0  0  0
  9 10  2  0  0  0  0
 10 11  1  0  0  0  0
 11 12  2  0  0  0  0
 12 13  1  0  0  0  0
 13 14  3  0  0  0  0
 12 15  1  0  0  0  0
 15 16  3  0  0  0  0
  8 17  1  0  0  0  0
 17 18  1  0  0  0  0
 18 19  1  0  0  0  0
 19 20  2  0  0  0  0
 20 21  1  0  0  0  0
 21 22  1  0  0  0  0
 21 23  1  0  0  0  0
  1 24  1  0  0  0  0
 24 25  2  0  0  0  0
 25 26  1  0  0  0  0
 26 27  2  0  0  0  0
 27 28  1  0  0  0  0
 28 29  2  0  0  0  0
 29 30  1  0  0  0  0
 30 31  1  0  0  0  0
 29 32  1  0  0  0  0
 32 33  2  0  0  0  0
 25 34  1  0  0  0  0
 34 35  1  0  0  0  0
 35 36  1  0  0  0  0
 36 37  1  0  0  0  0
 37 38  1  0  0  0  0
 38 39  1  0  0  0  0
 39 40  2  0  0  0  0
 40 41  1  0  0  0  0
 41 42  1  0  0  0  0
 39 43  1  0  0  0  0
 43 44  1  0  0  0  0
 44 45  1  0  0  0  0
 45 46  1  0  0  0  0
 46 47  1  0  0  0  0
 47 48  1  0  0  0  0
 48 49  2  0  0  0  0
 49 50  1  0  0  0  0
 50 51  2  0  0  0  0
 51 52  1  0  0  0  0
 52 53  1  0  0  0  0
 51 54  1  0  0  0  0
 54 55  2  0  0  0  0
 47 56  2  0  0  0  0
 56 57  1  0  0  0  0
 57 58  1  0  0  0  0
 58 59  1  0  0  0  0
 59 60  1  0  0  0  0
 60 61  1  0  0  0  0
 61 62  1  0  0  0  0
 62 63  1  0  0  0  0
 63 64  1  0  0  0  0
 64 65  1  0  0  0  0
 65 66  1  0  0  0  0
 63 67  1  0  0  0  0
 67 68  1  0  0  0  0
 60 69  1  0  0  0  0
 69 70  1  0  0  0  0
 56 71  1  0  0  0  0
 71 72  2  0  0  0  0
 72 73  1  0  0  0  0
 73 74  2  0  0  0  0
 73 75  1  0  0  0  0
 75 76  2  0  0  0  0
 76 77  1  0  0  0  0
 77 78  2  0  0  0  0
 78 79  1  0  0  0  0
 78 80  1  0  0  0  0
 80 81  2  0  0  0  0
 81 82  1  0  0  0  0
 82 83  2  0  0  0  0
 83 84  1  0  0  0  0
 84 85  3  0  0  0  0
 83 86  1  0  0  0  0
 86 87  3  0  0  0  0
 11  2  1  0  0  0  0
 23 17  1  0  0  0  0
 66 24  1  0  0  0  0
 82 72  1  0  0  0  0
 10  5  1  0  0  0  0
 22 18  1  0  0  0  0
 33 26  1  0  0  0  0
 65 34  2  0  0  0  0
 81 75  1  0  0  0  0
 23  7  1  0  0  0  0
 64 36  2  0  0  0  0
 62 37  2  0  0  0  0
 42 38  2  0  0  0  0
 61 43  2  0  0  0  0
 59 44  2  0  0  0  0
 58 46  2  0  0  0  0
 55 48  1  0  0  0  0
  1 88  1  0  0  0  0
  6 89  1  0  0  0  0
  9 90  1  0  0  0  0
 17 91  1  0  0  0  0
 18 92  1  0  0  0  0
 19 93  1  0  0  0  0
 20 94  1  0  0  0  0
 21 95  1  0  0  0  0
 22 96  1  0  0  0  0
 22 97  1  0  0  0  0
 23 98  1  0  0  0  0
 27 99  1  0  0  0  0
 28100  1  0  0  0  0
 30101  1  0  0  0  0
 30102  1  0  0  0  0
 31103  1  0  0  0  0
 31104  1  0  0  0  0
 31105  1  0  0  0  0
 32106  1  0  0  0  0
 33107  1  0  0  0  0
 49108  1  0  0  0  0
 50109  1  0  0  0  0
 52110  1  0  0  0  0
 52111  1  0  0  0  0
 53112  1  0  0  0  0
 53113  1  0  0  0  0
 53114  1  0  0  0  0
 54115  1  0  0  0  0
 55116  1  0  0  0  0
 67117  1  0  0  0  0
 67118  1  0  0  0  0
 68119  1  0  0  0  0
 68120  1  0  0  0  0
 68121  1  0  0  0  0
 69122  1  0  0  0  0
 69123  1  0  0  0  0
 70124  1  0  0  0  0
 70125  1  0  0  0  0
 70126  1  0  0  0  0
 71127  1  0  0  0  0
 76128  1  0  0  0  0
 77129  1  0  0  0  0
 80130  1  0  0  0  0
M  END
