174

C          8.04740        1.65180       -1.61280
C          8.64000        2.61230       -2.38960
C          8.00820        3.60870       -3.28190
O          6.86810        3.64910       -3.70160
C          9.05880        4.60040       -3.58370
C          8.90470        5.77860       -4.31170
C         10.05150        6.52830       -4.41130
C         11.26360        6.13740       -3.82670
C         11.43030        4.97650       -3.11010
C         10.27500        4.19580       -3.00220
C         10.05960        2.91780       -2.32980
C         11.04940        2.12330       -1.81120
C         10.87140        0.83640       -1.25990
N         10.82900       -0.22350       -0.81840
C         12.41910        2.46010       -1.80640
N         13.54830        2.66590       -1.76630
C         11.98990        7.36380       -4.32020
C         12.91390        7.17250       -5.54140
C         13.09620        8.57340       -6.07890
C         11.94930        8.94540       -6.63290
C         10.97260        7.80180       -6.47970
C         11.93800        6.61410       -6.58530
C         10.63880        7.79970       -4.97280
C          6.70950        1.23490       -1.50840
S          6.34790        0.11180       -0.19130
C          4.70320        0.09860       -0.64260
C          3.49850       -0.50710       -0.17200
C          2.45980       -0.07650       -0.99210
C          2.96870        0.85700       -2.08180
C          4.44470        0.89460       -1.75590
C          5.56900        1.53260       -2.24780
C          2.44770        2.27880       -1.97510
C          2.83560        3.21390       -2.92630
C          2.42990        4.53340       -2.84790
C          1.62240        4.95130       -1.79480
O          1.16100        6.21580       -1.61400
C          1.52500        7.21800       -2.54260
C          0.88580        8.52090       -2.08870
C          1.24350        4.01820       -0.82970
C          1.65630        2.70510       -0.91540
C          2.72550        0.21520       -3.44040
C          3.40750       -0.94920       -3.76260
C          3.21790       -1.58860       -4.97440
C          2.31830       -1.07160       -5.90080
O          2.02550       -1.60750       -7.11550
C          2.76120       -2.71520       -7.59470
C          4.15150       -2.32760       -8.09020
C          1.61840        0.09040       -5.57290
C          1.81820        0.72140       -4.36390
C          1.13810       -0.50590       -0.74990
C          0.04610       -0.11920       -1.52800
C         -1.25220       -0.49470       -1.20770
C         -2.35190       -0.06630       -2.00230
C         -3.63220       -0.37510       -1.66780
C         -3.86140       -1.12980       -0.49810
C         -5.08690       -1.55160        0.10270
C         -4.83450       -2.27510        1.26530
C         -3.34370       -2.37080        1.49700
C         -2.86500       -3.81160        1.38170
C         -3.33050       -4.59030        0.33200
C         -2.90830       -5.89540        0.15470
C         -1.99080       -6.45610        1.03700
O         -1.51090       -7.72700        0.99060
C         -1.87210       -8.58060       -0.07650
C         -1.11050       -8.27060       -1.36210
C         -1.51450       -5.67280        2.08940
C         -1.94330       -4.37370        2.25730
C         -3.05340       -1.73460        2.84350
C         -3.46990       -2.38100        4.00020
C         -3.27730       -1.82170        5.24960
C         -2.66230       -0.57940        5.36950
O         -2.43000        0.08740        6.53230
C         -2.74660       -0.52010        7.76840
C         -1.72000       -1.56780        8.19010
C         -2.25720        0.07880        4.20810
C         -2.45670       -0.48590        2.96570
C         -2.81870       -1.58560        0.30310
C         -1.48070       -1.30030       -0.04040
C         -0.38420       -1.72690        0.70980
C          0.91460       -1.35640        0.38610
C          2.01330       -1.78330        1.18290
C          3.28250       -1.37800        0.91680
C         -5.98370       -2.68060        1.92060
C         -7.13770       -2.26850        1.26280
S         -6.75410       -1.38340       -0.21830
C         -8.50340       -2.43010        1.55510
C         -9.13390       -2.84780        2.69680
C         -8.55720       -3.08920        4.03840
O         -7.39390       -3.23570        4.35750
C         -9.70400       -3.10800        4.96780
C         -9.64670       -3.19690        6.35660
C        -10.87520       -3.16070        6.97060
C        -12.07540       -3.04910        6.25580
C        -12.14660       -2.97230        4.88530
C        -10.90610       -3.00370        4.24220
C        -10.57880       -2.93520        2.82150
C        -11.48150       -3.02760        1.79400
C        -11.15480       -3.08800        0.42230
N        -10.97800       -3.17240       -0.70960
C        -12.87650       -3.13830        1.96810
N        -14.01960       -3.22670        2.03350
C        -12.91440       -3.04790        7.50900
C        -13.47850       -1.69070        7.99750
C        -12.53800       -0.62640        7.48930
C        -11.40220       -0.73300        8.16590
C        -11.55440       -1.87160        9.14400
C        -13.05070       -1.74760        9.47270
C        -11.57750       -3.17380        8.30540
H          8.70250        1.14270       -0.91470
H          7.95010        6.04470       -4.73800
H         12.36640        4.69550       -2.65780
H         12.42640        7.99900       -3.55160
H         13.81700        6.60170       -5.34340
H         13.99310        9.15150       -5.95500
H         11.69670        9.89640       -7.06430
H         10.10790        7.80530       -7.13810
H         11.49620        5.65750       -6.31270
H         12.39070        6.53810       -7.57250
H         10.17390        8.72550       -4.63820
H          5.59980        2.19360       -3.09260
H          3.46280        2.91210       -3.75100
H          2.75670        5.22300       -3.60970
H          2.61850        7.32260       -2.57520
H          1.16750        6.95000       -3.54680
H          1.14290        9.31970       -2.77850
H         -0.19460        8.41140       -2.05460
H          1.23840        8.77970       -1.09410
H          0.62450        4.34970       -0.01110
H          1.35590        2.01290       -0.14410
H          4.10820       -1.37220       -3.05710
H          3.77640       -2.48910       -5.17560
H          2.16350       -3.09470       -8.42830
H          2.82260       -3.50020       -6.83090
H          4.75260       -1.91810       -7.28200
H          4.65300       -3.20200       -8.49580
H          4.06740       -1.57480       -8.86990
H          0.91660        0.48320       -6.29170
H          1.26710        1.62500       -4.14850
H          0.21060        0.50200       -2.39340
H         -2.13900        0.52360       -2.88150
H         -4.47200       -0.05050       -2.26320
H         -4.04030       -4.17560       -0.36920
H         -3.30850       -6.45860       -0.67350
H         -1.60790       -9.58120        0.27740
H         -2.95530       -8.55130       -0.24660
H         -0.04070       -8.33750       -1.18100
H         -1.33560       -7.26760       -1.71650
H         -1.38450       -8.98750       -2.13130
H         -0.80350       -6.11240        2.77110
H         -1.55980       -3.79980        3.08810
H         -3.95050       -3.34500        3.93270
H         -3.62490       -2.36440        6.11390
H         -2.74460        0.30740        8.48390
H         -3.75570       -0.94940        7.74200
H         -1.97520       -1.95600        9.17240
H         -1.69040       -2.39160        7.48130
H         -0.73180       -1.11700        8.23380
H         -1.79110        1.04660        4.30500
H         -2.14330        0.05860        2.08830
H         -0.54860       -2.34820        1.57500
H          1.80690       -2.43650        2.01780
H          4.12110       -1.69330        1.51880
H         -6.02200       -3.23980        2.83540
H         -9.15210       -2.11530        0.74480
H         -8.70010       -3.28110        6.86740
H        -13.07690       -2.88290        4.34970
H        -13.63940       -3.85430        7.59840
H        -14.53370       -1.53870        7.78700
H        -12.76730        0.03680        6.67580
H        -10.49310       -0.17690        8.03000
H        -10.85800       -1.88390        9.97860
H        -13.45030       -2.60810       10.00750
H        -13.28840       -0.83400       10.01580
H        -11.42970       -4.06290        8.91550
