
  xtb     02102221033D
 energy: -245.244371095648 gnorm: 0.000822847133 xtb: 6.4.1 (unknown)
139155  0     0  0            999 V2000
   -6.6363    0.6527   -3.7388 C   0  0  0  0  0  0  0  0  0  0  0  0
   -7.3775   -0.4953   -3.8605 C   0  0  0  0  0  0  0  0  0  0  0  0
   -7.0075   -1.8236   -3.3648 C   0  0  0  0  0  0  0  0  0  0  0  0
   -5.9640   -2.1500   -2.8222 O   0  0  0  0  0  0  0  0  0  0  0  0
   -8.1547   -2.7039   -3.6388 C   0  0  0  0  0  0  0  0  0  0  0  0
   -8.2745   -4.0519   -3.3109 C   0  0  0  0  0  0  0  0  0  0  0  0
   -9.4755   -4.6113   -3.6759 C   0  0  0  0  0  0  0  0  0  0  0  0
  -10.4810   -3.8840   -4.3261 C   0  0  0  0  0  0  0  0  0  0  0  0
  -10.3725   -2.5549   -4.6606 C   0  0  0  0  0  0  0  0  0  0  0  0
   -9.1611   -1.9637   -4.2920 C   0  0  0  0  0  0  0  0  0  0  0  0
   -8.6935   -0.5884   -4.4614 C   0  0  0  0  0  0  0  0  0  0  0  0
   -9.3911    0.4119   -5.0904 C   0  0  0  0  0  0  0  0  0  0  0  0
   -8.9478    1.7375   -5.2773 C   0  0  0  0  0  0  0  0  0  0  0  0
   -8.6646    2.8336   -5.4776 N   0  0  0  0  0  0  0  0  0  0  0  0
  -10.6721    0.2579   -5.6605 C   0  0  0  0  0  0  0  0  0  0  0  0
  -11.7121    0.2155   -6.1457 N   0  0  0  0  0  0  0  0  0  0  0  0
  -11.4153   -5.0668   -4.3759 C   0  0  0  0  0  0  0  0  0  0  0  0
  -12.5826   -5.1053   -3.3587 C   0  0  0  0  0  0  0  0  0  0  0  0
  -12.1367   -4.3002   -2.1634 C   0  0  0  0  0  0  0  0  0  0  0  0
  -11.1851   -4.9867   -1.5452 C   0  0  0  0  0  0  0  0  0  0  0  0
  -10.9706   -6.2688   -2.3112 C   0  0  0  0  0  0  0  0  0  0  0  0
  -12.4013   -6.5291   -2.8087 C   0  0  0  0  0  0  0  0  0  0  0  0
  -10.2955   -5.8766   -3.6493 C   0  0  0  0  0  0  0  0  0  0  0  0
   -5.3796    0.8787   -3.1656 C   0  0  0  0  0  0  0  0  0  0  0  0
   -4.7950    2.1537   -3.0891 C   0  0  0  0  0  0  0  0  0  0  0  0
   -5.3684    3.4172   -3.6426 C   0  0  0  0  0  0  0  0  0  0  0  0
   -5.0457    3.5527   -5.1332 C   0  0  0  0  0  0  0  0  0  0  0  0
   -3.5557    2.1068   -2.4641 C   0  0  0  0  0  0  0  0  0  0  0  0
   -2.3980    3.3596   -2.0546 S   0  0  0  0  0  0  0  0  0  0  0  0
   -1.3970    2.1466   -1.3422 C   0  0  0  0  0  0  0  0  0  0  0  0
   -0.1856    2.0565   -0.6462 C   0  0  0  0  0  0  0  0  0  0  0  0
    0.6554    3.1042   -0.1976 C   0  0  0  0  0  0  0  0  0  0  0  0
    0.3428    4.3796   -0.4073 N   0  0  0  0  0  0  0  0  0  0  0  0
    1.1374    5.3233    0.0760 C   0  0  0  0  0  0  0  0  0  0  0  0
    0.6074    6.6563   -0.0658 C   0  0  0  0  0  0  0  0  0  0  0  0
   -0.6065    6.8774   -1.2918 S   0  0  0  0  0  0  0  0  0  0  0  0
   -0.8564    8.5234   -0.8305 C   0  0  0  0  0  0  0  0  0  0  0  0
   -1.8396    9.4034   -1.5217 C   0  0  0  0  0  0  0  0  0  0  0  0
   -3.2526    8.8238   -1.4607 C   0  0  0  0  0  0  0  0  0  0  0  0
   -0.0505    8.8318    0.2296 C   0  0  0  0  0  0  0  0  0  0  0  0
    0.7833    7.7926    0.6766 C   0  0  0  0  0  0  0  0  0  0  0  0
   -0.0485   10.0479    0.8074 F   0  0  0  0  0  0  0  0  0  0  0  0
    2.3659    4.9708    0.7114 C   0  0  0  0  0  0  0  0  0  0  0  0
    3.4247    5.8798    1.0720 C   0  0  0  0  0  0  0  0  0  0  0  0
    3.8038    7.0909    0.5595 C   0  0  0  0  0  0  0  0  0  0  0  0
    4.9851    7.5560    1.1622 C   0  0  0  0  0  0  0  0  0  0  0  0
    5.5465    8.7312    0.8210 F   0  0  0  0  0  0  0  0  0  0  0  0
    5.5181    6.7376    2.1184 C   0  0  0  0  0  0  0  0  0  0  0  0
    6.7488    6.9537    2.9296 C   0  0  0  0  0  0  0  0  0  0  0  0
    7.7588    5.8240    2.7309 C   0  0  0  0  0  0  0  0  0  0  0  0
    4.5478    5.3167    2.2749 S   0  0  0  0  0  0  0  0  0  0  0  0
    2.6336    3.7026    0.9874 N   0  0  0  0  0  0  0  0  0  0  0  0
    1.7889    2.7616    0.5755 C   0  0  0  0  0  0  0  0  0  0  0  0
    2.0397    1.3881    0.8146 C   0  0  0  0  0  0  0  0  0  0  0  0
    3.1337    0.7989    1.4589 C   0  0  0  0  0  0  0  0  0  0  0  0
    4.5717    1.2849    2.2814 S   0  0  0  0  0  0  0  0  0  0  0  0
    4.9958   -0.4087    2.4578 C   0  0  0  0  0  0  0  0  0  0  0  0
    6.0945   -1.0381    3.0233 C   0  0  0  0  0  0  0  0  0  0  0  0
    7.1933   -0.2874    3.7015 C   0  0  0  0  0  0  0  0  0  0  0  0
    6.9515   -0.2145    5.2118 C   0  0  0  0  0  0  0  0  0  0  0  0
    5.9986   -2.4380    2.9126 C   0  0  0  0  0  0  0  0  0  0  0  0
    4.5192   -2.9388    2.0885 S   0  0  0  0  0  0  0  0  0  0  0  0
    4.0491   -1.2908    1.9037 C   0  0  0  0  0  0  0  0  0  0  0  0
    2.9828   -0.5873    1.3373 C   0  0  0  0  0  0  0  0  0  0  0  0
    1.8204   -0.8724    0.6698 N   0  0  0  0  0  0  0  0  0  0  0  0
    1.5935   -2.2158    0.1877 C   0  0  0  0  0  0  0  0  0  0  0  0
    1.8773   -2.3244   -1.3088 C   0  0  0  0  0  0  0  0  0  0  0  0
    1.2186    0.3256    0.3302 C   0  0  0  0  0  0  0  0  0  0  0  0
    0.0245    0.6762   -0.3509 C   0  0  0  0  0  0  0  0  0  0  0  0
   -1.0531   -0.0378   -0.8442 N   0  0  0  0  0  0  0  0  0  0  0  0
   -1.9167    0.8507   -1.4284 C   0  0  0  0  0  0  0  0  0  0  0  0
   -3.1631    0.8182   -2.0630 C   0  0  0  0  0  0  0  0  0  0  0  0
   -4.3545   -0.3669   -2.4499 S   0  0  0  0  0  0  0  0  0  0  0  0
   -1.5019   -1.3843   -0.5719 C   0  0  0  0  0  0  0  0  0  0  0  0
   -1.8599   -1.5639    0.9017 C   0  0  0  0  0  0  0  0  0  0  0  0
    6.9791   -3.3046    3.3986 C   0  0  0  0  0  0  0  0  0  0  0  0
    7.0643   -4.6776    3.3794 C   0  0  0  0  0  0  0  0  0  0  0  0
    6.0779   -5.5983    2.8106 C   0  0  0  0  0  0  0  0  0  0  0  0
    5.0238   -5.3191    2.2639 O   0  0  0  0  0  0  0  0  0  0  0  0
    6.6140   -6.9547    3.0245 C   0  0  0  0  0  0  0  0  0  0  0  0
    6.0670   -8.1724    2.6690 C   0  0  0  0  0  0  0  0  0  0  0  0
    6.7662   -9.3283    2.9782 C   0  0  0  0  0  0  0  0  0  0  0  0
    7.9894   -9.2408    3.6324 C   0  0  0  0  0  0  0  0  0  0  0  0
    8.8444  -10.6882    4.0092 Cl  0  0  0  0  0  0  0  0  0  0  0  0
    8.5512   -8.0196    3.9951 C   0  0  0  0  0  0  0  0  0  0  0  0
    7.8518   -6.8664    3.6848 C   0  0  0  0  0  0  0  0  0  0  0  0
    8.1608   -5.4534    3.9188 C   0  0  0  0  0  0  0  0  0  0  0  0
    9.2955   -4.9882    4.5340 C   0  0  0  0  0  0  0  0  0  0  0  0
    9.6148   -3.6341    4.7650 C   0  0  0  0  0  0  0  0  0  0  0  0
    9.9520   -2.5580    4.9876 N   0  0  0  0  0  0  0  0  0  0  0  0
   10.3257   -5.8155    5.0291 C   0  0  0  0  0  0  0  0  0  0  0  0
   11.1989   -6.4230    5.4609 N   0  0  0  0  0  0  0  0  0  0  0  0
   -7.0889    1.5514   -4.1349 H   0  0  0  0  0  0  0  0  0  0  0  0
   -7.4735   -4.5742   -2.8114 H   0  0  0  0  0  0  0  0  0  0  0  0
  -11.1574   -2.0123   -5.1600 H   0  0  0  0  0  0  0  0  0  0  0  0
  -11.7188   -5.3934   -5.3685 H   0  0  0  0  0  0  0  0  0  0  0  0
  -13.5528   -4.8486   -3.7754 H   0  0  0  0  0  0  0  0  0  0  0  0
  -12.5073   -3.3192   -1.9304 H   0  0  0  0  0  0  0  0  0  0  0  0
  -10.6011   -4.6933   -0.6925 H   0  0  0  0  0  0  0  0  0  0  0  0
  -10.4736   -7.0719   -1.7733 H   0  0  0  0  0  0  0  0  0  0  0  0
  -13.0931   -6.7593   -1.9998 H   0  0  0  0  0  0  0  0  0  0  0  0
  -12.4609   -7.3011   -3.5747 H   0  0  0  0  0  0  0  0  0  0  0  0
   -9.8695   -6.7345   -4.1660 H   0  0  0  0  0  0  0  0  0  0  0  0
   -6.4495    3.4550   -3.5020 H   0  0  0  0  0  0  0  0  0  0  0  0
   -4.9232    4.2561   -3.1038 H   0  0  0  0  0  0  0  0  0  0  0  0
   -5.4803    2.7311   -5.6974 H   0  0  0  0  0  0  0  0  0  0  0  0
   -3.9693    3.5521   -5.2884 H   0  0  0  0  0  0  0  0  0  0  0  0
   -5.4547    4.4837   -5.5148 H   0  0  0  0  0  0  0  0  0  0  0  0
   -1.8161   10.3866   -1.0469 H   0  0  0  0  0  0  0  0  0  0  0  0
   -1.5468    9.5225   -2.5686 H   0  0  0  0  0  0  0  0  0  0  0  0
   -3.9506    9.4846   -1.9678 H   0  0  0  0  0  0  0  0  0  0  0  0
   -3.2790    7.8489   -1.9419 H   0  0  0  0  0  0  0  0  0  0  0  0
   -3.5714    8.7089   -0.4274 H   0  0  0  0  0  0  0  0  0  0  0  0
    1.4473    7.8874    1.5151 H   0  0  0  0  0  0  0  0  0  0  0  0
    3.2920    7.6190   -0.2230 H   0  0  0  0  0  0  0  0  0  0  0  0
    7.1908    7.9088    2.6383 H   0  0  0  0  0  0  0  0  0  0  0  0
    6.4796    7.0108    3.9881 H   0  0  0  0  0  0  0  0  0  0  0  0
    8.6432    6.0014    3.3370 H   0  0  0  0  0  0  0  0  0  0  0  0
    7.3189    4.8727    3.0217 H   0  0  0  0  0  0  0  0  0  0  0  0
    8.0591    5.7624    1.6876 H   0  0  0  0  0  0  0  0  0  0  0  0
    8.1626   -0.7509    3.5124 H   0  0  0  0  0  0  0  0  0  0  0  0
    7.2129    0.7258    3.2952 H   0  0  0  0  0  0  0  0  0  0  0  0
    6.0074    0.2834    5.4197 H   0  0  0  0  0  0  0  0  0  0  0  0
    7.7539    0.3434    5.6856 H   0  0  0  0  0  0  0  0  0  0  0  0
    6.9229   -1.2110    5.6461 H   0  0  0  0  0  0  0  0  0  0  0  0
    0.5839   -2.5438    0.4320 H   0  0  0  0  0  0  0  0  0  0  0  0
    2.2850   -2.8635    0.7319 H   0  0  0  0  0  0  0  0  0  0  0  0
    2.9214   -2.0924   -1.5048 H   0  0  0  0  0  0  0  0  0  0  0  0
    1.6792   -3.3362   -1.6513 H   0  0  0  0  0  0  0  0  0  0  0  0
    1.2629   -1.6305   -1.8787 H   0  0  0  0  0  0  0  0  0  0  0  0
   -2.3959   -1.5435   -1.1796 H   0  0  0  0  0  0  0  0  0  0  0  0
   -0.7568   -2.1092   -0.8978 H   0  0  0  0  0  0  0  0  0  0  0  0
   -1.0138   -1.3321    1.5453 H   0  0  0  0  0  0  0  0  0  0  0  0
   -2.1741   -2.5877    1.0845 H   0  0  0  0  0  0  0  0  0  0  0  0
   -2.6791   -0.8996    1.1662 H   0  0  0  0  0  0  0  0  0  0  0  0
    7.8072   -2.7898    3.8658 H   0  0  0  0  0  0  0  0  0  0  0  0
    5.1155   -8.2117    2.1619 H   0  0  0  0  0  0  0  0  0  0  0  0
    6.3711  -10.2969    2.7163 H   0  0  0  0  0  0  0  0  0  0  0  0
    9.5022   -7.9987    4.5006 H   0  0  0  0  0  0  0  0  0  0  0  0
  1  2  2  0  0  0  0
  2  3  1  0  0  0  0
  3  4  2  0  0  0  0
  3  5  1  0  0  0  0
  5  6  2  0  0  0  0
  6  7  1  0  0  0  0
  7  8  2  0  0  0  0
  8  9  1  0  0  0  0
  9 10  2  0  0  0  0
 10 11  1  0  0  0  0
 11 12  2  0  0  0  0
 12 13  1  0  0  0  0
 13 14  3  0  0  0  0
 12 15  1  0  0  0  0
 15 16  3  0  0  0  0
  8 17  1  0  0  0  0
 17 18  1  0  0  0  0
 18 19  1  0  0  0  0
 19 20  2  0  0  0  0
 20 21  1  0  0  0  0
 21 22  1  0  0  0  0
 21 23  1  0  0  0  0
  1 24  1  0  0  0  0
 24 25  2  0  0  0  0
 25 26  1  0  0  0  0
 26 27  1  0  0  0  0
 25 28  1  0  0  0  0
 28 29  1  0  0  0  0
 29 30  1  0  0  0  0
 30 31  1  0  0  0  0
 31 32  2  0  0  0  0
 32 33  1  0  0  0  0
 33 34  2  0  0  0  0
 34 35  1  0  0  0  0
 35 36  1  0  0  0  0
 36 37  1  0  0  0  0
 37 38  1  0  0  0  0
 38 39  1  0  0  0  0
 37 40  2  0  0  0  0
 40 41  1  0  0  0  0
 40 42  1  0  0  0  0
 34 43  1  0  0  0  0
 43 44  1  0  0  0  0
 44 45  2  0  0  0  0
 45 46  1  0  0  0  0
 46 47  1  0  0  0  0
 46 48  2  0  0  0  0
 48 49  1  0  0  0  0
 49 50  1  0  0  0  0
 48 51  1  0  0  0  0
 43 52  2  0  0  0  0
 52 53  1  0  0  0  0
 53 54  2  0  0  0  0
 54 55  1  0  0  0  0
 55 56  1  0  0  0  0
 56 57  1  0  0  0  0
 57 58  1  0  0  0  0
 58 59  1  0  0  0  0
 59 60  1  0  0  0  0
 58 61  2  0  0  0  0
 61 62  1  0  0  0  0
 62 63  1  0  0  0  0
 63 64  1  0  0  0  0
 64 65  1  0  0  0  0
 65 66  1  0  0  0  0
 66 67  1  0  0  0  0
 65 68  1  0  0  0  0
 68 69  2  0  0  0  0
 69 70  1  0  0  0  0
 70 71  1  0  0  0  0
 71 72  1  0  0  0  0
 72 73  1  0  0  0  0
 70 74  1  0  0  0  0
 74 75  1  0  0  0  0
 61 76  1  0  0  0  0
 76 77  2  0  0  0  0
 77 78  1  0  0  0  0
 78 79  2  0  0  0  0
 78 80  1  0  0  0  0
 80 81  2  0  0  0  0
 81 82  1  0  0  0  0
 82 83  2  0  0  0  0
 83 84  1  0  0  0  0
 83 85  1  0  0  0  0
 85 86  2  0  0  0  0
 86 87  1  0  0  0  0
 87 88  2  0  0  0  0
 88 89  1  0  0  0  0
 89 90  3  0  0  0  0
 88 91  1  0  0  0  0
 91 92  3  0  0  0  0
 11  2  1  0  0  0  0
 23 17  1  0  0  0  0
 73 24  1  0  0  0  0
 87 77  1  0  0  0  0
 10  5  1  0  0  0  0
 22 18  1  0  0  0  0
 72 28  2  0  0  0  0
 86 80  1  0  0  0  0
 23  7  1  0  0  0  0
 71 30  2  0  0  0  0
 69 31  1  0  0  0  0
 53 32  1  0  0  0  0
 68 54  1  0  0  0  0
 41 35  2  0  0  0  0
 51 44  1  0  0  0  0
 64 55  2  0  0  0  0
 63 57  2  0  0  0  0
  1 93  1  0  0  0  0
  6 94  1  0  0  0  0
  9 95  1  0  0  0  0
 17 96  1  0  0  0  0
 18 97  1  0  0  0  0
 19 98  1  0  0  0  0
 20 99  1  0  0  0  0
 21100  1  0  0  0  0
 22101  1  0  0  0  0
 22102  1  0  0  0  0
 23103  1  0  0  0  0
 26104  1  0  0  0  0
 26105  1  0  0  0  0
 27106  1  0  0  0  0
 27107  1  0  0  0  0
 27108  1  0  0  0  0
 38109  1  0  0  0  0
 38110  1  0  0  0  0
 39111  1  0  0  0  0
 39112  1  0  0  0  0
 39113  1  0  0  0  0
 41114  1  0  0  0  0
 45115  1  0  0  0  0
 49116  1  0  0  0  0
 49117  1  0  0  0  0
 50118  1  0  0  0  0
 50119  1  0  0  0  0
 50120  1  0  0  0  0
 59121  1  0  0  0  0
 59122  1  0  0  0  0
 60123  1  0  0  0  0
 60124  1  0  0  0  0
 60125  1  0  0  0  0
 66126  1  0  0  0  0
 66127  1  0  0  0  0
 67128  1  0  0  0  0
 67129  1  0  0  0  0
 67130  1  0  0  0  0
 74131  1  0  0  0  0
 74132  1  0  0  0  0
 75133  1  0  0  0  0
 75134  1  0  0  0  0
 75135  1  0  0  0  0
 76136  1  0  0  0  0
 81137  1  0  0  0  0
 82138  1  0  0  0  0
 85139  1  0  0  0  0
M  END
