
  xtb     02022214303D
 energy: -184.785882334437 gnorm: 0.000940002986 xtb: 6.4.1 (unknown)
110122  0     0  0            999 V2000
    4.9997    0.7375   -2.6855 C   0  0  0  0  0  0  0  0  0  0  0  0
    6.1913    0.0717   -2.5758 C   0  0  0  0  0  0  0  0  0  0  0  0
    6.5844   -0.7845   -1.4365 C   0  0  0  0  0  0  0  0  0  0  0  0
    5.9433   -1.0008   -0.4276 O   0  0  0  0  0  0  0  0  0  0  0  0
    7.9865   -1.1706   -1.6867 C   0  0  0  0  0  0  0  0  0  0  0  0
    8.7741   -2.0180   -0.9107 C   0  0  0  0  0  0  0  0  0  0  0  0
   10.0495   -2.1934   -1.3919 C   0  0  0  0  0  0  0  0  0  0  0  0
   10.5122   -1.5655   -2.5559 C   0  0  0  0  0  0  0  0  0  0  0  0
    9.7496   -0.7195   -3.3251 C   0  0  0  0  0  0  0  0  0  0  0  0
    8.4468   -0.5293   -2.8541 C   0  0  0  0  0  0  0  0  0  0  0  0
    7.3573    0.2710   -3.4081 C   0  0  0  0  0  0  0  0  0  0  0  0
    7.4166    1.0158   -4.5602 C   0  0  0  0  0  0  0  0  0  0  0  0
    6.3295    1.7013   -5.1396 C   0  0  0  0  0  0  0  0  0  0  0  0
    5.4932    2.2656   -5.6901 N   0  0  0  0  0  0  0  0  0  0  0  0
    8.5786    1.1962   -5.3370 C   0  0  0  0  0  0  0  0  0  0  0  0
    9.4865    1.3984   -6.0109 N   0  0  0  0  0  0  0  0  0  0  0  0
   11.8803   -2.1916   -2.4472 C   0  0  0  0  0  0  0  0  0  0  0  0
   13.0151   -1.2873   -1.9223 C   0  0  0  0  0  0  0  0  0  0  0  0
   14.0777   -2.2644   -1.4739 C   0  0  0  0  0  0  0  0  0  0  0  0
   13.6402   -2.8582   -0.3708 C   0  0  0  0  0  0  0  0  0  0  0  0
   12.2744   -2.2923   -0.0550 C   0  0  0  0  0  0  0  0  0  0  0  0
   12.4615   -0.8552   -0.5583 C   0  0  0  0  0  0  0  0  0  0  0  0
   11.3649   -2.8914   -1.1488 C   0  0  0  0  0  0  0  0  0  0  0  0
    3.7317    0.4421   -2.1354 C   0  0  0  0  0  0  0  0  0  0  0  0
    2.7727    1.4443   -1.8833 C   0  0  0  0  0  0  0  0  0  0  0  0
    1.6302    0.7846   -1.4705 C   0  0  0  0  0  0  0  0  0  0  0  0
    1.8806   -0.6026   -1.5483 C   0  0  0  0  0  0  0  0  0  0  0  0
    3.1685   -0.8039   -1.9125 N   0  0  0  0  0  0  0  0  0  0  0  0
    3.7137   -2.1020   -2.2378 C   0  0  0  0  0  0  0  0  0  0  0  0
    3.8802   -2.9765   -1.0004 C   0  0  0  0  0  0  0  0  0  0  0  0
    0.6471   -1.2490   -1.3277 C   0  0  0  0  0  0  0  0  0  0  0  0
    0.2397   -2.5960   -1.4683 C   0  0  0  0  0  0  0  0  0  0  0  0
   -1.1471   -2.9308   -1.3071 C   0  0  0  0  0  0  0  0  0  0  0  0
   -1.3945   -4.2113   -1.5284 N   0  0  0  0  0  0  0  0  0  0  0  0
   -0.0041   -4.9452   -1.9100 S   0  0  0  0  0  0  0  0  0  0  0  0
    0.9661   -3.6512   -1.8087 N   0  0  0  0  0  0  0  0  0  0  0  0
   -2.0531   -1.9246   -0.9120 C   0  0  0  0  0  0  0  0  0  0  0  0
   -3.4088   -1.9851   -0.5755 C   0  0  0  0  0  0  0  0  0  0  0  0
   -4.6769   -3.1569   -0.5053 S   0  0  0  0  0  0  0  0  0  0  0  0
   -5.7416   -1.9095    0.1192 C   0  0  0  0  0  0  0  0  0  0  0  0
   -7.0790   -1.9295    0.4726 C   0  0  0  0  0  0  0  0  0  0  0  0
   -7.8962   -3.1812    0.4373 C   0  0  0  0  0  0  0  0  0  0  0  0
   -7.9718   -3.8216    1.8262 C   0  0  0  0  0  0  0  0  0  0  0  0
   -7.5227   -0.6593    0.9009 C   0  0  0  0  0  0  0  0  0  0  0  0
   -6.2242    0.5329    0.8618 S   0  0  0  0  0  0  0  0  0  0  0  0
   -5.1226   -0.6525    0.2642 C   0  0  0  0  0  0  0  0  0  0  0  0
   -3.7860   -0.7064   -0.1417 C   0  0  0  0  0  0  0  0  0  0  0  0
   -2.7093    0.1403   -0.2161 N   0  0  0  0  0  0  0  0  0  0  0  0
   -1.6346   -0.5766   -0.7079 C   0  0  0  0  0  0  0  0  0  0  0  0
   -0.3022   -0.2188   -1.0370 C   0  0  0  0  0  0  0  0  0  0  0  0
    0.3194    1.0154   -1.1399 N   0  0  0  0  0  0  0  0  0  0  0  0
   -0.2417    2.3238   -1.3900 C   0  0  0  0  0  0  0  0  0  0  0  0
    0.1942    3.3454   -0.3418 C   0  0  0  0  0  0  0  0  0  0  0  0
   -2.7243    1.3979    0.4987 C   0  0  0  0  0  0  0  0  0  0  0  0
   -3.5568    2.4724   -0.1997 C   0  0  0  0  0  0  0  0  0  0  0  0
   -8.8459   -0.4217    1.2694 C   0  0  0  0  0  0  0  0  0  0  0  0
   -9.5433    0.7058    1.6798 C   0  0  0  0  0  0  0  0  0  0  0  0
   -8.8847    1.9962    1.8265 C   0  0  0  0  0  0  0  0  0  0  0  0
   -7.6840    2.1620    1.6159 O   0  0  0  0  0  0  0  0  0  0  0  0
   -9.6397    3.0707    2.2210 N   0  0  0  0  0  0  0  0  0  0  0  0
   -8.9668    4.3588    2.3493 C   0  0  0  0  0  0  0  0  0  0  0  0
   -8.9375    5.0961    1.0168 C   0  0  0  0  0  0  0  0  0  0  0  0
  -11.0094    3.0481    2.4667 C   0  0  0  0  0  0  0  0  0  0  0  0
  -11.5997    4.0601    2.7805 O   0  0  0  0  0  0  0  0  0  0  0  0
  -11.6364    1.7374    2.3247 C   0  0  0  0  0  0  0  0  0  0  0  0
  -10.9468    0.6158    1.9527 C   0  0  0  0  0  0  0  0  0  0  0  0
  -11.6752   -0.6885    1.8283 C   0  0  0  0  0  0  0  0  0  0  0  0
  -13.0209    1.6976    2.5952 C   0  0  0  0  0  0  0  0  0  0  0  0
  -14.1478    1.6543    2.8052 N   0  0  0  0  0  0  0  0  0  0  0  0
    4.9965    1.6460   -3.2771 H   0  0  0  0  0  0  0  0  0  0  0  0
    8.3773   -2.4856   -0.0231 H   0  0  0  0  0  0  0  0  0  0  0  0
   10.1204   -0.2425   -4.2167 H   0  0  0  0  0  0  0  0  0  0  0  0
   12.1849   -2.8123   -3.2877 H   0  0  0  0  0  0  0  0  0  0  0  0
   13.3275   -0.5045   -2.6079 H   0  0  0  0  0  0  0  0  0  0  0  0
   14.9835   -2.4572   -2.0182 H   0  0  0  0  0  0  0  0  0  0  0  0
   14.1075   -3.6463    0.1901 H   0  0  0  0  0  0  0  0  0  0  0  0
   11.9131   -2.4245    0.9613 H   0  0  0  0  0  0  0  0  0  0  0  0
   11.5384   -0.2814   -0.6157 H   0  0  0  0  0  0  0  0  0  0  0  0
   13.1958   -0.3059    0.0286 H   0  0  0  0  0  0  0  0  0  0  0  0
   11.3284   -3.9791   -1.1231 H   0  0  0  0  0  0  0  0  0  0  0  0
    2.9546    2.4967   -1.9738 H   0  0  0  0  0  0  0  0  0  0  0  0
    3.0229   -2.5952   -2.9295 H   0  0  0  0  0  0  0  0  0  0  0  0
    4.6730   -1.9577   -2.7378 H   0  0  0  0  0  0  0  0  0  0  0  0
    2.9110   -3.1672   -0.5516 H   0  0  0  0  0  0  0  0  0  0  0  0
    4.5237   -2.4879   -0.2752 H   0  0  0  0  0  0  0  0  0  0  0  0
    4.3227   -3.9258   -1.2880 H   0  0  0  0  0  0  0  0  0  0  0  0
   -8.9023   -2.9812    0.0642 H   0  0  0  0  0  0  0  0  0  0  0  0
   -7.4158   -3.8806   -0.2497 H   0  0  0  0  0  0  0  0  0  0  0  0
   -8.5642   -4.7320    1.7865 H   0  0  0  0  0  0  0  0  0  0  0  0
   -6.9736   -4.0737    2.1755 H   0  0  0  0  0  0  0  0  0  0  0  0
   -8.4237   -3.1410    2.5444 H   0  0  0  0  0  0  0  0  0  0  0  0
    0.1209    2.6567   -2.3706 H   0  0  0  0  0  0  0  0  0  0  0  0
   -1.3234    2.2477   -1.4470 H   0  0  0  0  0  0  0  0  0  0  0  0
   -0.2539    4.3099   -0.5635 H   0  0  0  0  0  0  0  0  0  0  0  0
    1.2750    3.4530   -0.3508 H   0  0  0  0  0  0  0  0  0  0  0  0
   -0.1027    3.0470    0.6609 H   0  0  0  0  0  0  0  0  0  0  0  0
   -1.6953    1.7184    0.6461 H   0  0  0  0  0  0  0  0  0  0  0  0
   -3.1620    1.2136    1.4864 H   0  0  0  0  0  0  0  0  0  0  0  0
   -4.6151    2.2427   -0.1214 H   0  0  0  0  0  0  0  0  0  0  0  0
   -3.3811    3.4322    0.2777 H   0  0  0  0  0  0  0  0  0  0  0  0
   -3.3084    2.5554   -1.2552 H   0  0  0  0  0  0  0  0  0  0  0  0
   -9.4494   -1.3162    1.2004 H   0  0  0  0  0  0  0  0  0  0  0  0
   -7.9519    4.1669    2.7022 H   0  0  0  0  0  0  0  0  0  0  0  0
   -9.5224    4.9368    3.0898 H   0  0  0  0  0  0  0  0  0  0  0  0
   -8.4345    6.0512    1.1382 H   0  0  0  0  0  0  0  0  0  0  0  0
   -9.9514    5.2769    0.6677 H   0  0  0  0  0  0  0  0  0  0  0  0
   -8.4020    4.5090    0.2740 H   0  0  0  0  0  0  0  0  0  0  0  0
  -11.6272   -1.0601    0.8049 H   0  0  0  0  0  0  0  0  0  0  0  0
  -12.7213   -0.5601    2.0940 H   0  0  0  0  0  0  0  0  0  0  0  0
  -11.2434   -1.4377    2.4912 H   0  0  0  0  0  0  0  0  0  0  0  0
  1  2  2  0  0  0  0
  2  3  1  0  0  0  0
  3  4  2  0  0  0  0
  3  5  1  0  0  0  0
  5  6  2  0  0  0  0
  6  7  1  0  0  0  0
  7  8  2  0  0  0  0
  8  9  1  0  0  0  0
  9 10  2  0  0  0  0
 10 11  1  0  0  0  0
 11 12  2  0  0  0  0
 12 13  1  0  0  0  0
 13 14  3  0  0  0  0
 12 15  1  0  0  0  0
 15 16  3  0  0  0  0
  8 17  1  0  0  0  0
 17 18  1  0  0  0  0
 18 19  1  0  0  0  0
 19 20  2  0  0  0  0
 20 21  1  0  0  0  0
 21 22  1  0  0  0  0
 21 23  1  0  0  0  0
  1 24  1  0  0  0  0
 24 25  2  0  0  0  0
 25 26  1  0  0  0  0
 26 27  2  0  0  0  0
 27 28  1  0  0  0  0
 28 29  1  0  0  0  0
 29 30  1  0  0  0  0
 27 31  1  0  0  0  0
 31 32  1  0  0  0  0
 32 33  1  0  0  0  0
 33 34  2  0  0  0  0
 34 35  1  0  0  0  0
 35 36  1  0  0  0  0
 33 37  1  0  0  0  0
 37 38  1  0  0  0  0
 38 39  1  0  0  0  0
 39 40  1  0  0  0  0
 40 41  1  0  0  0  0
 41 42  1  0  0  0  0
 42 43  1  0  0  0  0
 41 44  2  0  0  0  0
 44 45  1  0  0  0  0
 45 46  1  0  0  0  0
 46 47  1  0  0  0  0
 47 48  1  0  0  0  0
 48 49  1  0  0  0  0
 49 50  1  0  0  0  0
 50 51  1  0  0  0  0
 51 52  1  0  0  0  0
 52 53  1  0  0  0  0
 48 54  1  0  0  0  0
 54 55  1  0  0  0  0
 44 56  1  0  0  0  0
 56 57  2  0  0  0  0
 57 58  1  0  0  0  0
 58 59  2  0  0  0  0
 58 60  1  0  0  0  0
 60 61  1  0  0  0  0
 61 62  1  0  0  0  0
 60 63  1  0  0  0  0
 63 64  2  0  0  0  0
 63 65  1  0  0  0  0
 65 66  2  0  0  0  0
 66 67  1  0  0  0  0
 65 68  1  0  0  0  0
 68 69  3  0  0  0  0
 11  2  1  0  0  0  0
 23 17  1  0  0  0  0
 28 24  1  0  0  0  0
 50 31  2  0  0  0  0
 66 57  1  0  0  0  0
 10  5  1  0  0  0  0
 22 18  1  0  0  0  0
 51 26  1  0  0  0  0
 23  7  1  0  0  0  0
 36 32  2  0  0  0  0
 49 37  2  0  0  0  0
 47 38  2  0  0  0  0
 46 40  2  0  0  0  0
  1 70  1  0  0  0  0
  6 71  1  0  0  0  0
  9 72  1  0  0  0  0
 17 73  1  0  0  0  0
 18 74  1  0  0  0  0
 19 75  1  0  0  0  0
 20 76  1  0  0  0  0
 21 77  1  0  0  0  0
 22 78  1  0  0  0  0
 22 79  1  0  0  0  0
 23 80  1  0  0  0  0
 25 81  1  0  0  0  0
 29 82  1  0  0  0  0
 29 83  1  0  0  0  0
 30 84  1  0  0  0  0
 30 85  1  0  0  0  0
 30 86  1  0  0  0  0
 42 87  1  0  0  0  0
 42 88  1  0  0  0  0
 43 89  1  0  0  0  0
 43 90  1  0  0  0  0
 43 91  1  0  0  0  0
 52 92  1  0  0  0  0
 52 93  1  0  0  0  0
 53 94  1  0  0  0  0
 53 95  1  0  0  0  0
 53 96  1  0  0  0  0
 54 97  1  0  0  0  0
 54 98  1  0  0  0  0
 55 99  1  0  0  0  0
 55100  1  0  0  0  0
 55101  1  0  0  0  0
 56102  1  0  0  0  0
 61103  1  0  0  0  0
 61104  1  0  0  0  0
 62105  1  0  0  0  0
 62106  1  0  0  0  0
 62107  1  0  0  0  0
 67108  1  0  0  0  0
 67109  1  0  0  0  0
 67110  1  0  0  0  0
M  END
