122

C          4.74660        1.95240        5.02490
C          4.24900        3.13180        5.49520
C          2.92220        3.71100        5.16800
O          2.16740        3.42680        4.26010
C          2.64090        4.68550        6.23980
C          1.46500        5.41260        6.40980
C          1.47400        6.24200        7.50480
C          2.56950        6.33720        8.37360
C          3.73380        5.62280        8.21970
C          3.74730        4.77720        7.10650
C          4.78400        3.87150        6.62430
C          6.06850        3.79420        7.09560
C          7.07710        2.98100        6.53660
N          7.95430        2.36490        6.12440
C          6.56890        4.55490        8.17160
N          7.03470        5.14230        9.04170
C          1.88670        7.35780        9.24950
C          2.31650        8.83810        9.10050
C          2.83280        8.99480        7.69170
C          1.79660        8.90610        6.86860
C          0.56090        8.68700        7.70590
C          0.93490        9.49670        8.95760
C          0.66710        7.25270        8.28050
C          4.26820        1.20520        3.90160
C          4.30610       -0.20810        3.96630
C          3.75860       -0.98980        2.98430
C          3.17970       -0.37200        1.86960
C          2.49230       -0.79990        0.71870
C          2.16860        0.34150       -0.03040
N          2.64090        1.46160        0.57960
C          3.22450        1.05920        1.75880
C          3.76250        1.83610        2.76210
C          2.36140        2.81630        0.17650
C          1.17930        3.39850        0.94920
C          1.45110       -0.07960       -1.16310
C          0.96690        0.55490       -2.32560
C          0.31560       -0.21060       -3.33580
N          0.03210        0.61430       -4.34640
N          0.48590        1.78010       -3.94990
C          0.33390        2.96000       -4.74980
C         -1.04300        3.58290       -4.53680
N          1.04650        1.81420       -2.76370
C          0.02510       -1.57240       -3.10960
C          0.45830       -2.19090       -1.90350
C          1.30300       -1.48710       -1.02050
N          1.97850       -1.92650        0.10930
C          2.63730       -3.21090        0.23160
C          4.12750       -3.10460       -0.09310
N         -0.07260       -3.46780       -1.80530
C         -0.41400       -4.13890       -0.56820
C         -1.88240       -3.92280       -0.20100
C         -0.82360       -3.66850       -2.94520
C         -0.76470       -2.53050       -3.76650
N         -1.51970       -2.70990       -4.88280
C         -1.79050       -1.71170       -5.88560
C         -3.14030       -1.03530       -5.65370
C         -2.11690       -3.94520       -4.76940
C         -1.68260       -4.59370       -3.56230
C         -2.14610       -5.88460       -3.27740
C         -3.04130       -6.47060       -4.12960
C         -3.53820       -5.79870       -5.27550
C         -3.02530       -4.54110       -5.61500
C         -4.54290       -6.45540       -6.04550
C         -5.54090       -5.91320       -6.80910
C         -6.01100       -4.50090       -6.79030
O         -5.51660       -3.54160       -6.23420
C         -7.27580       -4.51170       -7.54060
C         -8.23120       -3.61330       -7.88620
S         -9.47840       -4.37280       -8.80690
C         -8.70460       -5.91330       -8.72260
C         -7.54370       -5.83380       -8.01750
C         -6.46990       -6.70960       -7.59540
C         -6.36880       -8.03150       -7.94760
C         -5.31060       -8.90030       -7.62070
N         -4.48140       -9.66610       -7.40500
C         -7.36370       -8.65380       -8.72820
N         -8.16990       -9.17470       -9.35810
H          5.53210        1.47530        5.60060
H          0.64240        5.30460        5.72010
H          4.56430        5.69690        8.90190
H          1.73810        7.07160       10.28890
H          2.96560        9.20140        9.89250
H          3.87330        9.09270        7.44330
H          1.79830        8.91490        5.79420
H         -0.38920        8.91310        7.22870
H          0.99620       10.56670        8.76430
H          0.27680        9.31310        9.80580
H         -0.27810        6.89770        8.68730
H          4.73900       -0.66980        4.84150
H          3.76320       -2.06630        3.07250
H          3.81770        2.90690        2.66740
H          2.13560        2.79510       -0.89310
H          3.25630        3.42340        0.34250
H          0.28470        2.81080        0.75680
H          0.99860        4.42140        0.63020
H          1.37760        3.39150        2.01810
H          1.12120        3.65630       -4.45500
H          0.46160        2.67240       -5.79580
H         -1.14690        4.47130       -5.15300
H         -1.17180        3.86170       -3.49370
H         -1.81940        2.87230       -4.80950
H          2.18020       -3.91050       -0.46800
H          2.50640       -3.58280        1.25370
H          4.26300       -2.72860       -1.10490
H          4.62760       -2.43030        0.59690
H          4.58930       -4.08570       -0.02060
H         -0.20930       -5.20860       -0.68080
H          0.20070       -3.73920        0.23570
H         -2.09980       -4.41750        0.74190
H         -2.08550       -2.85960       -0.09210
H         -2.54020       -4.32470       -0.96660
H         -0.99170       -0.96840       -5.82570
H         -1.77040       -2.18580       -6.87150
H         -3.14860       -0.55240       -4.67940
H         -3.30800       -0.28070       -6.41720
H         -3.94940       -1.76030       -5.69280
H         -1.80150       -6.40770       -2.39770
H         -3.41810       -7.45940       -3.91350
H         -3.32410       -4.06240       -6.53090
H         -4.54490       -7.53590       -5.95190
H         -8.28660       -2.56590       -7.66720
H         -9.16480       -6.75910       -9.19230
