
  xtb     02112201523D
 energy: -186.846910345532 gnorm: 0.000734763901 xtb: 6.4.1 (unknown)
101114  0     0  0            999 V2000
    3.1352    3.9799    3.8700 C   0  0  0  0  0  0  0  0  0  0  0  0
    2.6332    3.6596    5.1032 C   0  0  0  0  0  0  0  0  0  0  0  0
    1.6200    2.6456    5.4728 C   0  0  0  0  0  0  0  0  0  0  0  0
    0.8507    2.0336    4.7553 O   0  0  0  0  0  0  0  0  0  0  0  0
    1.7075    2.5004    6.9366 C   0  0  0  0  0  0  0  0  0  0  0  0
    1.0055    1.5906    7.7244 C   0  0  0  0  0  0  0  0  0  0  0  0
    1.3078    1.6596    9.0626 C   0  0  0  0  0  0  0  0  0  0  0  0
    2.2488    2.5608    9.5795 C   0  0  0  0  0  0  0  0  0  0  0  0
    2.9434    3.4669    8.8143 C   0  0  0  0  0  0  0  0  0  0  0  0
    2.6393    3.4224    7.4506 C   0  0  0  0  0  0  0  0  0  0  0  0
    3.1540    4.2205    6.3420 C   0  0  0  0  0  0  0  0  0  0  0  0
    3.9211    5.3482    6.4753 C   0  0  0  0  0  0  0  0  0  0  0  0
    4.3364    6.1971    5.4265 C   0  0  0  0  0  0  0  0  0  0  0  0
    4.6977    6.9549    4.6425 N   0  0  0  0  0  0  0  0  0  0  0  0
    4.3627    5.8658    7.7116 C   0  0  0  0  0  0  0  0  0  0  0  0
    4.7554    6.3440    8.6786 N   0  0  0  0  0  0  0  0  0  0  0  0
    2.0602    2.0701   10.9931 C   0  0  0  0  0  0  0  0  0  0  0  0
    1.2191    2.9454   11.9542 C   0  0  0  0  0  0  0  0  0  0  0  0
    0.2676    3.7352   11.0899 C   0  0  0  0  0  0  0  0  0  0  0  0
   -0.6293    2.8903   10.5994 C   0  0  0  0  0  0  0  0  0  0  0  0
   -0.3009    1.5140   11.1231 C   0  0  0  0  0  0  0  0  0  0  0  0
    0.2612    1.8779   12.5066 C   0  0  0  0  0  0  0  0  0  0  0  0
    1.0059    1.0722   10.4183 C   0  0  0  0  0  0  0  0  0  0  0  0
    2.8049    3.5372    2.5739 C   0  0  0  0  0  0  0  0  0  0  0  0
    3.9133    4.1678    1.1312 Se  0  0  0  0  0  2  0  0  0  0  0  0
    2.8336    3.1477    0.0417 C   0  0  0  0  0  0  0  0  0  0  0  0
    2.6689    2.8033   -1.3071 C   0  0  0  0  0  0  0  0  0  0  0  0
    3.3350    3.2496   -2.4687 C   0  0  0  0  0  0  0  0  0  0  0  0
    2.9021    2.7725   -3.7499 C   0  0  0  0  0  0  0  0  0  0  0  0
    3.5801    3.3200   -4.7459 N   0  0  0  0  0  0  0  0  0  0  0  0
    4.6706    4.3433   -4.1257 S   0  0  0  0  0  0  0  0  0  0  0  0
    4.3213    4.1267   -2.5589 N   0  0  0  0  0  0  0  0  0  0  0  0
    1.9107    1.7645   -3.7994 C   0  0  0  0  0  0  0  0  0  0  0  0
    1.4486    0.9698   -4.8550 C   0  0  0  0  0  0  0  0  0  0  0  0
    1.6777    0.8101   -6.5608 S   0  0  0  0  0  0  0  0  0  0  0  0
    0.6460   -0.6081   -6.5333 C   0  0  0  0  0  0  0  0  0  0  0  0
    0.2425   -1.4839   -7.5286 C   0  0  0  0  0  0  0  0  0  0  0  0
    0.6241   -1.3137   -8.9621 C   0  0  0  0  0  0  0  0  0  0  0  0
   -0.4684   -0.5644   -9.7300 C   0  0  0  0  0  0  0  0  0  0  0  0
   -0.5982   -2.4921   -7.0153 C   0  0  0  0  0  0  0  0  0  0  0  0
   -0.8562   -2.3174   -5.2774 S   0  0  0  0  0  0  0  0  0  0  0  0
    0.1488   -0.9192   -5.2526 C   0  0  0  0  0  0  0  0  0  0  0  0
    0.6056   -0.0059   -4.3004 C   0  0  0  0  0  0  0  0  0  0  0  0
    0.5127    0.1784   -2.9459 N   0  0  0  0  0  0  0  0  0  0  0  0
    1.2883    1.2702   -2.6141 C   0  0  0  0  0  0  0  0  0  0  0  0
    1.5742    1.8981   -1.3761 C   0  0  0  0  0  0  0  0  0  0  0  0
    1.0434    1.7504   -0.1085 N   0  0  0  0  0  0  0  0  0  0  0  0
    1.8148    2.4899    0.7577 C   0  0  0  0  0  0  0  0  0  0  0  0
    1.7900    2.7035    2.1323 C   0  0  0  0  0  0  0  0  0  0  0  0
   -0.3238    1.4439    0.2562 C   0  0  0  0  0  0  0  0  0  0  0  0
   -1.1332    2.7203    0.4868 C   0  0  0  0  0  0  0  0  0  0  0  0
   -0.0148   -0.8701   -2.0992 C   0  0  0  0  0  0  0  0  0  0  0  0
   -1.5420   -0.9319   -2.1305 C   0  0  0  0  0  0  0  0  0  0  0  0
   -1.1423   -3.5027   -7.8069 C   0  0  0  0  0  0  0  0  0  0  0  0
   -1.9935   -4.5400   -7.4931 C   0  0  0  0  0  0  0  0  0  0  0  0
   -2.5727   -4.8145   -6.1800 C   0  0  0  0  0  0  0  0  0  0  0  0
   -2.3948   -4.2092   -5.1370 O   0  0  0  0  0  0  0  0  0  0  0  0
   -3.4409   -5.9977   -6.3560 C   0  0  0  0  0  0  0  0  0  0  0  0
   -4.2142   -6.6420   -5.4119 C   0  0  0  0  0  0  0  0  0  0  0  0
   -4.9488   -7.7416   -5.8259 C   0  0  0  0  0  0  0  0  0  0  0  0
   -5.7140   -8.3977   -4.9447 F   0  0  0  0  0  0  0  0  0  0  0  0
   -4.8983   -8.1704   -7.1518 C   0  0  0  0  0  0  0  0  0  0  0  0
   -5.6184   -9.2345   -7.5246 F   0  0  0  0  0  0  0  0  0  0  0  0
   -4.1195   -7.5221   -8.0996 C   0  0  0  0  0  0  0  0  0  0  0  0
   -3.3819   -6.4214   -7.6938 C   0  0  0  0  0  0  0  0  0  0  0  0
   -2.4779   -5.5331   -8.4283 C   0  0  0  0  0  0  0  0  0  0  0  0
   -2.1627   -5.6600   -9.7572 C   0  0  0  0  0  0  0  0  0  0  0  0
   -1.2867   -4.8252  -10.4817 C   0  0  0  0  0  0  0  0  0  0  0  0
   -0.5876   -4.1964  -11.1423 N   0  0  0  0  0  0  0  0  0  0  0  0
   -2.6787   -6.6682  -10.5988 C   0  0  0  0  0  0  0  0  0  0  0  0
   -3.0630   -7.4587  -11.3370 N   0  0  0  0  0  0  0  0  0  0  0  0
    3.9673    4.6771    3.8736 H   0  0  0  0  0  0  0  0  0  0  0  0
    0.2984    0.9057    7.2830 H   0  0  0  0  0  0  0  0  0  0  0  0
    3.6685    4.1478    9.2271 H   0  0  0  0  0  0  0  0  0  0  0  0
    2.9438    1.6557   11.4742 H   0  0  0  0  0  0  0  0  0  0  0  0
    1.8021    3.5160   12.6719 H   0  0  0  0  0  0  0  0  0  0  0  0
    0.3759    4.7841   10.8850 H   0  0  0  0  0  0  0  0  0  0  0  0
   -1.4211    3.0924    9.9019 H   0  0  0  0  0  0  0  0  0  0  0  0
   -1.1034    0.7819   11.0856 H   0  0  0  0  0  0  0  0  0  0  0  0
    0.7706    1.0508   12.9994 H   0  0  0  0  0  0  0  0  0  0  0  0
   -0.4939    2.2935   13.1719 H   0  0  0  0  0  0  0  0  0  0  0  0
    1.1970    0.0066   10.5305 H   0  0  0  0  0  0  0  0  0  0  0  0
    0.8051   -2.2782   -9.4384 H   0  0  0  0  0  0  0  0  0  0  0  0
    1.5481   -0.7336   -9.0022 H   0  0  0  0  0  0  0  0  0  0  0  0
   -0.6339    0.4167   -9.2913 H   0  0  0  0  0  0  0  0  0  0  0  0
   -1.4044   -1.1178   -9.7078 H   0  0  0  0  0  0  0  0  0  0  0  0
   -0.1678   -0.4379  -10.7659 H   0  0  0  0  0  0  0  0  0  0  0  0
    1.0829    2.2638    2.8131 H   0  0  0  0  0  0  0  0  0  0  0  0
   -0.7935    0.8798   -0.5409 H   0  0  0  0  0  0  0  0  0  0  0  0
   -0.3104    0.8412    1.1690 H   0  0  0  0  0  0  0  0  0  0  0  0
   -1.1211    3.3407   -0.4072 H   0  0  0  0  0  0  0  0  0  0  0  0
   -0.7281    3.2963    1.3139 H   0  0  0  0  0  0  0  0  0  0  0  0
   -2.1628    2.4604    0.7172 H   0  0  0  0  0  0  0  0  0  0  0  0
    0.3763   -1.8239   -2.4704 H   0  0  0  0  0  0  0  0  0  0  0  0
    0.3669   -0.7280   -1.0876 H   0  0  0  0  0  0  0  0  0  0  0  0
   -1.8956   -1.6027   -1.3530 H   0  0  0  0  0  0  0  0  0  0  0  0
   -1.8840   -1.3127   -3.0884 H   0  0  0  0  0  0  0  0  0  0  0  0
   -1.9884    0.0487   -1.9799 H   0  0  0  0  0  0  0  0  0  0  0  0
   -0.8388   -3.4435   -8.8430 H   0  0  0  0  0  0  0  0  0  0  0  0
   -4.2497   -6.3062   -4.3880 H   0  0  0  0  0  0  0  0  0  0  0  0
   -4.1170   -7.8952   -9.1102 H   0  0  0  0  0  0  0  0  0  0  0  0
  1  2  2  0  0  0  0
  2  3  1  0  0  0  0
  3  4  2  0  0  0  0
  3  5  1  0  0  0  0
  5  6  2  0  0  0  0
  6  7  1  0  0  0  0
  7  8  2  0  0  0  0
  8  9  1  0  0  0  0
  9 10  2  0  0  0  0
 10 11  1  0  0  0  0
 11 12  2  0  0  0  0
 12 13  1  0  0  0  0
 13 14  3  0  0  0  0
 12 15  1  0  0  0  0
 15 16  3  0  0  0  0
  8 17  1  0  0  0  0
 17 18  1  0  0  0  0
 18 19  1  0  0  0  0
 19 20  2  0  0  0  0
 20 21  1  0  0  0  0
 21 22  1  0  0  0  0
 21 23  1  0  0  0  0
  1 24  1  0  0  0  0
 24 25  1  0  0  0  0
 25 26  1  0  0  0  0
 26 27  1  0  0  0  0
 27 28  1  0  0  0  0
 28 29  1  0  0  0  0
 29 30  2  0  0  0  0
 30 31  1  0  0  0  0
 31 32  1  0  0  0  0
 29 33  1  0  0  0  0
 33 34  1  0  0  0  0
 34 35  1  0  0  0  0
 35 36  1  0  0  0  0
 36 37  1  0  0  0  0
 37 38  1  0  0  0  0
 38 39  1  0  0  0  0
 37 40  2  0  0  0  0
 40 41  1  0  0  0  0
 41 42  1  0  0  0  0
 42 43  1  0  0  0  0
 43 44  1  0  0  0  0
 44 45  1  0  0  0  0
 45 46  1  0  0  0  0
 46 47  1  0  0  0  0
 47 48  1  0  0  0  0
 48 49  1  0  0  0  0
 47 50  1  0  0  0  0
 50 51  1  0  0  0  0
 44 52  1  0  0  0  0
 52 53  1  0  0  0  0
 40 54  1  0  0  0  0
 54 55  2  0  0  0  0
 55 56  1  0  0  0  0
 56 57  2  0  0  0  0
 56 58  1  0  0  0  0
 58 59  2  0  0  0  0
 59 60  1  0  0  0  0
 60 61  1  0  0  0  0
 60 62  2  0  0  0  0
 62 63  1  0  0  0  0
 62 64  1  0  0  0  0
 64 65  2  0  0  0  0
 65 66  1  0  0  0  0
 66 67  2  0  0  0  0
 67 68  1  0  0  0  0
 68 69  3  0  0  0  0
 67 70  1  0  0  0  0
 70 71  3  0  0  0  0
 11  2  1  0  0  0  0
 23 17  1  0  0  0  0
 49 24  2  0  0  0  0
 66 55  1  0  0  0  0
 10  5  1  0  0  0  0
 22 18  1  0  0  0  0
 48 26  2  0  0  0  0
 65 58  1  0  0  0  0
 23  7  1  0  0  0  0
 46 27  2  0  0  0  0
 32 28  2  0  0  0  0
 45 33  2  0  0  0  0
 43 34  2  0  0  0  0
 42 36  2  0  0  0  0
  1 72  1  0  0  0  0
  6 73  1  0  0  0  0
  9 74  1  0  0  0  0
 17 75  1  0  0  0  0
 18 76  1  0  0  0  0
 19 77  1  0  0  0  0
 20 78  1  0  0  0  0
 21 79  1  0  0  0  0
 22 80  1  0  0  0  0
 22 81  1  0  0  0  0
 23 82  1  0  0  0  0
 38 83  1  0  0  0  0
 38 84  1  0  0  0  0
 39 85  1  0  0  0  0
 39 86  1  0  0  0  0
 39 87  1  0  0  0  0
 49 88  1  0  0  0  0
 50 89  1  0  0  0  0
 50 90  1  0  0  0  0
 51 91  1  0  0  0  0
 51 92  1  0  0  0  0
 51 93  1  0  0  0  0
 52 94  1  0  0  0  0
 52 95  1  0  0  0  0
 53 96  1  0  0  0  0
 53 97  1  0  0  0  0
 53 98  1  0  0  0  0
 54 99  1  0  0  0  0
 59100  1  0  0  0  0
 64101  1  0  0  0  0
M  END
