124

C          3.42030        3.44480       -4.91100
C          3.48960        3.04980       -6.22430
C          2.88770        1.84990       -6.81730
O          2.27480        0.96410       -6.24950
C          3.16460        1.92000       -8.26370
C          2.75510        1.01420       -9.23820
C          3.14610        1.34970      -10.51230
C          3.88560        2.50510      -10.79540
C          4.29550        3.40680       -9.84210
C          3.91360        3.08120       -8.53760
C          4.15410        3.78750       -7.27950
C          4.89850        4.93510       -7.15340
C          5.53590        5.59820       -8.22240
N          6.08740        6.19680       -9.03280
C          5.16410        5.62650       -5.95450
N          5.43800        6.25480       -5.03100
C          3.92440        2.21480      -12.27490
C          5.23910        1.64870      -12.86550
C          5.93660        0.92380      -11.74140
C          5.23940       -0.17180      -11.47210
C          4.05790       -0.20770      -12.40960
C          4.67730        0.45310      -13.65140
C          3.10280        0.92530      -11.95900
C          2.80590        2.86110       -3.79580
C          2.82960        3.45740       -2.51600
C          3.49450        4.77140       -2.23160
C          5.00380        4.61790       -2.01540
C          2.14060        2.66970       -1.59610
C          1.57740        1.51560       -2.16770
S          1.90630        1.34200       -3.83410
C          0.87230        0.84520       -1.15710
C          0.20670       -0.39560       -1.13720
N          0.01310       -1.33700       -2.06280
N         -0.63330       -2.28010       -1.42590
C         -0.99720       -3.50950       -2.06830
C          0.12040       -4.53890       -1.92800
N         -0.89450       -2.06340       -0.16100
C         -0.37300       -0.85840        0.07480
C         -0.39980       -0.00680        1.19680
C         -1.08340       -0.09330        2.41330
S         -2.04910       -1.22650        3.24990
C         -2.34080       -0.01740        4.50070
C         -1.70100        1.21690        4.24700
C         -1.94770        2.42910        5.09420
C         -3.27290        3.09340        4.70500
C         -0.95370        1.14810        3.06840
N         -0.14160        1.96450        2.30610
C          0.07590        3.36050        2.59170
C          1.13780        3.57570        3.67370
C          0.21460        1.27760        1.15650
C          0.97100        1.64220        0.01500
N          1.79890        2.74210       -0.25110
C          2.79250        3.22940        0.69290
C          3.57290        2.07990        1.32880
C         -3.12390       -0.24200        5.63990
C         -3.79250       -1.35580        6.08540
C         -3.85280       -2.67100        5.43740
O         -3.35510       -3.00580        4.37800
C         -4.64240       -3.53660        6.33310
C         -4.94550       -4.88250        6.14160
C         -5.69010       -5.43680        7.15500
C         -6.10770       -4.70350        8.27310
C         -5.81930       -3.37410        8.47110
C         -5.05600       -2.79150        7.45440
C         -4.54630       -1.42690        7.32050
C         -4.76110       -0.41610        8.22610
C         -5.50950       -0.54980        9.41360
N         -6.10210       -0.57190       10.39750
C         -4.28060        0.90520        8.12880
N         -3.93220        2.00140        8.13990
C         -6.80280       -5.89050        8.89270
C         -6.06660       -6.58850       10.05570
C         -6.71760       -7.95070       10.13070
C         -6.32130       -8.64600        9.07230
C         -5.39570       -7.76530        8.26430
C         -4.73450       -6.96890        9.39660
C         -6.33610       -6.70880        7.64620
H          3.91640        4.37940       -4.69000
H          2.18020        0.14020       -8.97440
H          4.85940        4.29280      -10.08070
H          3.46880        2.96400      -12.91940
H          5.83630        2.37270      -13.41320
H          6.80550        1.30070      -11.23440
H          5.40920       -0.89360      -10.69470
H          3.57990       -1.17480      -12.54300
H          5.45680       -0.15510      -14.10790
H          3.94270        0.73570      -14.40440
H          2.11190        0.83170      -12.39960
H          3.03390        5.22390       -1.35130
H          3.33130        5.46100       -3.06140
H          5.22090        3.92230       -1.20680
H          5.44240        5.58260       -1.77540
H          5.48120        4.24480       -2.91730
H         -1.18140       -3.28680       -3.12100
H         -1.91030       -3.86970       -1.59080
H          1.03180       -4.16570       -2.38840
H          0.31170       -4.74120       -0.87700
H         -0.16680       -5.46520       -2.41740
H         -1.14580        3.15250        4.97480
H         -1.98220        2.16400        6.15190
H         -3.44320        3.96960        5.32470
H         -4.10300        2.40660        4.84760
H         -3.25990        3.39790        3.65980
H          0.34850        3.85960        1.66050
H         -0.87280        3.79450        2.92210
H          1.29440        4.64010        3.83080
H          0.82470        3.13020        4.61410
H          2.08240        3.11520        3.40190
H          2.33400        3.85220        1.45820
H          3.48530        3.85530        0.13620
H          2.91610        1.42740        1.89980
H          4.34060        2.47410        1.99020
H          4.05360        1.48330        0.55610
H         -3.20130        0.61820        6.28880
H         -4.60550       -5.40610        5.26190
H         -6.15190       -2.82700        9.33690
H         -7.87030       -5.77660        9.07160
H         -6.02430       -6.01430       10.97730
H         -7.42000       -8.23900       10.89070
H         -6.62670       -9.63110        8.77160
H         -4.74150       -8.26440        7.55430
H         -4.14820       -6.11720        9.05660
H         -4.12220       -7.59890       10.03990
H         -7.09260       -7.14170        6.99410
