188

C          3.75500        4.24420        7.14410
C          3.26570        3.96990        8.38270
C          4.12130        4.17720        9.58250
O          5.14750        4.81630        9.63920
C          3.48250        3.38740       10.65340
C          3.98010        3.14000       11.93160
C          3.17410        2.33500       12.70020
C          1.96060        1.80840       12.23640
C          1.45110        2.05210       10.98330
C          2.25470        2.87200       10.18690
C          2.02810        3.36800        8.83200
C          0.80250        3.49690        8.23190
C         -0.39900        3.00250        8.77310
N         -1.40970        2.61400        9.15660
C          0.58450        4.23820        7.05100
N          0.35290        4.88040        6.12800
C          1.69340        1.07430       13.52670
C          1.96170       -0.44570       13.52490
C          2.08250       -0.79350       14.99110
C          3.22990       -0.29320       15.43130
C          3.90400        0.40130       14.27000
C          3.44010       -0.50020       13.11860
C          3.04440        1.66360       14.04510
C          3.30750        3.75600        5.89450
C          3.58400        4.30500        4.65550
C          2.98730        3.59070        3.62210
S          2.88110        3.81050        1.89830
C          1.88220        2.39990        1.79450
C          1.16410        1.72910        0.75590
C          1.10610        1.96330       -0.61500
C          0.33980        1.10230       -1.36550
C          0.05410        1.15250       -2.86090
C         -0.85920        2.37740       -2.96560
C         -0.33140        3.63800       -3.21380
C         -1.15320        4.74770       -3.28400
C         -2.52170        4.64140       -3.07980
C         -3.42380        5.83170       -3.23060
C         -3.98700        5.89570       -4.65220
C         -3.03890        3.39170       -2.76770
C         -2.22080        2.27930       -2.70080
C          1.29680        1.26800       -3.71440
C          2.51180        0.78300       -3.24900
C          3.68130        1.02700       -3.94530
C          3.67280        1.76090       -5.12350
C          4.95380        2.14220       -5.81270
C          5.26190        1.25800       -7.02080
C          2.44360        2.15870       -5.63440
C          1.26990        1.90680       -4.94870
C         -0.72270       -0.13150       -3.05790
C         -1.02450       -0.66830       -1.80460
C         -0.37660        0.04860       -0.75680
C         -0.33830       -0.17300        0.61780
C          0.43930        0.67600        1.36770
C          0.70230        0.63040        2.86300
C          1.27750       -0.72770        3.20760
C          0.42620       -1.79510        3.46560
C          0.93760       -3.05010        3.73300
C          2.30870       -3.27380        3.74900
C          2.85800       -4.64960        3.99290
C          2.95920       -5.42300        2.67640
C          3.15420       -2.20520        3.48450
C          2.64720       -0.94730        3.21340
C         -0.48540        0.99820        3.73580
C         -0.43900        0.71120        5.09490
C         -1.44670        1.14080        5.93550
C         -2.51410        1.88360        5.44720
C         -3.61140        2.33250        6.36660
C         -4.70450        1.26570        6.45680
C         -2.55520        2.16420        4.08840
C         -1.55200        1.73250        3.23940
C          1.66470        1.77560        3.01100
C          2.28180        2.45400        4.05560
S          2.36430        2.27390        5.76150
S         -2.04560       -2.05490       -1.84160
C         -2.04830       -1.94740       -3.56270
C         -2.58240       -2.71240       -4.61450
C         -2.13030       -2.19420       -5.83360
C         -1.17920       -1.04060       -5.59130
C         -1.28510       -0.88880       -4.08410
C          0.24960       -1.53490       -5.84360
C          1.18570       -0.77300       -6.52240
C          2.47430       -1.24250       -6.70100
C          2.86810       -2.47320       -6.20010
C          4.28530       -2.94890       -6.33760
C          5.08820       -2.57930       -5.08870
C          1.92640       -3.23460       -5.52040
C          0.63730       -2.77450       -5.34510
C         -1.58740        0.14550       -6.42890
C         -1.39270        0.13280       -7.80630
C         -1.77430        1.21310       -8.57880
C         -2.36940        2.32980       -8.00420
C         -2.71360        3.53590       -8.82900
C         -1.56100        4.54200       -8.79860
C         -2.59650        2.32130       -6.63560
C         -2.22240        1.23880       -5.86120
C         -2.60870       -2.89510       -6.92160
C         -3.39460       -3.98630       -6.55400
S         -3.58720       -4.08180       -4.80530
C         -4.03000       -4.87510       -7.43700
C         -4.56390       -6.10900       -7.18750
C         -5.60230       -6.65710       -8.09130
O         -5.91370       -6.24350       -9.18540
C         -6.21030       -7.78060       -7.33880
C         -7.30200       -8.55330       -7.67480
C         -7.69500       -9.53650       -6.77350
Cl        -9.05390      -10.53030       -7.14430
C         -7.01590       -9.73320       -5.57670
C         -5.91220       -8.95880       -5.25140
C         -5.50300       -7.97620       -6.13860
C         -4.37990       -7.04160       -6.10080
C         -3.23550       -7.21700       -5.36370
C         -2.05000       -6.48460       -5.57790
N         -1.04890       -5.94970       -5.75340
C         -3.07970       -8.21600       -4.38360
N         -2.90470       -9.00080       -3.56370
H          4.65030        4.85810        7.12010
H          4.91850        3.56380       12.25310
H          0.51910        1.64060       10.63150
H          0.77440        1.34380       14.04350
H          1.25850       -1.03150       12.93930
H          1.32040       -1.30230       15.55170
H          3.61780       -0.30060       16.43300
H          4.97060        0.58680       14.36310
H          3.64380       -0.09640       12.12860
H          3.85040       -1.50610       13.19290
H          3.02630        2.32600       14.90830
H          4.15150        5.20880        4.52910
H          1.65820        2.77540       -1.06240
H          0.73050        3.76050       -3.36390
H         -0.71880        5.71420       -3.49660
H         -2.86770        6.74760       -3.02220
H         -4.25020        5.76360       -2.52020
H         -4.63280        6.76300       -4.76730
H         -4.56750        5.00150       -4.87010
H         -3.17810        5.96760       -5.37670
H         -4.09640        3.28400       -2.57240
H         -2.65800        1.32690       -2.43590
H          2.55110        0.23840       -2.31660
H          4.62000        0.67430       -3.54140
H          5.78030        2.07380       -5.10220
H          4.88140        3.18050       -6.14640
H          4.46100        1.32210       -7.75430
H          5.37500        0.22120       -6.71350
H          6.18710        1.57900       -7.49460
H          2.40480        2.69920       -6.57000
H          0.32790        2.24100       -5.36000
H         -0.89280       -0.98440        1.06280
H         -0.64260       -1.63710        3.47280
H          0.26190       -3.86880        3.93590
H          3.84870       -4.57890        4.44630
H          2.20540       -5.19280        4.67940
H          3.61540       -4.90300        1.98190
H          3.35630       -6.42020        2.85010
H          1.97850       -5.51480        2.21500
H          4.22430       -2.35710        3.49160
H          3.32520       -0.13140        3.00700
H          0.39200        0.14700        5.49480
H         -1.39930        0.91020        6.98970
H         -3.20250        2.51310        7.36240
H         -4.04460        3.26420        5.99750
H         -5.13240        1.07550        5.47450
H         -5.49770        1.59160        7.12520
H         -4.29120        0.33440        6.83710
H         -3.37630        2.74160        3.68800
H         -1.59550        1.97590        2.18720
H          0.91830        0.19140       -6.92230
H          3.18100       -0.63580       -7.24510
H          4.74770       -2.49150       -7.21480
H          4.30220       -4.03270       -6.46830
H          6.12310       -2.89840       -5.19040
H          4.66080       -3.05740       -4.21030
H          5.06530       -1.50300       -4.93210
H          2.19810       -4.20400       -5.12960
H         -0.06850       -3.40230       -4.82290
H         -0.92740       -0.72210       -8.27460
H         -1.60650        1.18920       -9.64630
H         -3.61440        4.00990       -8.43360
H         -2.90720        3.23960       -9.86170
H         -1.80780        5.42350       -9.38560
H         -0.65790        4.09400       -9.20740
H         -1.35620        4.85040       -7.77540
H         -3.07070        3.16910       -6.16240
H         -2.42560        1.25250       -4.80360
H         -2.38900       -2.67780       -7.95070
H         -4.18900       -4.50040       -8.44400
H         -7.82540       -8.39520       -8.60440
H         -7.35380      -10.49880       -4.89610
H         -5.40060       -9.12180       -4.31650
