130

C          3.09730        6.54380        1.69240
C          2.90570        6.56050        3.03970
C          3.92190        7.16240        3.94170
O          4.83300        7.89360        3.62520
C          3.61450        6.62250        5.28250
C          4.35530        6.79000        6.45020
C          3.83120        6.14450        7.54460
C          2.65490        5.38410        7.48870
C          1.90600        5.21900        6.34800
C          2.42320        5.86770        5.22470
C          1.88870        5.95590        3.87010
C          0.57820        5.77020        3.50910
C          0.07210        6.20420        2.26660
N         -0.37320        6.59900        1.28440
C         -0.40940        5.21610        4.34410
N         -1.24620        4.73370        4.96550
C          2.73240        5.00990        8.94720
C          3.23180        3.58730        9.30230
C          4.12520        3.14940        8.16840
C          5.23560        3.87250        8.22490
C          5.11290        4.81310        9.39810
C          4.29000        3.94070       10.35960
C          4.03970        5.86090        9.01150
C          2.52640        5.67680        0.73370
C          2.53000        5.87950       -0.64230
C          2.96160        7.15660       -1.22430
C          2.25870        8.29730       -0.83610
C          2.60650        9.53840       -1.32930
C          3.67760        9.65200       -2.20040
C          4.38570        8.52520       -2.57190
C          4.04200        7.26270       -2.10220
C          4.86780        6.07440       -2.51300
C          4.79310        5.81990       -4.01870
C          1.96930        4.79160       -1.32520
S          1.65280        4.47630       -3.01490
C          0.98030        2.94440       -2.58140
C          0.45810        1.79880       -3.19750
C          0.38960        1.43180       -4.55970
C         -0.02480        0.10130       -4.89630
N          0.02970       -0.13150       -6.19810
S          0.55060        1.21070       -6.93780
N          0.73170        2.13960       -5.62460
C         -0.47590       -0.75410       -3.86640
C         -1.03510       -2.03750       -3.91810
S         -1.38360       -3.26580       -5.08530
C         -2.09240       -4.23090       -3.80340
C         -2.70130       -5.47660       -3.79090
C         -2.93020       -6.33130       -4.96460
C         -1.88070       -6.98730       -5.61090
C         -0.47440       -6.92280       -5.08770
C         -0.29450       -7.90360       -3.92650
C         -2.17710       -7.78770       -6.70570
C         -3.47430       -7.93700       -7.15900
C         -4.51020       -7.28580       -6.51250
C         -4.23760       -6.49070       -5.41690
C         -3.13680       -5.82900       -2.49770
S         -2.79340       -4.57110       -1.31320
C         -2.05380       -3.60980       -2.53900
C         -1.43890       -2.35870       -2.61610
N         -1.12030       -1.33780       -1.75570
C         -0.51170       -0.34090       -2.50150
C          0.08590        0.89930       -2.15480
N          0.43380        1.47230       -0.94720
C          0.97140        2.70310       -1.20240
C          1.55140        3.75130       -0.48400
S          1.86740        4.10560        1.17360
C          0.52800        0.91590        0.38210
C         -0.55700        1.46610        1.30740
C         -1.88240       -1.23480       -0.52780
C         -3.18270       -0.46800       -0.75910
C         -3.69190       -7.08050       -2.23360
C         -4.16560       -7.62310       -1.06100
C         -4.30080       -6.91880        0.21190
O         -3.94380       -5.78450        0.47620
C         -4.97940       -7.86450        1.12510
C         -5.20900       -9.07820        0.44980
C         -5.84760      -10.12120        1.09990
C         -6.24640       -9.93930        2.41660
C         -6.01340       -8.74440        3.07880
Br        -6.57740       -8.56070        4.87350
C         -5.37130       -7.67750        2.44000
Cl        -5.08320       -6.19950        3.25420
C         -4.67420       -8.96590       -0.90790
C         -4.62630       -9.98380       -1.82740
C         -4.02990       -9.91150       -3.10430
N         -3.55270       -9.95070       -4.14890
C         -5.14360      -11.27610       -1.60150
N         -5.54530      -12.34490       -1.48040
H          3.84930        7.22870        1.31190
H          5.25510        7.38510        6.45560
H          1.00260        4.63190        6.30990
H          1.89080        5.31920        9.56360
H          2.44730        2.89290        9.59110
H          3.84300        2.42170        7.43020
H          6.06630        3.86980        7.54360
H          6.04110        5.23480        9.77460
H          3.88780        4.49140       11.20870
H          4.83980        3.06970       10.71290
H          4.05050        6.72820        9.66860
H          1.42460        8.19060       -0.15770
H          2.05070       10.41340       -1.02860
H          3.96630       10.62000       -2.58210
H          5.23510        8.62410       -3.23190
H          5.90980        6.25990       -2.23640
H          4.53720        5.18320       -1.97760
H          3.76310        5.66070       -4.32750
H          5.18900        6.66580       -4.57440
H          5.37230        4.93690       -4.27810
H         -0.23330       -5.91350       -4.75110
H          0.21900       -7.18590       -5.88810
H         -0.90720       -7.61040       -3.07660
H         -0.59330       -8.90420       -4.23010
H          0.74550       -7.92860       -3.60930
H         -1.37310       -8.30910       -7.20410
H         -3.67890       -8.56790       -8.01050
H         -5.52750       -7.40060       -6.85480
H         -5.03810       -5.97670       -4.90310
H          1.50660        1.19980        0.78570
H          0.50790       -0.17250        0.31510
H         -0.41760        2.53470        1.44880
H         -0.49610        0.98370        2.27900
H         -1.55060        1.31050        0.89640
H         -2.10880       -2.25620       -0.21190
H         -1.30520       -0.76110        0.25850
H         -2.97600        0.54490       -1.09970
H         -3.75240       -0.42070        0.16470
H         -3.78690       -0.96740       -1.51280
H         -3.74680       -7.70970       -3.11420
H         -6.04390      -11.06070        0.61140
H         -6.74750      -10.73900        2.93980
