116

C         -1.54290        5.91790       -5.19120
C         -1.05530        6.96380       -4.46360
C         -1.37480        8.36610       -4.82820
O         -1.89860        8.75130       -5.85010
C         -0.96850        9.17650       -3.66030
C         -1.14880       10.54570       -3.47950
C         -0.66900       11.02220       -2.28270
C         -0.05420       10.19910       -1.32970
C          0.13630        8.84820       -1.49560
C         -0.34370        8.34480       -2.70720
C         -0.26800        6.99170       -3.25200
C          0.60530        6.01620       -2.83670
C          0.88000        4.85620       -3.58890
N          1.19060        3.93150       -4.19600
C          1.37990        6.08420       -1.66410
N          2.00110        6.05850       -0.69780
C          0.17850       11.34190       -0.37410
C         -0.76380       11.46890        0.84810
C         -2.06870       10.82370        0.45290
C         -2.64960       11.60360       -0.44900
C         -1.74810       12.79080       -0.67970
C         -1.14750       12.95220        0.72610
C         -0.50500       12.26000       -1.43580
C         -1.66500        4.57720       -4.75790
Se        -1.48360        3.13640       -5.99380
C         -1.65920        2.03740       -4.53000
C         -1.63020        0.67570       -4.19170
C         -1.52880       -0.48130       -4.99110
C         -1.55610       -1.77080       -4.36080
N         -1.49810       -2.76030       -5.23870
S         -1.41150       -2.12520       -6.72520
N         -1.44680       -0.55910       -6.30940
C         -1.56410       -1.83690       -2.94910
C         -1.38360       -2.91390       -2.06630
S         -1.13910       -4.62610       -2.13000
C         -0.89210       -4.62930       -0.40170
C         -0.58130       -5.66860        0.50860
C         -0.43940       -7.08680        0.05170
C         -1.72190       -7.87930        0.30430
C         -0.47650       -5.19400        1.78470
S         -0.76960       -3.46540        1.88260
C         -1.01580       -3.37110        0.17610
C         -1.29650       -2.38040       -0.77800
N         -1.44210       -1.01980       -0.82400
C         -1.61950       -0.66110       -2.14940
C         -1.78360        0.59450       -2.78340
N         -1.97130        1.87240       -2.28380
C         -1.86330        2.75210       -3.33810
C         -1.85810        4.13970       -3.45740
C         -2.73490        2.24910       -1.11480
C         -4.16870        2.63120       -1.48650
C         -1.03530       -0.20700        0.30180
C         -2.07240       -0.21280        1.42470
C         -0.22760       -5.93420        3.07180
C          0.67290       -7.11980        2.90770
C          2.00420       -6.98400        2.90920
C          2.64510       -5.69950        3.03010
C          3.94510       -5.48750        2.62540
C          4.59940       -4.19790        2.85130
O          4.02280       -3.18350        3.19610
N          5.97710       -4.16540        2.66660
C          6.63850       -2.89980        2.96750
C          7.06050       -2.82590        4.42870
C          6.73200       -5.23710        2.28890
S          8.38040       -5.15240        2.27340
N          6.08060       -6.37180        1.89910
C          4.70130       -6.53490        1.93260
O          4.20480       -7.51670        1.41480
C          6.85330       -7.47140        1.33030
C          7.12520       -7.25080       -0.15140
C          1.83170       -4.60560        3.64450
C          0.45270       -5.04710        4.12160
H         -1.91470        6.16000       -6.18250
H         -1.62130       11.14730       -4.24010
H          0.60980        8.22300       -0.75630
H          1.21720       11.54310       -0.11920
H         -0.33020       11.13900        1.78850
H         -2.39780        9.86730        0.81560
H         -3.56080       11.42910       -0.99070
H         -2.21140       13.66500       -1.12940
H         -1.88450       13.25930        1.46660
H         -0.29180       13.62520        0.75760
H          0.08790       13.06120       -1.87280
H          0.40150       -7.56140        0.55890
H         -0.22990       -7.07790       -1.01980
H         -1.60630       -8.90130       -0.04700
H         -2.55530       -7.42410       -0.22600
H         -1.96140       -7.90090        1.36520
H         -2.00970        4.82370       -2.63870
H         -2.77450        1.40920       -0.43030
H         -2.23580        3.09100       -0.62380
H         -4.72390        2.88640       -0.58770
H         -4.66270        1.79490       -1.97680
H         -4.18610        3.48320       -2.16070
H         -0.82120        0.80300       -0.04830
H         -0.10060       -0.62430        0.69420
H         -1.76780        0.47790        2.20580
H         -2.15040       -1.20670        1.85640
H         -3.05910        0.07370        1.06730
H         -1.19940       -6.26820        3.46060
H          0.22430       -8.09860        2.83080
H          2.62970       -7.85270        2.77770
H          7.50690       -2.80720        2.31390
H          5.91980       -2.10930        2.74440
H          7.77110       -3.61590        4.65920
H          7.53200       -1.86670        4.62070
H          6.19210       -2.92500        5.07570
H          7.78980       -7.54820        1.88520
H          6.26290       -8.37790        1.47160
H          7.68560       -8.09320       -0.54570
H          7.70810       -6.34500       -0.30070
H          6.18780       -7.16670       -0.69600
H          1.73390       -3.81070        2.89920
H          2.38600       -4.15370        4.47000
H         -0.15620       -4.16640        4.33170
H          0.54540       -5.62190        5.04600
