91

C          2.57550       -4.07890        2.74370
C          3.78670       -3.88170        2.14100
C          4.28810       -2.68580        1.42420
O          3.93910       -1.52580        1.52840
C          5.34630       -3.17650        0.52450
C          5.99690       -2.44520       -0.46750
C          6.89150       -3.18090       -1.20540
C          7.12900       -4.54270       -0.97130
C          6.51350       -5.26890        0.02080
C          5.59450       -4.53880        0.78110
C          4.73170       -4.95970        1.88050
C          4.84240       -6.13150        2.57840
C          4.07340       -6.47090        3.71290
N          3.50600       -6.80440        4.65360
C          5.79360       -7.13360        2.29290
N          6.54100       -7.98490        2.10750
C          8.10550       -4.64940       -2.11660
C          7.57570       -5.30670       -3.40940
C          8.54680       -4.84770       -4.47330
C          8.32770       -3.55720       -4.69040
C          7.20500       -3.12230       -3.77660
C          6.37530       -4.41240       -3.74650
C          7.84540       -3.13010       -2.37200
C          1.47900       -3.20240        2.88310
S         -0.09200       -3.95400        3.23180
C         -0.86770       -2.44500        3.00770
C         -2.14940       -1.88060        2.93610
C         -3.42920       -2.43060        3.16940
C         -4.58590       -1.60410        2.97970
N         -5.71250       -2.23850        3.26270
S         -5.35000       -3.74610        3.72740
N         -3.74190       -3.64950        3.57990
C         -4.41460       -0.30300        2.45600
C         -5.34430        0.61160        1.94480
C         -4.61460        1.66690        1.37200
N         -3.27360        1.45580        1.56030
C         -2.31340        2.24200        0.81940
C         -1.69720        1.44630       -0.32880
C         -3.11980        0.24380        2.20940
C         -1.97580       -0.51360        2.56680
N         -0.61800       -0.24130        2.50880
C          0.05100       -1.41630        2.74290
C          1.37570       -1.83520        2.68890
C          0.07720        1.01870        2.67300
C         -0.46980        1.81020        3.85780
C         -5.39750        2.60540        0.70920
C         -6.74130        2.27410        0.76830
S         -7.02920        0.79140        1.70270
C         -7.86740        2.87240        0.17080
C         -7.96750        3.88540       -0.73960
S         -9.56610        4.30510       -1.35440
C         -8.89250        5.45880       -2.47730
C         -9.70790        6.15050       -3.33840
C         -9.30850        7.08990       -4.30340
N         -9.05080        7.85800       -5.11820
C        -11.09950        5.92210       -3.30390
N        -12.23230        5.74330       -3.28590
N         -7.54320        5.53780       -2.34260
C         -6.68020        6.38510       -3.14550
C         -6.32360        5.72420       -4.47180
C         -6.95980        4.70320       -1.39630
O         -5.75960        4.71830       -1.20080
H          2.35850       -5.09050        3.06780
H          5.77990       -1.39920       -0.61780
H          6.70610       -6.31510        0.19110
H          9.11190       -4.97120       -1.85730
H          7.39910       -6.37630       -3.33660
H          9.30430       -5.47510       -4.90480
H          8.86550       -2.89080       -5.33900
H          6.69030       -2.20130       -4.03750
H          5.59020       -4.41870       -2.99250
H          5.94700       -4.64870       -4.71920
H          8.67820       -2.43590       -2.27880
H         -2.86040        3.09360        0.41080
H         -1.55100        2.64010        1.48890
H         -2.47430        1.14420       -1.02710
H         -1.19710        0.55060        0.03140
H         -0.97610        2.06160       -0.86010
H          2.22970       -1.21930        2.48050
H          1.12290        0.76850        2.86220
H          0.05100        1.60430        1.75270
H          0.07870        2.74230        3.96380
H         -0.35450        1.23520        4.77400
H         -1.52590        2.03720        3.73210
H         -5.05010        3.47670        0.18870
H         -8.80980        2.41400        0.44960
H         -7.16900        7.34660       -3.30690
H         -5.77330        6.53460       -2.55290
H         -7.21200        5.55110       -5.07430
H         -5.82250        4.77500       -4.29470
H         -5.65580        6.37450       -5.02860
