
  xtb     02102223363D
 energy: -216.831493695705 gnorm: 0.000609382601 xtb: 6.4.1 (unknown)
131145  0     0  0            999 V2000
   -6.8324    1.2146    1.0297 C   0  0  0  0  0  0  0  0  0  0  0  0
   -8.0285    1.0818    0.3807 C   0  0  0  0  0  0  0  0  0  0  0  0
   -8.3344    0.7440   -1.0294 C   0  0  0  0  0  0  0  0  0  0  0  0
   -7.5907    0.6834   -1.9881 O   0  0  0  0  0  0  0  0  0  0  0  0
   -9.7856    0.4800   -1.0790 C   0  0  0  0  0  0  0  0  0  0  0  0
  -10.5094    0.0460   -2.1880 C   0  0  0  0  0  0  0  0  0  0  0  0
  -11.8477   -0.1423   -1.9427 C   0  0  0  0  0  0  0  0  0  0  0  0
  -12.4233    0.0789   -0.6842 C   0  0  0  0  0  0  0  0  0  0  0  0
  -11.7212    0.5089    0.4157 C   0  0  0  0  0  0  0  0  0  0  0  0
  -10.3565    0.7154    0.1848 C   0  0  0  0  0  0  0  0  0  0  0  0
   -9.3011    1.1598    1.0897 C   0  0  0  0  0  0  0  0  0  0  0  0
   -9.5137    1.6181    2.3654 C   0  0  0  0  0  0  0  0  0  0  0  0
   -8.5421    2.1142    3.2609 C   0  0  0  0  0  0  0  0  0  0  0  0
   -7.8426    2.5431    4.0667 N   0  0  0  0  0  0  0  0  0  0  0  0
  -10.7797    1.6971    2.9834 C   0  0  0  0  0  0  0  0  0  0  0  0
  -11.7685    1.7952    3.5596 N   0  0  0  0  0  0  0  0  0  0  0  0
  -13.8008   -0.3163   -1.1559 C   0  0  0  0  0  0  0  0  0  0  0  0
  -14.7934    0.8337   -1.4276 C   0  0  0  0  0  0  0  0  0  0  0  0
  -15.8458    0.2019   -2.3098 C   0  0  0  0  0  0  0  0  0  0  0  0
  -15.3015   -0.0049   -3.5022 C   0  0  0  0  0  0  0  0  0  0  0  0
  -13.8721    0.4837   -3.4458 C   0  0  0  0  0  0  0  0  0  0  0  0
  -14.0330    1.6593   -2.4735 C   0  0  0  0  0  0  0  0  0  0  0  0
  -13.1596   -0.5602   -2.5596 C   0  0  0  0  0  0  0  0  0  0  0  0
   -5.4600    1.1576    0.6432 C   0  0  0  0  0  0  0  0  0  0  0  0
   -4.9873    1.0418   -0.6842 C   0  0  0  0  0  0  0  0  0  0  0  0
   -3.6499    0.9614   -0.9707 C   0  0  0  0  0  0  0  0  0  0  0  0
   -2.7122    0.9872    0.0679 C   0  0  0  0  0  0  0  0  0  0  0  0
   -1.3111    0.9059    0.1856 C   0  0  0  0  0  0  0  0  0  0  0  0
   -0.9916    1.0070    1.5459 C   0  0  0  0  0  0  0  0  0  0  0  0
   -2.1185    1.1689    2.2915 N   0  0  0  0  0  0  0  0  0  0  0  0
   -3.1834    1.1388    1.4181 C   0  0  0  0  0  0  0  0  0  0  0  0
   -4.5277    1.2269    1.6951 C   0  0  0  0  0  0  0  0  0  0  0  0
   -2.1821    1.2289    3.7287 C   0  0  0  0  0  0  0  0  0  0  0  0
   -2.4854   -0.1405    4.3338 C   0  0  0  0  0  0  0  0  0  0  0  0
    0.3987    0.8625    1.6628 C   0  0  0  0  0  0  0  0  0  0  0  0
    1.2554    0.7356    2.7744 C   0  0  0  0  0  0  0  0  0  0  0  0
    2.6218    0.4034    2.5748 C   0  0  0  0  0  0  0  0  0  0  0  0
    3.1871    0.2755    3.7783 N   0  0  0  0  0  0  0  0  0  0  0  0
    2.2090    0.5165    4.6206 N   0  0  0  0  0  0  0  0  0  0  0  0
    2.4171    0.5249    6.0389 C   0  0  0  0  0  0  0  0  0  0  0  0
    2.8512    1.9089    6.5142 C   0  0  0  0  0  0  0  0  0  0  0  0
    1.0423    0.7995    4.0914 N   0  0  0  0  0  0  0  0  0  0  0  0
    3.1406    0.3405    1.2663 C   0  0  0  0  0  0  0  0  0  0  0  0
    2.3016    0.5953    0.1389 C   0  0  0  0  0  0  0  0  0  0  0  0
    0.9012    0.7155    0.3353 C   0  0  0  0  0  0  0  0  0  0  0  0
   -0.1641    0.7385   -0.5597 N   0  0  0  0  0  0  0  0  0  0  0  0
   -0.2545    0.0508   -1.8305 C   0  0  0  0  0  0  0  0  0  0  0  0
    0.0781   -1.4329   -1.6837 C   0  0  0  0  0  0  0  0  0  0  0  0
    3.0876    0.6527   -1.0008 N   0  0  0  0  0  0  0  0  0  0  0  0
    2.8071    1.2664   -2.2772 C   0  0  0  0  0  0  0  0  0  0  0  0
    2.8570    0.2597   -3.4264 C   0  0  0  0  0  0  0  0  0  0  0  0
    4.3868    0.4076   -0.6205 C   0  0  0  0  0  0  0  0  0  0  0  0
    4.4400    0.1829    0.7637 C   0  0  0  0  0  0  0  0  0  0  0  0
    5.7187   -0.0497    1.1620 N   0  0  0  0  0  0  0  0  0  0  0  0
    6.1346   -0.4560    2.4806 C   0  0  0  0  0  0  0  0  0  0  0  0
    6.3565   -1.9654    2.5601 C   0  0  0  0  0  0  0  0  0  0  0  0
    6.5039   -0.0014    0.0337 C   0  0  0  0  0  0  0  0  0  0  0  0
    5.7018    0.3213   -1.1157 C   0  0  0  0  0  0  0  0  0  0  0  0
    6.3384    0.4978   -2.3515 C   0  0  0  0  0  0  0  0  0  0  0  0
    7.6890    0.2980   -2.4415 C   0  0  0  0  0  0  0  0  0  0  0  0
    8.4655   -0.1103   -1.3282 C   0  0  0  0  0  0  0  0  0  0  0  0
    7.8607   -0.2122   -0.0704 C   0  0  0  0  0  0  0  0  0  0  0  0
    9.8509   -0.3728   -1.5400 C   0  0  0  0  0  0  0  0  0  0  0  0
   10.6799   -1.2205   -0.8574 C   0  0  0  0  0  0  0  0  0  0  0  0
   10.2765   -2.3163    0.0549 C   0  0  0  0  0  0  0  0  0  0  0  0
    9.1927   -2.5424    0.5508 O   0  0  0  0  0  0  0  0  0  0  0  0
   11.4820   -3.1629    0.2078 C   0  0  0  0  0  0  0  0  0  0  0  0
   11.5983   -4.3434    0.9133 C   0  0  0  0  0  0  0  0  0  0  0  0
   12.8422   -4.9666    0.9161 C   0  0  0  0  0  0  0  0  0  0  0  0
   13.1069   -6.1251    1.6215 O   0  0  0  0  0  0  0  0  0  0  0  0
   12.2005   -7.1227    1.7260 C   0  0  0  0  0  0  0  0  0  0  0  0
   11.1301   -7.1278    1.1889 O   0  0  0  0  0  0  0  0  0  0  0  0
   12.7544   -8.2177    2.5945 C   0  0  0  0  0  0  0  0  0  0  0  0
   13.9228   -4.4057    0.2370 C   0  0  0  0  0  0  0  0  0  0  0  0
   13.7948   -3.2203   -0.4666 C   0  0  0  0  0  0  0  0  0  0  0  0
   12.5585   -2.5904   -0.4868 C   0  0  0  0  0  0  0  0  0  0  0  0
   12.1002   -1.3603   -1.1235 C   0  0  0  0  0  0  0  0  0  0  0  0
   12.8979   -0.4627   -1.7855 C   0  0  0  0  0  0  0  0  0  0  0  0
   12.4699    0.7749   -2.3104 C   0  0  0  0  0  0  0  0  0  0  0  0
   12.2144    1.8074   -2.7445 N   0  0  0  0  0  0  0  0  0  0  0  0
   14.2794   -0.6445   -1.9998 C   0  0  0  0  0  0  0  0  0  0  0  0
   15.4042   -0.7379   -2.2112 N   0  0  0  0  0  0  0  0  0  0  0  0
   -6.9351    1.3644    2.0987 H   0  0  0  0  0  0  0  0  0  0  0  0
  -10.0217   -0.1212   -3.1357 H   0  0  0  0  0  0  0  0  0  0  0  0
  -12.1794    0.6632    1.3779 H   0  0  0  0  0  0  0  0  0  0  0  0
  -14.2562   -1.1584   -0.6379 H   0  0  0  0  0  0  0  0  0  0  0  0
  -15.1447    1.3510   -0.5390 H   0  0  0  0  0  0  0  0  0  0  0  0
  -16.8275   -0.0722   -1.9706 H   0  0  0  0  0  0  0  0  0  0  0  0
  -15.7378   -0.4864   -4.3577 H   0  0  0  0  0  0  0  0  0  0  0  0
  -13.3851    0.6826   -4.3968 H   0  0  0  0  0  0  0  0  0  0  0  0
  -14.6439    2.4581   -2.8908 H   0  0  0  0  0  0  0  0  0  0  0  0
  -13.0914    2.0707   -2.1147 H   0  0  0  0  0  0  0  0  0  0  0  0
  -13.1891   -1.5647   -2.9783 H   0  0  0  0  0  0  0  0  0  0  0  0
   -5.7009    1.0134   -1.4883 H   0  0  0  0  0  0  0  0  0  0  0  0
   -3.3310    0.8833   -1.9996 H   0  0  0  0  0  0  0  0  0  0  0  0
   -4.8751    1.3397    2.7117 H   0  0  0  0  0  0  0  0  0  0  0  0
   -2.9513    1.9506    4.0182 H   0  0  0  0  0  0  0  0  0  0  0  0
   -1.2092    1.5731    4.0866 H   0  0  0  0  0  0  0  0  0  0  0  0
   -3.4222   -0.5344    3.9461 H   0  0  0  0  0  0  0  0  0  0  0  0
   -2.5604   -0.0589    5.4143 H   0  0  0  0  0  0  0  0  0  0  0  0
   -1.6863   -0.8367    4.0913 H   0  0  0  0  0  0  0  0  0  0  0  0
    1.4748    0.2379    6.5099 H   0  0  0  0  0  0  0  0  0  0  0  0
    3.1885   -0.2144    6.2638 H   0  0  0  0  0  0  0  0  0  0  0  0
    2.0874    2.6445    6.2740 H   0  0  0  0  0  0  0  0  0  0  0  0
    3.0038    1.9000    7.5896 H   0  0  0  0  0  0  0  0  0  0  0  0
    3.7809    2.1969    6.0295 H   0  0  0  0  0  0  0  0  0  0  0  0
    0.3841    0.5145   -2.5797 H   0  0  0  0  0  0  0  0  0  0  0  0
   -1.2865    0.1587   -2.1659 H   0  0  0  0  0  0  0  0  0  0  0  0
   -0.0310   -1.9369   -2.6407 H   0  0  0  0  0  0  0  0  0  0  0  0
    1.0970   -1.5667   -1.3269 H   0  0  0  0  0  0  0  0  0  0  0  0
   -0.5985   -1.8970   -0.9692 H   0  0  0  0  0  0  0  0  0  0  0  0
    3.5725    2.0329   -2.4499 H   0  0  0  0  0  0  0  0  0  0  0  0
    1.8445    1.7765   -2.2233 H   0  0  0  0  0  0  0  0  0  0  0  0
    3.8359   -0.2094   -3.4658 H   0  0  0  0  0  0  0  0  0  0  0  0
    2.6754    0.7687   -4.3698 H   0  0  0  0  0  0  0  0  0  0  0  0
    2.1197   -0.5276   -3.3043 H   0  0  0  0  0  0  0  0  0  0  0  0
    5.3445   -0.1556    3.1739 H   0  0  0  0  0  0  0  0  0  0  0  0
    7.0573    0.0734    2.7370 H   0  0  0  0  0  0  0  0  0  0  0  0
    6.6480   -2.2404    3.5700 H   0  0  0  0  0  0  0  0  0  0  0  0
    5.4378   -2.4904    2.3091 H   0  0  0  0  0  0  0  0  0  0  0  0
    7.1374   -2.2793    1.8720 H   0  0  0  0  0  0  0  0  0  0  0  0
    5.7789    0.7982   -3.2242 H   0  0  0  0  0  0  0  0  0  0  0  0
    8.1844    0.4221   -3.3931 H   0  0  0  0  0  0  0  0  0  0  0  0
    8.4546   -0.4209    0.8016 H   0  0  0  0  0  0  0  0  0  0  0  0
   10.2748    0.1244   -2.4056 H   0  0  0  0  0  0  0  0  0  0  0  0
   10.7475   -4.7551    1.4316 H   0  0  0  0  0  0  0  0  0  0  0  0
   12.0611   -9.0526    2.6134 H   0  0  0  0  0  0  0  0  0  0  0  0
   13.7190   -8.5384    2.2094 H   0  0  0  0  0  0  0  0  0  0  0  0
   12.9025   -7.8363    3.6024 H   0  0  0  0  0  0  0  0  0  0  0  0
   14.8710   -4.9192    0.2699 H   0  0  0  0  0  0  0  0  0  0  0  0
   14.6458   -2.8159   -0.9892 H   0  0  0  0  0  0  0  0  0  0  0  0
  1  2  2  0  0  0  0
  2  3  1  0  0  0  0
  3  4  2  0  0  0  0
  3  5  1  0  0  0  0
  5  6  2  0  0  0  0
  6  7  1  0  0  0  0
  7  8  2  0  0  0  0
  8  9  1  0  0  0  0
  9 10  2  0  0  0  0
 10 11  1  0  0  0  0
 11 12  2  0  0  0  0
 12 13  1  0  0  0  0
 13 14  3  0  0  0  0
 12 15  1  0  0  0  0
 15 16  3  0  0  0  0
  8 17  1  0  0  0  0
 17 18  1  0  0  0  0
 18 19  1  0  0  0  0
 19 20  2  0  0  0  0
 20 21  1  0  0  0  0
 21 22  1  0  0  0  0
 21 23  1  0  0  0  0
  1 24  1  0  0  0  0
 24 25  2  0  0  0  0
 25 26  1  0  0  0  0
 26 27  2  0  0  0  0
 27 28  1  0  0  0  0
 28 29  2  0  0  0  0
 29 30  1  0  0  0  0
 30 31  1  0  0  0  0
 31 32  2  0  0  0  0
 30 33  1  0  0  0  0
 33 34  1  0  0  0  0
 29 35  1  0  0  0  0
 35 36  1  0  0  0  0
 36 37  1  0  0  0  0
 37 38  2  0  0  0  0
 38 39  1  0  0  0  0
 39 40  1  0  0  0  0
 40 41  1  0  0  0  0
 39 42  1  0  0  0  0
 37 43  1  0  0  0  0
 43 44  2  0  0  0  0
 44 45  1  0  0  0  0
 45 46  1  0  0  0  0
 46 47  1  0  0  0  0
 47 48  1  0  0  0  0
 44 49  1  0  0  0  0
 49 50  1  0  0  0  0
 50 51  1  0  0  0  0
 49 52  1  0  0  0  0
 52 53  2  0  0  0  0
 53 54  1  0  0  0  0
 54 55  1  0  0  0  0
 55 56  1  0  0  0  0
 54 57  1  0  0  0  0
 57 58  2  0  0  0  0
 58 59  1  0  0  0  0
 59 60  2  0  0  0  0
 60 61  1  0  0  0  0
 61 62  2  0  0  0  0
 61 63  1  0  0  0  0
 63 64  2  0  0  0  0
 64 65  1  0  0  0  0
 65 66  2  0  0  0  0
 65 67  1  0  0  0  0
 67 68  2  0  0  0  0
 68 69  1  0  0  0  0
 69 70  1  0  0  0  0
 70 71  1  0  0  0  0
 71 72  2  0  0  0  0
 71 73  1  0  0  0  0
 69 74  2  0  0  0  0
 74 75  1  0  0  0  0
 75 76  2  0  0  0  0
 76 77  1  0  0  0  0
 77 78  2  0  0  0  0
 78 79  1  0  0  0  0
 79 80  3  0  0  0  0
 78 81  1  0  0  0  0
 81 82  3  0  0  0  0
 11  2  1  0  0  0  0
 23 17  1  0  0  0  0
 32 24  1  0  0  0  0
 45 35  2  0  0  0  0
 58 52  1  0  0  0  0
 77 64  1  0  0  0  0
 10  5  1  0  0  0  0
 22 18  1  0  0  0  0
 31 27  1  0  0  0  0
 42 36  2  0  0  0  0
 53 43  1  0  0  0  0
 62 57  1  0  0  0  0
 76 67  1  0  0  0  0
 23  7  1  0  0  0  0
 46 28  1  0  0  0  0
  1 83  1  0  0  0  0
  6 84  1  0  0  0  0
  9 85  1  0  0  0  0
 17 86  1  0  0  0  0
 18 87  1  0  0  0  0
 19 88  1  0  0  0  0
 20 89  1  0  0  0  0
 21 90  1  0  0  0  0
 22 91  1  0  0  0  0
 22 92  1  0  0  0  0
 23 93  1  0  0  0  0
 25 94  1  0  0  0  0
 26 95  1  0  0  0  0
 32 96  1  0  0  0  0
 33 97  1  0  0  0  0
 33 98  1  0  0  0  0
 34 99  1  0  0  0  0
 34100  1  0  0  0  0
 34101  1  0  0  0  0
 40102  1  0  0  0  0
 40103  1  0  0  0  0
 41104  1  0  0  0  0
 41105  1  0  0  0  0
 41106  1  0  0  0  0
 47107  1  0  0  0  0
 47108  1  0  0  0  0
 48109  1  0  0  0  0
 48110  1  0  0  0  0
 48111  1  0  0  0  0
 50112  1  0  0  0  0
 50113  1  0  0  0  0
 51114  1  0  0  0  0
 51115  1  0  0  0  0
 51116  1  0  0  0  0
 55117  1  0  0  0  0
 55118  1  0  0  0  0
 56119  1  0  0  0  0
 56120  1  0  0  0  0
 56121  1  0  0  0  0
 59122  1  0  0  0  0
 60123  1  0  0  0  0
 62124  1  0  0  0  0
 63125  1  0  0  0  0
 68126  1  0  0  0  0
 73127  1  0  0  0  0
 73128  1  0  0  0  0
 73129  1  0  0  0  0
 74130  1  0  0  0  0
 75131  1  0  0  0  0
M  END
