
  xtb     02022216513D
 energy: -180.007676842988 gnorm: 0.000298999089 xtb: 6.4.1 (unknown)
104119  0     0  0            999 V2000
   -3.7867   -0.5005    6.7485 C   0  0  0  0  0  0  0  0  0  0  0  0
   -2.9521   -0.0072    7.7177 C   0  0  0  0  0  0  0  0  0  0  0  0
   -1.9066    1.0042    7.5203 C   0  0  0  0  0  0  0  0  0  0  0  0
   -1.7105    1.6865    6.5298 O   0  0  0  0  0  0  0  0  0  0  0  0
   -1.1249    1.0419    8.7657 C   0  0  0  0  0  0  0  0  0  0  0  0
    0.0203    1.7953    9.0089 C   0  0  0  0  0  0  0  0  0  0  0  0
    0.5796    1.5749   10.2442 C   0  0  0  0  0  0  0  0  0  0  0  0
    0.0375    0.6730   11.1695 C   0  0  0  0  0  0  0  0  0  0  0  0
   -1.1042   -0.0612   10.9479 C   0  0  0  0  0  0  0  0  0  0  0  0
   -1.6900    0.1467    9.6959 C   0  0  0  0  0  0  0  0  0  0  0  0
   -2.8735   -0.4657    9.0918 C   0  0  0  0  0  0  0  0  0  0  0  0
   -3.7470   -1.3042    9.7357 C   0  0  0  0  0  0  0  0  0  0  0  0
   -4.9059   -1.8737    9.1691 C   0  0  0  0  0  0  0  0  0  0  0  0
   -5.8664   -2.3754    8.7865 N   0  0  0  0  0  0  0  0  0  0  0  0
   -3.6234   -1.7018   11.0834 C   0  0  0  0  0  0  0  0  0  0  0  0
   -3.5898   -2.0681   12.1712 N   0  0  0  0  0  0  0  0  0  0  0  0
    1.1367    0.9204   12.1724 C   0  0  0  0  0  0  0  0  0  0  0  0
    2.2551   -0.1454   12.2902 C   0  0  0  0  0  0  0  0  0  0  0  0
    2.3376   -0.8355   10.9513 C   0  0  0  0  0  0  0  0  0  0  0  0
    2.8472    0.0264   10.0815 C   0  0  0  0  0  0  0  0  0  0  0  0
    3.1172    1.3159   10.8168 C   0  0  0  0  0  0  0  0  0  0  0  0
    3.4912    0.7643   12.2017 C   0  0  0  0  0  0  0  0  0  0  0  0
    1.7347    1.9325   11.1449 C   0  0  0  0  0  0  0  0  0  0  0  0
   -3.8219   -0.2431    5.3687 C   0  0  0  0  0  0  0  0  0  0  0  0
   -2.8181    0.9292    4.5139 S   0  0  0  0  0  0  0  0  0  0  0  0
   -3.4280    0.3476    3.0171 C   0  0  0  0  0  0  0  0  0  0  0  0
   -3.2300    0.4884    1.6474 C   0  0  0  0  0  0  0  0  0  0  0  0
   -2.2182    1.3725    0.5505 S   0  0  0  0  0  0  0  0  0  0  0  0
   -2.8548    0.4192   -0.7611 C   0  0  0  0  0  0  0  0  0  0  0  0
   -3.8373   -0.5022   -0.3735 C   0  0  0  0  0  0  0  0  0  0  0  0
   -4.0559   -0.4647    1.0085 C   0  0  0  0  0  0  0  0  0  0  0  0
   -4.7589   -1.1711    1.9428 N   0  0  0  0  0  0  0  0  0  0  0  0
   -4.3859   -0.6895    3.1747 C   0  0  0  0  0  0  0  0  0  0  0  0
   -4.6161   -1.0025    4.5028 C   0  0  0  0  0  0  0  0  0  0  0  0
   -5.7577   -2.1739    1.6729 C   0  0  0  0  0  0  0  0  0  0  0  0
   -7.1466   -1.5564    1.5296 C   0  0  0  0  0  0  0  0  0  0  0  0
   -4.4003   -1.5051   -1.6905 S   0  0  0  0  0  0  0  0  0  0  0  0
   -3.2621   -0.7299   -2.7545 C   0  0  0  0  0  0  0  0  0  0  0  0
   -2.7427   -0.8400   -4.0439 C   0  0  0  0  0  0  0  0  0  0  0  0
   -1.6978    0.1157   -4.1361 C   0  0  0  0  0  0  0  0  0  0  0  0
   -1.5787    0.7957   -2.9540 N   0  0  0  0  0  0  0  0  0  0  0  0
   -0.7549    1.9565   -2.7283 C   0  0  0  0  0  0  0  0  0  0  0  0
   -1.3993    3.2092   -3.3171 C   0  0  0  0  0  0  0  0  0  0  0  0
   -2.5231    0.2907   -2.1116 C   0  0  0  0  0  0  0  0  0  0  0  0
   -0.9992    0.0737   -5.3325 C   0  0  0  0  0  0  0  0  0  0  0  0
   -1.5035   -0.8885   -6.1948 C   0  0  0  0  0  0  0  0  0  0  0  0
   -2.8721   -1.7594   -5.4907 S   0  0  0  0  0  0  0  0  0  0  0  0
   -0.9825   -1.3363   -7.4241 C   0  0  0  0  0  0  0  0  0  0  0  0
    0.0679   -0.8382   -8.1395 C   0  0  0  0  0  0  0  0  0  0  0  0
    0.8274   -1.7574   -9.0326 C   0  0  0  0  0  0  0  0  0  0  0  0
    0.4443   -2.8110   -9.4861 O   0  0  0  0  0  0  0  0  0  0  0  0
    2.1645   -1.1416   -9.1661 C   0  0  0  0  0  0  0  0  0  0  0  0
    3.3138   -1.7194   -9.7014 C   0  0  0  0  0  0  0  0  0  0  0  0
    4.4391   -0.9371   -9.5881 C   0  0  0  0  0  0  0  0  0  0  0  0
    4.4277    0.3299   -8.9898 C   0  0  0  0  0  0  0  0  0  0  0  0
    3.2990    0.9211   -8.4736 C   0  0  0  0  0  0  0  0  0  0  0  0
    2.1466    0.1388   -8.5761 C   0  0  0  0  0  0  0  0  0  0  0  0
    0.7941    0.4077   -8.0928 C   0  0  0  0  0  0  0  0  0  0  0  0
    0.2684    1.6532   -7.8584 C   0  0  0  0  0  0  0  0  0  0  0  0
    1.0075    2.8493   -7.9418 C   0  0  0  0  0  0  0  0  0  0  0  0
    1.5661    3.8523   -7.9706 N   0  0  0  0  0  0  0  0  0  0  0  0
   -1.0876    1.8771   -7.5478 C   0  0  0  0  0  0  0  0  0  0  0  0
   -2.1800    2.1083   -7.2804 N   0  0  0  0  0  0  0  0  0  0  0  0
    5.9111    0.5232   -9.1798 C   0  0  0  0  0  0  0  0  0  0  0  0
    6.3490    1.4564  -10.3275 C   0  0  0  0  0  0  0  0  0  0  0  0
    7.7920    1.0765  -10.5692 C   0  0  0  0  0  0  0  0  0  0  0  0
    7.8034   -0.1207  -11.1413 C   0  0  0  0  0  0  0  0  0  0  0  0
    6.3681   -0.5702  -11.2964 C   0  0  0  0  0  0  0  0  0  0  0  0
    5.6915    0.7849  -11.5399 C   0  0  0  0  0  0  0  0  0  0  0  0
    5.9240   -0.8868   -9.8530 C   0  0  0  0  0  0  0  0  0  0  0  0
   -4.4902   -1.2659    7.0538 H   0  0  0  0  0  0  0  0  0  0  0  0
    0.4077    2.4711    8.2626 H   0  0  0  0  0  0  0  0  0  0  0  0
   -1.5068   -0.7497   11.6718 H   0  0  0  0  0  0  0  0  0  0  0  0
    0.8240    1.3009   13.1426 H   0  0  0  0  0  0  0  0  0  0  0  0
    2.1708   -0.7929   13.1588 H   0  0  0  0  0  0  0  0  0  0  0  0
    1.9756   -1.8301   10.7669 H   0  0  0  0  0  0  0  0  0  0  0  0
    2.9956   -0.1037    9.0254 H   0  0  0  0  0  0  0  0  0  0  0  0
    3.8169    2.0005   10.3445 H   0  0  0  0  0  0  0  0  0  0  0  0
    3.5252    1.5274   12.9780 H   0  0  0  0  0  0  0  0  0  0  0  0
    4.4258    0.2054   12.1938 H   0  0  0  0  0  0  0  0  0  0  0  0
    1.8049    2.9772   11.4410 H   0  0  0  0  0  0  0  0  0  0  0  0
   -5.2916   -1.7577    4.8632 H   0  0  0  0  0  0  0  0  0  0  0  0
   -5.7472   -2.8942    2.4949 H   0  0  0  0  0  0  0  0  0  0  0  0
   -5.4809   -2.6890    0.7488 H   0  0  0  0  0  0  0  0  0  0  0  0
   -7.4240   -1.0325    2.4413 H   0  0  0  0  0  0  0  0  0  0  0  0
   -7.1612   -0.8503    0.7028 H   0  0  0  0  0  0  0  0  0  0  0  0
   -7.8793   -2.3343    1.3356 H   0  0  0  0  0  0  0  0  0  0  0  0
   -0.6177    2.0699   -1.6502 H   0  0  0  0  0  0  0  0  0  0  0  0
    0.2203    1.7801   -3.1907 H   0  0  0  0  0  0  0  0  0  0  0  0
   -0.7484    4.0661   -3.1703 H   0  0  0  0  0  0  0  0  0  0  0  0
   -2.3514    3.4067   -2.8306 H   0  0  0  0  0  0  0  0  0  0  0  0
   -1.5755    3.0805   -4.3831 H   0  0  0  0  0  0  0  0  0  0  0  0
   -0.1247    0.6603   -5.5401 H   0  0  0  0  0  0  0  0  0  0  0  0
   -1.3738   -2.2814   -7.7868 H   0  0  0  0  0  0  0  0  0  0  0  0
    3.2874   -2.7041  -10.1410 H   0  0  0  0  0  0  0  0  0  0  0  0
    3.3007    1.8897   -8.0003 H   0  0  0  0  0  0  0  0  0  0  0  0
    6.4880    0.6695   -8.2682 H   0  0  0  0  0  0  0  0  0  0  0  0
    6.1399    2.5098  -10.1626 H   0  0  0  0  0  0  0  0  0  0  0  0
    8.6297    1.6726  -10.2578 H   0  0  0  0  0  0  0  0  0  0  0  0
    8.6526   -0.7243  -11.4030 H   0  0  0  0  0  0  0  0  0  0  0  0
    6.1788   -1.3623  -12.0157 H   0  0  0  0  0  0  0  0  0  0  0  0
    4.6046    0.7529  -11.4931 H   0  0  0  0  0  0  0  0  0  0  0  0
    6.0026    1.2373  -12.4799 H   0  0  0  0  0  0  0  0  0  0  0  0
    6.5118   -1.6784   -9.3914 H   0  0  0  0  0  0  0  0  0  0  0  0
  1  2  2  0  0  0  0
  2  3  1  0  0  0  0
  3  4  2  0  0  0  0
  3  5  1  0  0  0  0
  5  6  2  0  0  0  0
  6  7  1  0  0  0  0
  7  8  2  0  0  0  0
  8  9  1  0  0  0  0
  9 10  2  0  0  0  0
 10 11  1  0  0  0  0
 11 12  2  0  0  0  0
 12 13  1  0  0  0  0
 13 14  3  0  0  0  0
 12 15  1  0  0  0  0
 15 16  3  0  0  0  0
  8 17  1  0  0  0  0
 17 18  1  0  0  0  0
 18 19  1  0  0  0  0
 19 20  2  0  0  0  0
 20 21  1  0  0  0  0
 21 22  1  0  0  0  0
 21 23  1  0  0  0  0
  1 24  1  0  0  0  0
 24 25  1  0  0  0  0
 25 26  1  0  0  0  0
 26 27  1  0  0  0  0
 27 28  1  0  0  0  0
 28 29  1  0  0  0  0
 29 30  2  0  0  0  0
 30 31  1  0  0  0  0
 31 32  1  0  0  0  0
 32 33  1  0  0  0  0
 33 34  1  0  0  0  0
 32 35  1  0  0  0  0
 35 36  1  0  0  0  0
 30 37  1  0  0  0  0
 37 38  1  0  0  0  0
 38 39  1  0  0  0  0
 39 40  2  0  0  0  0
 40 41  1  0  0  0  0
 41 42  1  0  0  0  0
 42 43  1  0  0  0  0
 41 44  1  0  0  0  0
 40 45  1  0  0  0  0
 45 46  2  0  0  0  0
 46 47  1  0  0  0  0
 46 48  1  0  0  0  0
 48 49  2  0  0  0  0
 49 50  1  0  0  0  0
 50 51  2  0  0  0  0
 50 52  1  0  0  0  0
 52 53  2  0  0  0  0
 53 54  1  0  0  0  0
 54 55  2  0  0  0  0
 55 56  1  0  0  0  0
 56 57  2  0  0  0  0
 57 58  1  0  0  0  0
 58 59  2  0  0  0  0
 59 60  1  0  0  0  0
 60 61  3  0  0  0  0
 59 62  1  0  0  0  0
 62 63  3  0  0  0  0
 55 64  1  0  0  0  0
 64 65  1  0  0  0  0
 65 66  1  0  0  0  0
 66 67  2  0  0  0  0
 67 68  1  0  0  0  0
 68 69  1  0  0  0  0
 68 70  1  0  0  0  0
 11  2  1  0  0  0  0
 23 17  1  0  0  0  0
 34 24  2  0  0  0  0
 44 38  2  0  0  0  0
 58 49  1  0  0  0  0
 70 64  1  0  0  0  0
 10  5  1  0  0  0  0
 22 18  1  0  0  0  0
 33 26  2  0  0  0  0
 47 39  1  0  0  0  0
 57 52  1  0  0  0  0
 69 65  1  0  0  0  0
 23  7  1  0  0  0  0
 31 27  2  0  0  0  0
 70 54  1  0  0  0  0
 44 29  1  0  0  0  0
  1 71  1  0  0  0  0
  6 72  1  0  0  0  0
  9 73  1  0  0  0  0
 17 74  1  0  0  0  0
 18 75  1  0  0  0  0
 19 76  1  0  0  0  0
 20 77  1  0  0  0  0
 21 78  1  0  0  0  0
 22 79  1  0  0  0  0
 22 80  1  0  0  0  0
 23 81  1  0  0  0  0
 34 82  1  0  0  0  0
 35 83  1  0  0  0  0
 35 84  1  0  0  0  0
 36 85  1  0  0  0  0
 36 86  1  0  0  0  0
 36 87  1  0  0  0  0
 42 88  1  0  0  0  0
 42 89  1  0  0  0  0
 43 90  1  0  0  0  0
 43 91  1  0  0  0  0
 43 92  1  0  0  0  0
 45 93  1  0  0  0  0
 48 94  1  0  0  0  0
 53 95  1  0  0  0  0
 56 96  1  0  0  0  0
 64 97  1  0  0  0  0
 65 98  1  0  0  0  0
 66 99  1  0  0  0  0
 67100  1  0  0  0  0
 68101  1  0  0  0  0
 69102  1  0  0  0  0
 69103  1  0  0  0  0
 70104  1  0  0  0  0
M  END
