
  xtb     02022209453D
 energy: -194.177841283354 gnorm: 0.000640576796 xtb: 6.4.1 (unknown)
107121  0     0  0            999 V2000
   -0.1532   -4.7837    5.4078 C   0  0  0  0  0  0  0  0  0  0  0  0
   -0.1607   -5.8896    4.5949 C   0  0  0  0  0  0  0  0  0  0  0  0
   -0.1324   -5.8915    3.1302 C   0  0  0  0  0  0  0  0  0  0  0  0
   -0.1237   -4.9243    2.3853 O   0  0  0  0  0  0  0  0  0  0  0  0
   -0.1124   -7.3041    2.7163 C   0  0  0  0  0  0  0  0  0  0  0  0
   -0.0699   -7.7965    1.4144 C   0  0  0  0  0  0  0  0  0  0  0  0
   -0.0562   -9.1684    1.3357 C   0  0  0  0  0  0  0  0  0  0  0  0
   -0.0772   -9.9901    2.4702 C   0  0  0  0  0  0  0  0  0  0  0  0
   -0.1170   -9.5164    3.7603 C   0  0  0  0  0  0  0  0  0  0  0  0
   -0.1384   -8.1230    3.8634 C   0  0  0  0  0  0  0  0  0  0  0  0
   -0.1841   -7.2661    5.0478 C   0  0  0  0  0  0  0  0  0  0  0  0
   -0.2570   -7.7124    6.3437 C   0  0  0  0  0  0  0  0  0  0  0  0
   -0.2952   -9.0709    6.7214 C   0  0  0  0  0  0  0  0  0  0  0  0
   -0.3317  -10.1507    7.1104 N   0  0  0  0  0  0  0  0  0  0  0  0
   -0.3160   -6.9010    7.4954 C   0  0  0  0  0  0  0  0  0  0  0  0
   -0.3685   -6.3166    8.4840 N   0  0  0  0  0  0  0  0  0  0  0  0
   -0.0489  -11.2565    1.6522 C   0  0  0  0  0  0  0  0  0  0  0  0
   -1.3754  -12.0385    1.4877 C   0  0  0  0  0  0  0  0  0  0  0  0
   -2.4886  -11.0304    1.6301 C   0  0  0  0  0  0  0  0  0  0  0  0
   -2.4708  -10.2529    0.5558 C   0  0  0  0  0  0  0  0  0  0  0  0
   -1.3449  -10.7212   -0.3328 C   0  0  0  0  0  0  0  0  0  0  0  0
   -1.3765  -12.2294   -0.0375 C   0  0  0  0  0  0  0  0  0  0  0  0
   -0.0274  -10.3410    0.3875 C   0  0  0  0  0  0  0  0  0  0  0  0
   -0.1501   -3.4187    5.1009 C   0  0  0  0  0  0  0  0  0  0  0  0
   -0.1360   -2.4137    6.0818 C   0  0  0  0  0  0  0  0  0  0  0  0
   -0.0486   -2.6312    7.5573 C   0  0  0  0  0  0  0  0  0  0  0  0
    1.4034   -2.8496    7.9889 C   0  0  0  0  0  0  0  0  0  0  0  0
   -0.1565   -1.1448    5.5178 C   0  0  0  0  0  0  0  0  0  0  0  0
   -0.1521    0.5964    6.2773 Se  0  0  0  0  0  2  0  0  0  0  0  0
   -0.2175    1.1732    4.5102 C   0  0  0  0  0  0  0  0  0  0  0  0
   -0.2314    2.3759    3.7953 C   0  0  0  0  0  0  0  0  0  0  0  0
   -0.1184    3.7047    4.2564 C   0  0  0  0  0  0  0  0  0  0  0  0
   -0.0513    4.7617    3.2959 C   0  0  0  0  0  0  0  0  0  0  0  0
    0.1020    5.9515    3.8550 N   0  0  0  0  0  0  0  0  0  0  0  0
    0.1562    5.7524    5.4641 S   0  0  0  0  0  0  0  0  0  0  0  0
   -0.0150    4.1406    5.5017 N   0  0  0  0  0  0  0  0  0  0  0  0
   -0.2176    4.4460    1.9311 C   0  0  0  0  0  0  0  0  0  0  0  0
   -0.3545    5.2931    0.8262 C   0  0  0  0  0  0  0  0  0  0  0  0
   -0.3210    7.1100    0.4423 Se  0  0  0  0  0  2  0  0  0  0  0  0
   -0.7892    6.5817   -1.3167 C   0  0  0  0  0  0  0  0  0  0  0  0
   -1.0617    7.3035   -2.4880 C   0  0  0  0  0  0  0  0  0  0  0  0
   -1.1668    8.7956   -2.4965 C   0  0  0  0  0  0  0  0  0  0  0  0
    0.1539    9.4792   -2.1478 C   0  0  0  0  0  0  0  0  0  0  0  0
   -1.4027    6.4574   -3.5355 C   0  0  0  0  0  0  0  0  0  0  0  0
   -1.4299    4.7663   -3.0378 S   0  0  0  0  0  0  0  0  0  0  0  0
   -0.9220    5.1915   -1.4473 C   0  0  0  0  0  0  0  0  0  0  0  0
   -0.6663    4.4798   -0.2692 C   0  0  0  0  0  0  0  0  0  0  0  0
   -0.7065    3.1681    0.1248 N   0  0  0  0  0  0  0  0  0  0  0  0
   -0.4116    3.1113    1.4728 C   0  0  0  0  0  0  0  0  0  0  0  0
   -0.2997    2.0481    2.4107 C   0  0  0  0  0  0  0  0  0  0  0  0
   -0.2888    0.6677    2.2971 N   0  0  0  0  0  0  0  0  0  0  0  0
   -0.2351    0.1417    3.5640 C   0  0  0  0  0  0  0  0  0  0  0  0
   -0.1940   -1.1460    4.1129 C   0  0  0  0  0  0  0  0  0  0  0  0
   -0.1884   -2.7470    3.4722 S   0  0  0  0  0  0  0  0  0  0  0  0
    0.1573   -0.1653    1.2006 C   0  0  0  0  0  0  0  0  0  0  0  0
    1.6775   -0.1077    1.0616 C   0  0  0  0  0  0  0  0  0  0  0  0
   -1.2538    2.1696   -0.7634 C   0  0  0  0  0  0  0  0  0  0  0  0
   -0.2185    1.6665   -1.7689 C   0  0  0  0  0  0  0  0  0  0  0  0
   -1.8594    6.7199   -4.8482 C   0  0  0  0  0  0  0  0  0  0  0  0
   -1.4315    7.6994   -5.6972 C   0  0  0  0  0  0  0  0  0  0  0  0
   -0.1194    8.3974   -5.5893 C   0  0  0  0  0  0  0  0  0  0  0  0
    0.7507    8.2133   -4.7671 O   0  0  0  0  0  0  0  0  0  0  0  0
   -0.0660    9.2296   -6.7900 C   0  0  0  0  0  0  0  0  0  0  0  0
    1.0495   10.3329   -7.4742 S   0  0  0  0  0  0  0  0  0  0  0  0
   -0.0101   10.5371   -8.8438 C   0  0  0  0  0  0  0  0  0  0  0  0
    0.4209   11.5972  -10.1047 Cl  0  0  0  0  0  0  0  0  0  0  0  0
   -1.1540    9.7893   -8.7765 C   0  0  0  0  0  0  0  0  0  0  0  0
   -1.1816    9.0330   -7.5912 C   0  0  0  0  0  0  0  0  0  0  0  0
   -2.0627    8.0772   -6.9471 C   0  0  0  0  0  0  0  0  0  0  0  0
   -3.2796    7.6779   -7.4349 C   0  0  0  0  0  0  0  0  0  0  0  0
   -3.7714    8.1401   -8.6734 C   0  0  0  0  0  0  0  0  0  0  0  0
   -4.1883    8.5001   -9.6800 N   0  0  0  0  0  0  0  0  0  0  0  0
   -4.1686    6.7972   -6.7876 C   0  0  0  0  0  0  0  0  0  0  0  0
   -4.9453    6.0983   -6.3113 N   0  0  0  0  0  0  0  0  0  0  0  0
   -0.1486   -4.9789    6.4713 H   0  0  0  0  0  0  0  0  0  0  0  0
   -0.0501   -7.1266    0.5688 H   0  0  0  0  0  0  0  0  0  0  0  0
   -0.1287  -10.1644    4.6205 H   0  0  0  0  0  0  0  0  0  0  0  0
    0.8019  -11.9137    1.8206 H   0  0  0  0  0  0  0  0  0  0  0  0
   -1.4531  -12.9296    2.1047 H   0  0  0  0  0  0  0  0  0  0  0  0
   -3.1183  -10.9527    2.4970 H   0  0  0  0  0  0  0  0  0  0  0  0
   -3.0828   -9.3953    0.3455 H   0  0  0  0  0  0  0  0  0  0  0  0
   -1.3952  -10.4138   -1.3742 H   0  0  0  0  0  0  0  0  0  0  0  0
   -0.5024  -12.7627   -0.4087 H   0  0  0  0  0  0  0  0  0  0  0  0
   -2.2830  -12.7107   -0.4012 H   0  0  0  0  0  0  0  0  0  0  0  0
    0.8374  -10.4015   -0.2706 H   0  0  0  0  0  0  0  0  0  0  0  0
   -0.4360   -1.7349    8.0523 H   0  0  0  0  0  0  0  0  0  0  0  0
   -0.6540   -3.4831    7.8702 H   0  0  0  0  0  0  0  0  0  0  0  0
    2.0101   -1.9881    7.7169 H   0  0  0  0  0  0  0  0  0  0  0  0
    1.4522   -2.9867    9.0653 H   0  0  0  0  0  0  0  0  0  0  0  0
    1.8188   -3.7331    7.5097 H   0  0  0  0  0  0  0  0  0  0  0  0
   -1.5183    9.1384   -3.4702 H   0  0  0  0  0  0  0  0  0  0  0  0
   -1.9157    9.0727   -1.7458 H   0  0  0  0  0  0  0  0  0  0  0  0
    0.9218    9.1935   -2.8605 H   0  0  0  0  0  0  0  0  0  0  0  0
    0.0283   10.5586   -2.1757 H   0  0  0  0  0  0  0  0  0  0  0  0
    0.4801    9.1939   -1.1474 H   0  0  0  0  0  0  0  0  0  0  0  0
   -0.3138    0.1254    0.2685 H   0  0  0  0  0  0  0  0  0  0  0  0
   -0.1512   -1.1881    1.4306 H   0  0  0  0  0  0  0  0  0  0  0  0
    1.9981   -0.7493    0.2456 H   0  0  0  0  0  0  0  0  0  0  0  0
    2.1529   -0.4503    1.9776 H   0  0  0  0  0  0  0  0  0  0  0  0
    2.0071    0.9109    0.8634 H   0  0  0  0  0  0  0  0  0  0  0  0
   -2.0762    2.6377   -1.3156 H   0  0  0  0  0  0  0  0  0  0  0  0
   -1.6826    1.3628   -0.1675 H   0  0  0  0  0  0  0  0  0  0  0  0
   -0.6382    0.8543   -2.3558 H   0  0  0  0  0  0  0  0  0  0  0  0
    0.6827    1.3168   -1.2726 H   0  0  0  0  0  0  0  0  0  0  0  0
    0.0589    2.4697   -2.4462 H   0  0  0  0  0  0  0  0  0  0  0  0
   -2.6152    6.0319   -5.2110 H   0  0  0  0  0  0  0  0  0  0  0  0
   -1.9120    9.7911   -9.5372 H   0  0  0  0  0  0  0  0  0  0  0  0
  1  2  2  0  0  0  0
  2  3  1  0  0  0  0
  3  4  2  0  0  0  0
  3  5  1  0  0  0  0
  5  6  2  0  0  0  0
  6  7  1  0  0  0  0
  7  8  2  0  0  0  0
  8  9  1  0  0  0  0
  9 10  2  0  0  0  0
 10 11  1  0  0  0  0
 11 12  2  0  0  0  0
 12 13  1  0  0  0  0
 13 14  3  0  0  0  0
 12 15  1  0  0  0  0
 15 16  3  0  0  0  0
  8 17  1  0  0  0  0
 17 18  1  0  0  0  0
 18 19  1  0  0  0  0
 19 20  2  0  0  0  0
 20 21  1  0  0  0  0
 21 22  1  0  0  0  0
 21 23  1  0  0  0  0
  1 24  1  0  0  0  0
 24 25  2  0  0  0  0
 25 26  1  0  0  0  0
 26 27  1  0  0  0  0
 25 28  1  0  0  0  0
 28 29  1  0  0  0  0
 29 30  1  0  0  0  0
 30 31  1  0  0  0  0
 31 32  1  0  0  0  0
 32 33  1  0  0  0  0
 33 34  2  0  0  0  0
 34 35  1  0  0  0  0
 35 36  1  0  0  0  0
 33 37  1  0  0  0  0
 37 38  1  0  0  0  0
 38 39  1  0  0  0  0
 39 40  1  0  0  0  0
 40 41  1  0  0  0  0
 41 42  1  0  0  0  0
 42 43  1  0  0  0  0
 41 44  2  0  0  0  0
 44 45  1  0  0  0  0
 45 46  1  0  0  0  0
 46 47  1  0  0  0  0
 47 48  1  0  0  0  0
 48 49  1  0  0  0  0
 49 50  1  0  0  0  0
 50 51  1  0  0  0  0
 51 52  1  0  0  0  0
 52 53  1  0  0  0  0
 53 54  1  0  0  0  0
 51 55  1  0  0  0  0
 55 56  1  0  0  0  0
 48 57  1  0  0  0  0
 57 58  1  0  0  0  0
 44 59  1  0  0  0  0
 59 60  2  0  0  0  0
 60 61  1  0  0  0  0
 61 62  2  0  0  0  0
 61 63  1  0  0  0  0
 63 64  1  0  0  0  0
 64 65  1  0  0  0  0
 65 66  1  0  0  0  0
 65 67  2  0  0  0  0
 67 68  1  0  0  0  0
 68 69  1  0  0  0  0
 69 70  2  0  0  0  0
 70 71  1  0  0  0  0
 71 72  3  0  0  0  0
 70 73  1  0  0  0  0
 73 74  3  0  0  0  0
 11  2  1  0  0  0  0
 23 17  1  0  0  0  0
 54 24  1  0  0  0  0
 69 60  1  0  0  0  0
 10  5  1  0  0  0  0
 22 18  1  0  0  0  0
 53 28  2  0  0  0  0
 68 63  2  0  0  0  0
 23  7  1  0  0  0  0
 52 30  2  0  0  0  0
 50 31  2  0  0  0  0
 36 32  2  0  0  0  0
 49 37  2  0  0  0  0
 47 38  2  0  0  0  0
 46 40  2  0  0  0  0
  1 75  1  0  0  0  0
  6 76  1  0  0  0  0
  9 77  1  0  0  0  0
 17 78  1  0  0  0  0
 18 79  1  0  0  0  0
 19 80  1  0  0  0  0
 20 81  1  0  0  0  0
 21 82  1  0  0  0  0
 22 83  1  0  0  0  0
 22 84  1  0  0  0  0
 23 85  1  0  0  0  0
 26 86  1  0  0  0  0
 26 87  1  0  0  0  0
 27 88  1  0  0  0  0
 27 89  1  0  0  0  0
 27 90  1  0  0  0  0
 42 91  1  0  0  0  0
 42 92  1  0  0  0  0
 43 93  1  0  0  0  0
 43 94  1  0  0  0  0
 43 95  1  0  0  0  0
 55 96  1  0  0  0  0
 55 97  1  0  0  0  0
 56 98  1  0  0  0  0
 56 99  1  0  0  0  0
 56100  1  0  0  0  0
 57101  1  0  0  0  0
 57102  1  0  0  0  0
 58103  1  0  0  0  0
 58104  1  0  0  0  0
 58105  1  0  0  0  0
 59106  1  0  0  0  0
 67107  1  0  0  0  0
M  END
