
  xtb     02022206323D
 energy: -238.300201198660 gnorm: 0.000522276542 xtb: 6.4.1 (unknown)
130146  0     0  0            999 V2000
   -1.8056    3.4262    5.2809 C   0  0  0  0  0  0  0  0  0  0  0  0
   -1.2078    4.0530    6.3355 C   0  0  0  0  0  0  0  0  0  0  0  0
    0.2373    3.9964    6.6506 C   0  0  0  0  0  0  0  0  0  0  0  0
    1.0975    3.3795    6.0577 O   0  0  0  0  0  0  0  0  0  0  0  0
    0.4493    4.9754    7.7325 C   0  0  0  0  0  0  0  0  0  0  0  0
    1.6569    5.2762    8.3583 C   0  0  0  0  0  0  0  0  0  0  0  0
    1.5623    6.2596    9.3134 C   0  0  0  0  0  0  0  0  0  0  0  0
    0.3565    6.9064    9.6172 C   0  0  0  0  0  0  0  0  0  0  0  0
   -0.8401    6.6256    9.0026 C   0  0  0  0  0  0  0  0  0  0  0  0
   -0.7672    5.6210    8.0317 C   0  0  0  0  0  0  0  0  0  0  0  0
   -1.8156    5.0547    7.1888 C   0  0  0  0  0  0  0  0  0  0  0  0
   -3.1525    5.3545    7.2565 C   0  0  0  0  0  0  0  0  0  0  0  0
   -3.7117    6.3316    8.1051 C   0  0  0  0  0  0  0  0  0  0  0  0
   -4.2340    7.1174    8.7596 N   0  0  0  0  0  0  0  0  0  0  0  0
   -4.1621    4.7027    6.5180 C   0  0  0  0  0  0  0  0  0  0  0  0
   -5.0433    4.2044    5.9749 N   0  0  0  0  0  0  0  0  0  0  0  0
    0.9965    7.7796   10.6674 C   0  0  0  0  0  0  0  0  0  0  0  0
    0.7541    7.3780   12.1378 C   0  0  0  0  0  0  0  0  0  0  0  0
    1.8558    8.0869   12.8920 C   0  0  0  0  0  0  0  0  0  0  0  0
    2.9986    7.4768   12.6047 C   0  0  0  0  0  0  0  0  0  0  0  0
    2.6884    6.3445   11.6524 C   0  0  0  0  0  0  0  0  0  0  0  0
    1.2983    5.9437   12.1627 C   0  0  0  0  0  0  0  0  0  0  0  0
    2.3407    7.0586   10.3290 C   0  0  0  0  0  0  0  0  0  0  0  0
   -1.3032    2.3342    4.5378 C   0  0  0  0  0  0  0  0  0  0  0  0
   -0.5015    1.2560    4.8991 C   0  0  0  0  0  0  0  0  0  0  0  0
   -0.0030    0.9275    6.2389 C   0  0  0  0  0  0  0  0  0  0  0  0
    1.3758    0.7512    6.3663 C   0  0  0  0  0  0  0  0  0  0  0  0
    1.9416    0.4488    7.5874 C   0  0  0  0  0  0  0  0  0  0  0  0
    1.1275    0.2906    8.6955 C   0  0  0  0  0  0  0  0  0  0  0  0
   -0.2421    0.4184    8.5638 C   0  0  0  0  0  0  0  0  0  0  0  0
   -0.8344    0.7417    7.3478 C   0  0  0  0  0  0  0  0  0  0  0  0
   -2.3380    0.7969    7.2652 C   0  0  0  0  0  0  0  0  0  0  0  0
   -2.9556    1.7310    8.3066 C   0  0  0  0  0  0  0  0  0  0  0  0
   -0.2386    0.4307    3.7938 C   0  0  0  0  0  0  0  0  0  0  0  0
    0.7130   -1.0265    3.6179 S   0  0  0  0  0  0  0  0  0  0  0  0
    0.2999   -1.0594    1.9375 C   0  0  0  0  0  0  0  0  0  0  0  0
    0.5910   -1.7993    0.7839 C   0  0  0  0  0  0  0  0  0  0  0  0
    1.4655   -2.8931    0.6060 C   0  0  0  0  0  0  0  0  0  0  0  0
    1.6827   -3.3922   -0.7169 C   0  0  0  0  0  0  0  0  0  0  0  0
    2.5557   -4.3871   -0.7476 N   0  0  0  0  0  0  0  0  0  0  0  0
    3.0576   -4.6721    0.7647 S   0  0  0  0  0  0  0  0  0  0  0  0
    2.1825   -3.5359    1.5146 N   0  0  0  0  0  0  0  0  0  0  0  0
    0.9598   -2.8202   -1.7860 C   0  0  0  0  0  0  0  0  0  0  0  0
    0.9495   -3.1542   -3.1455 C   0  0  0  0  0  0  0  0  0  0  0  0
    1.7304   -4.2497   -4.2317 S   0  0  0  0  0  0  0  0  0  0  0  0
    0.7722   -3.5890   -5.5384 C   0  0  0  0  0  0  0  0  0  0  0  0
    0.7221   -3.8896   -6.9038 C   0  0  0  0  0  0  0  0  0  0  0  0
    1.5589   -4.9411   -7.4881 C   0  0  0  0  0  0  0  0  0  0  0  0
    1.0543   -6.0387   -8.1944 C   0  0  0  0  0  0  0  0  0  0  0  0
   -0.4237   -6.3169   -8.2966 C   0  0  0  0  0  0  0  0  0  0  0  0
   -0.8549   -6.8747   -9.6530 C   0  0  0  0  0  0  0  0  0  0  0  0
    1.9637   -6.9376   -8.7388 C   0  0  0  0  0  0  0  0  0  0  0  0
    3.3295   -6.7704   -8.5962 C   0  0  0  0  0  0  0  0  0  0  0  0
    3.8194   -5.7076   -7.8596 C   0  0  0  0  0  0  0  0  0  0  0  0
    2.9364   -4.8043   -7.3038 C   0  0  0  0  0  0  0  0  0  0  0  0
   -0.2055   -3.0760   -7.5644 C   0  0  0  0  0  0  0  0  0  0  0  0
   -1.0592   -2.0068   -6.4437 S   0  0  0  0  0  0  0  0  0  0  0  0
   -0.1180   -2.5851   -5.1236 C   0  0  0  0  0  0  0  0  0  0  0  0
   -0.0035   -2.3308   -3.7557 C   0  0  0  0  0  0  0  0  0  0  0  0
   -0.5746   -1.5072   -2.8242 N   0  0  0  0  0  0  0  0  0  0  0  0
    0.0179   -1.7616   -1.6002 C   0  0  0  0  0  0  0  0  0  0  0  0
   -0.1159   -1.1944   -0.3007 C   0  0  0  0  0  0  0  0  0  0  0  0
   -0.7901   -0.0948    0.2010 N   0  0  0  0  0  0  0  0  0  0  0  0
   -0.5447   -0.0180    1.5430 C   0  0  0  0  0  0  0  0  0  0  0  0
   -0.8555    0.8378    2.6045 C   0  0  0  0  0  0  0  0  0  0  0  0
   -1.7999    2.2582    2.8453 S   0  0  0  0  0  0  0  0  0  0  0  0
   -1.5770    0.9498   -0.4106 C   0  0  0  0  0  0  0  0  0  0  0  0
   -3.0750    0.7164   -0.2126 C   0  0  0  0  0  0  0  0  0  0  0  0
   -1.6907   -0.6839   -3.2281 C   0  0  0  0  0  0  0  0  0  0  0  0
   -1.2305    0.5857   -3.9456 C   0  0  0  0  0  0  0  0  0  0  0  0
   -0.6161   -3.0120   -8.9050 C   0  0  0  0  0  0  0  0  0  0  0  0
    0.0896   -3.3868  -10.0224 C   0  0  0  0  0  0  0  0  0  0  0  0
    1.5542   -3.4731  -10.1009 C   0  0  0  0  0  0  0  0  0  0  0  0
    2.3601   -3.1836   -9.2433 O   0  0  0  0  0  0  0  0  0  0  0  0
    1.8571   -3.7852  -11.5176 C   0  0  0  0  0  0  0  0  0  0  0  0
    3.0917   -3.9781  -12.1085 C   0  0  0  0  0  0  0  0  0  0  0  0
    4.5111   -4.0952  -11.1694 Cl  0  0  0  0  0  0  0  0  0  0  0  0
    3.1483   -4.0887  -13.5048 C   0  0  0  0  0  0  0  0  0  0  0  0
    4.6456   -4.3734  -14.2788 Cl  0  0  0  0  0  0  0  0  0  0  0  0
    1.9915   -3.9200  -14.2636 C   0  0  0  0  0  0  0  0  0  0  0  0
    2.1012   -3.9420  -15.9709 Cl  0  0  0  0  0  0  0  0  0  0  0  0
    0.7406   -3.7218  -13.6559 C   0  0  0  0  0  0  0  0  0  0  0  0
   -0.6006   -3.3499  -14.6585 Cl  0  0  0  0  0  0  0  0  0  0  0  0
    0.6652   -3.7348  -12.2689 C   0  0  0  0  0  0  0  0  0  0  0  0
   -0.4574   -3.6398  -11.3364 C   0  0  0  0  0  0  0  0  0  0  0  0
   -1.7623   -3.9956  -11.5714 C   0  0  0  0  0  0  0  0  0  0  0  0
   -2.2788   -4.6124  -12.7299 C   0  0  0  0  0  0  0  0  0  0  0  0
   -2.7888   -5.2042  -13.5709 N   0  0  0  0  0  0  0  0  0  0  0  0
   -2.7636   -3.9738  -10.5753 C   0  0  0  0  0  0  0  0  0  0  0  0
   -3.6284   -3.9938   -9.8199 N   0  0  0  0  0  0  0  0  0  0  0  0
   -2.7496    3.8200    4.9208 H   0  0  0  0  0  0  0  0  0  0  0  0
    2.5632    4.7578    8.0871 H   0  0  0  0  0  0  0  0  0  0  0  0
   -1.7566    7.1405    9.2377 H   0  0  0  0  0  0  0  0  0  0  0  0
    0.9239    8.8527   10.5017 H   0  0  0  0  0  0  0  0  0  0  0  0
   -0.2613    7.5354   12.4908 H   0  0  0  0  0  0  0  0  0  0  0  0
    1.7032    8.9645   13.4922 H   0  0  0  0  0  0  0  0  0  0  0  0
    3.9913    7.7432   12.9170 H   0  0  0  0  0  0  0  0  0  0  0  0
    3.4358    5.5605   11.5642 H   0  0  0  0  0  0  0  0  0  0  0  0
    1.3324    5.5342   13.1709 H   0  0  0  0  0  0  0  0  0  0  0  0
    0.7669    5.2554   11.5079 H   0  0  0  0  0  0  0  0  0  0  0  0
    3.1648    7.6511    9.9357 H   0  0  0  0  0  0  0  0  0  0  0  0
    2.0024    0.8880    5.4992 H   0  0  0  0  0  0  0  0  0  0  0  0
    3.0113    0.3324    7.6722 H   0  0  0  0  0  0  0  0  0  0  0  0
    1.5557    0.0520    9.6580 H   0  0  0  0  0  0  0  0  0  0  0  0
   -0.8726    0.2530    9.4247 H   0  0  0  0  0  0  0  0  0  0  0  0
   -2.6526    1.1131    6.2712 H   0  0  0  0  0  0  0  0  0  0  0  0
   -2.7283   -0.2133    7.4237 H   0  0  0  0  0  0  0  0  0  0  0  0
   -2.4428    2.6899    8.3092 H   0  0  0  0  0  0  0  0  0  0  0  0
   -2.8867    1.3103    9.3061 H   0  0  0  0  0  0  0  0  0  0  0  0
   -4.0056    1.9008    8.0804 H   0  0  0  0  0  0  0  0  0  0  0  0
   -0.9922   -5.4111   -8.0889 H   0  0  0  0  0  0  0  0  0  0  0  0
   -0.6850   -7.0422   -7.5186 H   0  0  0  0  0  0  0  0  0  0  0  0
   -0.5835   -7.9216   -9.7582 H   0  0  0  0  0  0  0  0  0  0  0  0
   -1.9348   -6.7984   -9.7579 H   0  0  0  0  0  0  0  0  0  0  0  0
   -0.3879   -6.3193  -10.4640 H   0  0  0  0  0  0  0  0  0  0  0  0
    1.5959   -7.7942   -9.2819 H   0  0  0  0  0  0  0  0  0  0  0  0
    4.0071   -7.4791   -9.0489 H   0  0  0  0  0  0  0  0  0  0  0  0
    4.8818   -5.5773   -7.7222 H   0  0  0  0  0  0  0  0  0  0  0  0
    3.3085   -3.9559   -6.7515 H   0  0  0  0  0  0  0  0  0  0  0  0
   -1.3037    1.8883    0.0832 H   0  0  0  0  0  0  0  0  0  0  0  0
   -1.3146    1.0448   -1.4593 H   0  0  0  0  0  0  0  0  0  0  0  0
   -3.3756   -0.2692   -0.5627 H   0  0  0  0  0  0  0  0  0  0  0  0
   -3.3264    0.7876    0.8423 H   0  0  0  0  0  0  0  0  0  0  0  0
   -3.6411    1.4709   -0.7514 H   0  0  0  0  0  0  0  0  0  0  0  0
   -2.3137   -0.4627   -2.3665 H   0  0  0  0  0  0  0  0  0  0  0  0
   -2.2927   -1.2768   -3.9253 H   0  0  0  0  0  0  0  0  0  0  0  0
   -0.7745    0.3316   -4.8985 H   0  0  0  0  0  0  0  0  0  0  0  0
   -2.0831    1.2316   -4.1353 H   0  0  0  0  0  0  0  0  0  0  0  0
   -0.4946    1.1326   -3.3595 H   0  0  0  0  0  0  0  0  0  0  0  0
   -1.6016   -2.5854   -9.0542 H   0  0  0  0  0  0  0  0  0  0  0  0
  1  2  2  0  0  0  0
  2  3  1  0  0  0  0
  3  4  2  0  0  0  0
  3  5  1  0  0  0  0
  5  6  2  0  0  0  0
  6  7  1  0  0  0  0
  7  8  2  0  0  0  0
  8  9  1  0  0  0  0
  9 10  2  0  0  0  0
 10 11  1  0  0  0  0
 11 12  2  0  0  0  0
 12 13  1  0  0  0  0
 13 14  3  0  0  0  0
 12 15  1  0  0  0  0
 15 16  3  0  0  0  0
  8 17  1  0  0  0  0
 17 18  1  0  0  0  0
 18 19  1  0  0  0  0
 19 20  2  0  0  0  0
 20 21  1  0  0  0  0
 21 22  1  0  0  0  0
 21 23  1  0  0  0  0
  1 24  1  0  0  0  0
 24 25  2  0  0  0  0
 25 26  1  0  0  0  0
 26 27  2  0  0  0  0
 27 28  1  0  0  0  0
 28 29  2  0  0  0  0
 29 30  1  0  0  0  0
 30 31  2  0  0  0  0
 31 32  1  0  0  0  0
 32 33  1  0  0  0  0
 25 34  1  0  0  0  0
 34 35  1  0  0  0  0
 35 36  1  0  0  0  0
 36 37  1  0  0  0  0
 37 38  1  0  0  0  0
 38 39  1  0  0  0  0
 39 40  2  0  0  0  0
 40 41  1  0  0  0  0
 41 42  1  0  0  0  0
 39 43  1  0  0  0  0
 43 44  1  0  0  0  0
 44 45  1  0  0  0  0
 45 46  1  0  0  0  0
 46 47  1  0  0  0  0
 47 48  1  0  0  0  0
 48 49  2  0  0  0  0
 49 50  1  0  0  0  0
 50 51  1  0  0  0  0
 49 52  1  0  0  0  0
 52 53  2  0  0  0  0
 53 54  1  0  0  0  0
 54 55  2  0  0  0  0
 47 56  2  0  0  0  0
 56 57  1  0  0  0  0
 57 58  1  0  0  0  0
 58 59  1  0  0  0  0
 59 60  1  0  0  0  0
 60 61  1  0  0  0  0
 61 62  1  0  0  0  0
 62 63  1  0  0  0  0
 63 64  1  0  0  0  0
 64 65  1  0  0  0  0
 65 66  1  0  0  0  0
 63 67  1  0  0  0  0
 67 68  1  0  0  0  0
 60 69  1  0  0  0  0
 69 70  1  0  0  0  0
 56 71  1  0  0  0  0
 71 72  2  0  0  0  0
 72 73  1  0  0  0  0
 73 74  2  0  0  0  0
 73 75  1  0  0  0  0
 75 76  2  0  0  0  0
 76 77  1  0  0  0  0
 76 78  1  0  0  0  0
 78 79  1  0  0  0  0
 78 80  2  0  0  0  0
 80 81  1  0  0  0  0
 80 82  1  0  0  0  0
 82 83  1  0  0  0  0
 82 84  2  0  0  0  0
 84 85  1  0  0  0  0
 85 86  2  0  0  0  0
 86 87  1  0  0  0  0
 87 88  3  0  0  0  0
 86 89  1  0  0  0  0
 89 90  3  0  0  0  0
 11  2  1  0  0  0  0
 23 17  1  0  0  0  0
 66 24  1  0  0  0  0
 85 72  1  0  0  0  0
 10  5  1  0  0  0  0
 22 18  1  0  0  0  0
 31 26  1  0  0  0  0
 65 34  2  0  0  0  0
 84 75  1  0  0  0  0
 23  7  1  0  0  0  0
 64 36  2  0  0  0  0
 62 37  2  0  0  0  0
 42 38  2  0  0  0  0
 61 43  2  0  0  0  0
 59 44  2  0  0  0  0
 58 46  2  0  0  0  0
 55 48  1  0  0  0  0
  1 91  1  0  0  0  0
  6 92  1  0  0  0  0
  9 93  1  0  0  0  0
 17 94  1  0  0  0  0
 18 95  1  0  0  0  0
 19 96  1  0  0  0  0
 20 97  1  0  0  0  0
 21 98  1  0  0  0  0
 22 99  1  0  0  0  0
 22100  1  0  0  0  0
 23101  1  0  0  0  0
 27102  1  0  0  0  0
 28103  1  0  0  0  0
 29104  1  0  0  0  0
 30105  1  0  0  0  0
 32106  1  0  0  0  0
 32107  1  0  0  0  0
 33108  1  0  0  0  0
 33109  1  0  0  0  0
 33110  1  0  0  0  0
 50111  1  0  0  0  0
 50112  1  0  0  0  0
 51113  1  0  0  0  0
 51114  1  0  0  0  0
 51115  1  0  0  0  0
 52116  1  0  0  0  0
 53117  1  0  0  0  0
 54118  1  0  0  0  0
 55119  1  0  0  0  0
 67120  1  0  0  0  0
 67121  1  0  0  0  0
 68122  1  0  0  0  0
 68123  1  0  0  0  0
 68124  1  0  0  0  0
 69125  1  0  0  0  0
 69126  1  0  0  0  0
 70127  1  0  0  0  0
 70128  1  0  0  0  0
 70129  1  0  0  0  0
 71130  1  0  0  0  0
M  END
