125

C          4.68760        1.76510        5.26700
C          5.99310        1.83820        4.87740
C          6.59520        1.32800        3.62020
O          6.04870        0.99740        2.58760
C          8.04550        1.23980        3.88170
C          9.01240        0.72870        3.01880
C         10.28720        0.75380        3.52960
C         10.58130        1.24990        4.80690
C          9.63840        1.76320        5.66510
C          8.33350        1.74680        5.16320
C          7.08470        2.19240        5.77070
C          6.97260        2.89960        6.93930
C          5.76940        3.42600        7.45600
N          4.84320        3.91000        7.93290
C          8.05900        3.24460        7.76920
N          8.89500        3.55280        8.49380
C         12.05270        0.94720        4.67250
C         12.60230       -0.30250        5.40380
C         11.44900       -1.26600        5.53460
C         11.17180       -1.73270        4.32440
C         12.13280       -1.09270        3.35320
C         13.37470       -0.96030        4.24900
C         11.72560        0.39790        3.24810
C          3.52350        1.44260        4.50190
C          2.42840        0.86110        5.18730
C          1.29790        0.44840        4.53490
C          1.20450        0.62990        3.14930
C          0.26420        0.34350        2.13900
C          0.77890        0.82970        0.92920
N          1.99460        1.40710        1.12660
C          2.27950        1.29510        2.46670
C          3.41760        1.69850        3.13240
C          2.80530        2.05830        0.13030
C          2.62940        3.57530        0.17340
C         -0.12720        0.48040       -0.08230
C         -0.07480        0.58200       -1.48660
C         -1.09070       -0.02080       -2.27420
N         -0.76990        0.16160       -3.55800
N          0.35620        0.83450       -3.51580
C          1.06100        1.20500       -4.70790
C          2.08750        0.14000       -5.08410
N          0.82410        1.11080       -2.32120
C         -2.20060       -0.61860       -1.64500
C         -2.31020       -0.63380       -0.22140
C         -1.21210       -0.19030        0.55990
N         -0.94720       -0.26980        1.92160
C         -1.46060       -1.21380        2.88930
C         -1.39390       -2.65150        2.37950
N         -3.54000       -1.17830        0.13020
C         -4.31720       -0.95390        1.33030
C         -4.33000        0.51700        1.73860
C         -4.17390       -1.53830       -1.03670
C         -3.36990       -1.21400       -2.14010
N         -3.97300       -1.59460       -3.29710
C         -3.49440       -1.33820       -4.63210
C         -4.26510       -0.20010       -5.29830
C         -5.18150       -2.15660       -2.95350
C         -5.34420       -2.14610       -1.52420
C         -6.49450       -2.72720       -0.97290
C         -7.43550       -3.26380       -1.80730
C         -7.29850       -3.23870       -3.22030
C         -6.13430       -2.70080       -3.78410
C         -8.34100       -3.82670       -3.99030
C         -8.68910       -3.66630       -5.30620
C         -8.27990       -2.58920       -6.23340
O         -7.43320       -1.73020       -6.09320
C         -9.18360       -2.70820       -7.40130
C         -9.23030       -1.90520       -8.52180
C        -10.17740       -2.21210       -9.49120
Cl       -10.27800       -1.24550      -10.91550
C        -11.04750       -3.28450       -9.33380
C        -10.99110       -4.08630       -8.20380
C        -10.04900       -3.79960       -7.22650
C         -9.73400       -4.44070       -5.95410
C        -10.27990       -5.61710       -5.50720
C        -11.28800       -6.32780       -6.19060
N        -12.11350       -6.94930       -6.69160
C         -9.90160       -6.30950       -4.33760
N         -9.64510       -6.95560       -3.42270
H          4.49590        1.89690        6.32660
H          8.74180        0.35440        2.04370
H          9.87840        2.13760        6.64630
H         12.72400        1.80030        4.74870
H         13.15240       -0.08600        6.31560
H         10.93200       -1.45960        6.45620
H         10.37660       -2.39380        4.03290
H         12.25600       -1.59610        2.39770
H         14.14900       -0.32190        3.82570
H         13.80150       -1.92410        4.52260
H         12.18270        0.89380        2.39390
H          2.50970        0.71660        6.25460
H          0.48940       -0.00220        5.09180
H          4.20660        2.21230        2.61320
H          3.85160        1.79210        0.30500
H          2.49170        1.68100       -0.84600
H          1.59420        3.83680       -0.03320
H          3.26220        4.04280       -0.57560
H          2.89760        3.96650        1.15210
H          0.32070        1.32070       -5.50190
H          1.55650        2.15920       -4.51650
H          2.61440        0.43630       -5.98650
H          2.80910        0.01550       -4.28030
H          1.59300       -0.81180       -5.26270
H         -0.82400       -1.12200        3.77020
H         -2.47440       -0.94680        3.19400
H         -0.36360       -2.91390        2.14980
H         -1.76300       -3.33170        3.14280
H         -1.98690       -2.78140        1.47810
H         -3.96820       -1.59010        2.14680
H         -5.33680       -1.26240        1.09380
H         -4.94350        0.64820        2.62630
H         -4.74830        1.12000        0.93570
H         -3.32770        0.88040        1.94900
H         -3.58970       -2.25300       -5.22570
H         -2.43840       -1.07010       -4.54860
H         -4.18110        0.70490       -4.70130
H         -3.84930       -0.00570       -6.28300
H         -5.31640       -0.45320       -5.40830
H         -6.63340       -2.77010        0.09740
H         -8.32310       -3.71390       -1.38800
H         -5.97870       -2.73810       -4.84690
H         -8.98430       -4.48400       -3.41550
H         -8.55220       -1.07380       -8.63290
H        -11.77550       -3.49270      -10.10200
H        -11.67970       -4.90880       -8.10230
