
  xtb     02022210043D
 energy: -195.607444746622 gnorm: 0.000279613566 xtb: 6.4.1 (unknown)
110125  0     0  0            999 V2000
   -5.2370   -3.2443    1.0462 C   0  0  0  0  0  0  0  0  0  0  0  0
   -5.3832   -4.1662    2.0366 C   0  0  0  0  0  0  0  0  0  0  0  0
   -4.2470   -4.9099    2.6377 C   0  0  0  0  0  0  0  0  0  0  0  0
   -3.1106   -4.9869    2.2239 O   0  0  0  0  0  0  0  0  0  0  0  0
   -4.7514   -5.4147    3.9282 C   0  0  0  0  0  0  0  0  0  0  0  0
   -4.0160   -6.0869    4.9028 C   0  0  0  0  0  0  0  0  0  0  0  0
   -4.7337   -6.3930    6.0337 C   0  0  0  0  0  0  0  0  0  0  0  0
   -6.0843   -6.0518    6.1909 C   0  0  0  0  0  0  0  0  0  0  0  0
   -6.8216   -5.3869    5.2404 C   0  0  0  0  0  0  0  0  0  0  0  0
   -6.1099   -5.0681    4.0794 C   0  0  0  0  0  0  0  0  0  0  0  0
   -6.5410   -4.3468    2.8880 C   0  0  0  0  0  0  0  0  0  0  0  0
   -7.8217   -3.9748    2.5744 C   0  0  0  0  0  0  0  0  0  0  0  0
   -8.1815   -3.3634    1.3547 C   0  0  0  0  0  0  0  0  0  0  0  0
   -8.5368   -2.8859    0.3728 N   0  0  0  0  0  0  0  0  0  0  0  0
   -8.9411   -4.1943    3.4023 C   0  0  0  0  0  0  0  0  0  0  0  0
   -9.8868   -4.3427    4.0362 N   0  0  0  0  0  0  0  0  0  0  0  0
   -6.1567   -6.6493    7.5739 C   0  0  0  0  0  0  0  0  0  0  0  0
   -6.8458   -8.0244    7.6996 C   0  0  0  0  0  0  0  0  0  0  0  0
   -6.3489   -8.5565    9.0245 C   0  0  0  0  0  0  0  0  0  0  0  0
   -5.0709   -8.8807    8.8756 C   0  0  0  0  0  0  0  0  0  0  0  0
   -4.6821   -8.5731    7.4475 C   0  0  0  0  0  0  0  0  0  0  0  0
   -6.0084   -8.8804    6.7405 C   0  0  0  0  0  0  0  0  0  0  0  0
   -4.6517   -7.0309    7.3979 C   0  0  0  0  0  0  0  0  0  0  0  0
   -4.1236   -3.1509    0.1666 C   0  0  0  0  0  0  0  0  0  0  0  0
   -3.4822   -4.1209   -0.5838 C   0  0  0  0  0  0  0  0  0  0  0  0
   -3.9168   -5.5461   -0.7033 C   0  0  0  0  0  0  0  0  0  0  0  0
   -2.7937   -6.5295   -0.3771 C   0  0  0  0  0  0  0  0  0  0  0  0
   -2.4457   -3.5597   -1.3487 C   0  0  0  0  0  0  0  0  0  0  0  0
   -2.2800   -2.1802   -1.1771 C   0  0  0  0  0  0  0  0  0  0  0  0
   -3.4734   -1.5380   -0.1130 S   0  0  0  0  0  0  0  0  0  0  0  0
   -1.1953   -1.6871   -1.9099 C   0  0  0  0  0  0  0  0  0  0  0  0
   -0.5582   -2.6939   -2.6443 C   0  0  0  0  0  0  0  0  0  0  0  0
   -1.2875   -4.2505   -2.4629 S   0  0  0  0  0  0  0  0  0  0  0  0
    0.5717   -2.1144   -3.2403 C   0  0  0  0  0  0  0  0  0  0  0  0
    1.6544   -2.6889   -3.9440 C   0  0  0  0  0  0  0  0  0  0  0  0
    1.8017   -3.9399   -4.3498 N   0  0  0  0  0  0  0  0  0  0  0  0
    3.2729   -4.0978   -5.0063 S   0  0  0  0  0  0  0  0  0  0  0  0
    3.7812   -2.5758   -4.7959 N   0  0  0  0  0  0  0  0  0  0  0  0
    2.8155   -1.8867   -4.2095 C   0  0  0  0  0  0  0  0  0  0  0  0
    2.7945   -0.5159   -3.8674 C   0  0  0  0  0  0  0  0  0  0  0  0
    3.7507    0.5012   -4.0048 C   0  0  0  0  0  0  0  0  0  0  0  0
    5.3952    0.6983   -4.5101 S   0  0  0  0  0  0  0  0  0  0  0  0
    5.2856    2.4000   -4.1025 C   0  0  0  0  0  0  0  0  0  0  0  0
    6.1878    3.4448   -4.1251 C   0  0  0  0  0  0  0  0  0  0  0  0
    5.6448    4.6396   -3.6434 C   0  0  0  0  0  0  0  0  0  0  0  0
    3.9582    4.4467   -3.1757 S   0  0  0  0  0  0  0  0  0  0  0  0
    4.0179    2.7817   -3.6175 C   0  0  0  0  0  0  0  0  0  0  0  0
    3.1511    1.6895   -3.5679 C   0  0  0  0  0  0  0  0  0  0  0  0
    1.8603    1.4476   -3.1680 N   0  0  0  0  0  0  0  0  0  0  0  0
    0.9006    2.5307   -3.2236 C   0  0  0  0  0  0  0  0  0  0  0  0
    0.7942    3.1022   -4.6375 C   0  0  0  0  0  0  0  0  0  0  0  0
    1.6347    0.0899   -3.3018 C   0  0  0  0  0  0  0  0  0  0  0  0
    0.5702   -0.7394   -2.8702 C   0  0  0  0  0  0  0  0  0  0  0  0
   -0.5172   -0.5063   -2.0497 N   0  0  0  0  0  0  0  0  0  0  0  0
   -0.7937    0.5954   -1.1548 C   0  0  0  0  0  0  0  0  0  0  0  0
   -2.0535    1.3610   -1.5602 C   0  0  0  0  0  0  0  0  0  0  0  0
    6.4085    5.8088   -3.5360 C   0  0  0  0  0  0  0  0  0  0  0  0
    6.0844    7.0393   -3.0199 C   0  0  0  0  0  0  0  0  0  0  0  0
    4.7897    7.4060   -2.4382 C   0  0  0  0  0  0  0  0  0  0  0  0
    3.7780    6.7241   -2.3890 O   0  0  0  0  0  0  0  0  0  0  0  0
    4.9440    8.7710   -1.9145 C   0  0  0  0  0  0  0  0  0  0  0  0
    4.0344    9.5414   -1.2505 C   0  0  0  0  0  0  0  0  0  0  0  0
    4.4128   10.8319   -0.8165 C   0  0  0  0  0  0  0  0  0  0  0  0
    3.5213   11.6715   -0.1209 C   0  0  0  0  0  0  0  0  0  0  0  0
    3.9124   12.9156    0.2950 C   0  0  0  0  0  0  0  0  0  0  0  0
    5.2116   13.3737    0.0324 C   0  0  0  0  0  0  0  0  0  0  0  0
    6.1015   12.5825   -0.6424 C   0  0  0  0  0  0  0  0  0  0  0  0
    5.7322   11.2963   -1.0845 C   0  0  0  0  0  0  0  0  0  0  0  0
    6.6507   10.4752   -1.7800 C   0  0  0  0  0  0  0  0  0  0  0  0
    6.2642    9.2280   -2.1914 C   0  0  0  0  0  0  0  0  0  0  0  0
    6.9800    8.1737   -2.9055 C   0  0  0  0  0  0  0  0  0  0  0  0
    8.2630    8.2752   -3.3813 C   0  0  0  0  0  0  0  0  0  0  0  0
    8.9618    7.2795   -4.0938 C   0  0  0  0  0  0  0  0  0  0  0  0
    9.5992    6.5274   -4.6843 N   0  0  0  0  0  0  0  0  0  0  0  0
    9.0724    9.4202   -3.2304 C   0  0  0  0  0  0  0  0  0  0  0  0
    9.7858   10.3158   -3.1426 N   0  0  0  0  0  0  0  0  0  0  0  0
   -5.9757   -2.4556    0.9520 H   0  0  0  0  0  0  0  0  0  0  0  0
   -2.9743   -6.3208    4.7476 H   0  0  0  0  0  0  0  0  0  0  0  0
   -7.8546   -5.1136    5.3789 H   0  0  0  0  0  0  0  0  0  0  0  0
   -6.4301   -5.9618    8.3721 H   0  0  0  0  0  0  0  0  0  0  0  0
   -7.9217   -8.0096    7.5499 H   0  0  0  0  0  0  0  0  0  0  0  0
   -6.9431   -8.5888    9.9188 H   0  0  0  0  0  0  0  0  0  0  0  0
   -4.3841   -9.2376    9.6206 H   0  0  0  0  0  0  0  0  0  0  0  0
   -3.7870   -9.0589    7.0685 H   0  0  0  0  0  0  0  0  0  0  0  0
   -6.2696   -9.9357    6.7965 H   0  0  0  0  0  0  0  0  0  0  0  0
   -6.0457   -8.5506    5.7039 H   0  0  0  0  0  0  0  0  0  0  0  0
   -3.9214   -6.5977    8.0789 H   0  0  0  0  0  0  0  0  0  0  0  0
   -4.2453   -5.7096   -1.7349 H   0  0  0  0  0  0  0  0  0  0  0  0
   -4.7682   -5.7232   -0.0450 H   0  0  0  0  0  0  0  0  0  0  0  0
   -1.9770   -6.4305   -1.0870 H   0  0  0  0  0  0  0  0  0  0  0  0
   -2.4138   -6.3395    0.6224 H   0  0  0  0  0  0  0  0  0  0  0  0
   -3.1724   -7.5475   -0.4236 H   0  0  0  0  0  0  0  0  0  0  0  0
    7.2069    3.3689   -4.4588 H   0  0  0  0  0  0  0  0  0  0  0  0
   -0.0755    2.1629   -2.9299 H   0  0  0  0  0  0  0  0  0  0  0  0
    1.2243    3.3152   -2.5327 H   0  0  0  0  0  0  0  0  0  0  0  0
    1.7350    3.5438   -4.9525 H   0  0  0  0  0  0  0  0  0  0  0  0
    0.5214    2.3188   -5.3419 H   0  0  0  0  0  0  0  0  0  0  0  0
    0.0297    3.8738   -4.6582 H   0  0  0  0  0  0  0  0  0  0  0  0
   -0.9502    0.1770   -0.1541 H   0  0  0  0  0  0  0  0  0  0  0  0
    0.0809    1.2442   -1.1068 H   0  0  0  0  0  0  0  0  0  0  0  0
   -2.0231    1.6637   -2.6046 H   0  0  0  0  0  0  0  0  0  0  0  0
   -2.1601    2.2467   -0.9405 H   0  0  0  0  0  0  0  0  0  0  0  0
   -2.9314    0.7363   -1.4205 H   0  0  0  0  0  0  0  0  0  0  0  0
    7.4211    5.6838   -3.9001 H   0  0  0  0  0  0  0  0  0  0  0  0
    3.0393    9.1701   -1.0547 H   0  0  0  0  0  0  0  0  0  0  0  0
    2.5220   11.3130    0.0788 H   0  0  0  0  0  0  0  0  0  0  0  0
    3.2228   13.5526    0.8285 H   0  0  0  0  0  0  0  0  0  0  0  0
    5.5047   14.3574    0.3674 H   0  0  0  0  0  0  0  0  0  0  0  0
    7.1031   12.9311   -0.8472 H   0  0  0  0  0  0  0  0  0  0  0  0
    7.6419   10.8576   -1.9643 H   0  0  0  0  0  0  0  0  0  0  0  0
  1  2  2  0  0  0  0
  2  3  1  0  0  0  0
  3  4  2  0  0  0  0
  3  5  1  0  0  0  0
  5  6  2  0  0  0  0
  6  7  1  0  0  0  0
  7  8  2  0  0  0  0
  8  9  1  0  0  0  0
  9 10  2  0  0  0  0
 10 11  1  0  0  0  0
 11 12  2  0  0  0  0
 12 13  1  0  0  0  0
 13 14  3  0  0  0  0
 12 15  1  0  0  0  0
 15 16  3  0  0  0  0
  8 17  1  0  0  0  0
 17 18  1  0  0  0  0
 18 19  1  0  0  0  0
 19 20  2  0  0  0  0
 20 21  1  0  0  0  0
 21 22  1  0  0  0  0
 21 23  1  0  0  0  0
  1 24  1  0  0  0  0
 24 25  2  0  0  0  0
 25 26  1  0  0  0  0
 26 27  1  0  0  0  0
 25 28  1  0  0  0  0
 28 29  2  0  0  0  0
 29 30  1  0  0  0  0
 29 31  1  0  0  0  0
 31 32  2  0  0  0  0
 32 33  1  0  0  0  0
 32 34  1  0  0  0  0
 34 35  1  0  0  0  0
 35 36  2  0  0  0  0
 36 37  1  0  0  0  0
 37 38  1  0  0  0  0
 38 39  2  0  0  0  0
 39 40  1  0  0  0  0
 40 41  1  0  0  0  0
 41 42  1  0  0  0  0
 42 43  1  0  0  0  0
 43 44  1  0  0  0  0
 44 45  2  0  0  0  0
 45 46  1  0  0  0  0
 46 47  1  0  0  0  0
 47 48  1  0  0  0  0
 48 49  1  0  0  0  0
 49 50  1  0  0  0  0
 50 51  1  0  0  0  0
 49 52  1  0  0  0  0
 52 53  1  0  0  0  0
 53 54  1  0  0  0  0
 54 55  1  0  0  0  0
 55 56  1  0  0  0  0
 45 57  1  0  0  0  0
 57 58  2  0  0  0  0
 58 59  1  0  0  0  0
 59 60  2  0  0  0  0
 59 61  1  0  0  0  0
 61 62  2  0  0  0  0
 62 63  1  0  0  0  0
 63 64  2  0  0  0  0
 64 65  1  0  0  0  0
 65 66  2  0  0  0  0
 66 67  1  0  0  0  0
 67 68  2  0  0  0  0
 68 69  1  0  0  0  0
 69 70  2  0  0  0  0
 70 71  1  0  0  0  0
 71 72  2  0  0  0  0
 72 73  1  0  0  0  0
 73 74  3  0  0  0  0
 72 75  1  0  0  0  0
 75 76  3  0  0  0  0
 11  2  1  0  0  0  0
 23 17  1  0  0  0  0
 30 24  1  0  0  0  0
 54 31  1  0  0  0  0
 71 58  1  0  0  0  0
 10  5  1  0  0  0  0
 22 18  1  0  0  0  0
 33 28  1  0  0  0  0
 53 34  2  0  0  0  0
 70 61  1  0  0  0  0
 23  7  1  0  0  0  0
 39 35  1  0  0  0  0
 52 40  2  0  0  0  0
 68 63  1  0  0  0  0
 48 41  2  0  0  0  0
 47 43  2  0  0  0  0
  1 77  1  0  0  0  0
  6 78  1  0  0  0  0
  9 79  1  0  0  0  0
 17 80  1  0  0  0  0
 18 81  1  0  0  0  0
 19 82  1  0  0  0  0
 20 83  1  0  0  0  0
 21 84  1  0  0  0  0
 22 85  1  0  0  0  0
 22 86  1  0  0  0  0
 23 87  1  0  0  0  0
 26 88  1  0  0  0  0
 26 89  1  0  0  0  0
 27 90  1  0  0  0  0
 27 91  1  0  0  0  0
 27 92  1  0  0  0  0
 44 93  1  0  0  0  0
 50 94  1  0  0  0  0
 50 95  1  0  0  0  0
 51 96  1  0  0  0  0
 51 97  1  0  0  0  0
 51 98  1  0  0  0  0
 55 99  1  0  0  0  0
 55100  1  0  0  0  0
 56101  1  0  0  0  0
 56102  1  0  0  0  0
 56103  1  0  0  0  0
 57104  1  0  0  0  0
 62105  1  0  0  0  0
 64106  1  0  0  0  0
 65107  1  0  0  0  0
 66108  1  0  0  0  0
 67109  1  0  0  0  0
 69110  1  0  0  0  0
M  END
