101

C          4.53280        2.08990        2.41620
C          3.96580        3.33800        2.37100
C          2.79830        3.73300        1.57870
O          2.10160        3.01860        0.87590
C          2.62220        5.17900        1.79120
C          1.65480        6.00050        1.21630
C          1.74210        7.31790        1.59730
C          2.72270        7.78510        2.48240
C          3.68380        6.98590        3.05490
C          3.61070        5.63970        2.68450
C          4.44790        4.50760        3.07910
C          5.48090        4.56380        3.98050
C          6.28150        3.47650        4.38720
N          6.97770        2.64710        4.77280
C          5.89090        5.73260        4.65570
N          6.28070        6.63800        5.24460
C          2.21780        9.20490        2.41980
C          1.38710        9.69530        3.62460
C          0.64520       10.89750        3.08630
C         -0.28390       10.45630        2.24810
C         -0.18610        8.94820        2.20610
C          0.24480        8.67140        3.65230
C          1.12370        8.68420        1.43320
C          4.16420        0.88990        1.79710
C          4.90240       -0.29670        1.93840
C          6.18540       -0.44440        2.68920
C          7.37220        0.01000        1.83500
C          4.31800       -1.34260        1.23590
C          3.13160       -0.99480        0.56850
S          2.73710        0.67030        0.78350
C          2.59040       -2.09870       -0.09900
C          3.36920       -3.25200        0.05520
S          4.77750       -3.02280        1.03110
C          2.74500       -4.26720       -0.67860
C          3.15890       -5.58940       -0.95420
N          4.24530       -6.21930       -0.53620
S          4.27160       -7.69370       -1.20450
N          2.89580       -7.58470       -2.05100
C          2.36730       -6.39010       -1.83880
C          1.14560       -5.86780       -2.31920
C          0.13550       -6.46840       -3.07770
S         -0.18310       -7.97220       -3.87230
C         -1.76710       -7.36470       -4.31040
C         -2.82970       -7.90800       -5.00260
C         -3.91910       -7.03640       -5.09620
S         -3.59060       -5.50150       -4.29780
C         -2.01720       -6.05220       -3.85550
C         -0.91820       -5.54780       -3.15690
N         -0.57910       -4.39330       -2.50270
C         -1.61300       -3.43720       -2.17300
C         -1.95690       -3.47860       -0.68630
C          0.69160       -4.55660       -1.98060
C          1.55540       -3.70880       -1.23620
N          1.49550       -2.37400       -0.87260
C          0.73420       -1.28060       -1.43580
C          0.98750       -1.13760       -2.93440
C         -5.10180       -7.39610       -5.75110
C         -6.26870       -6.69590       -5.94380
C         -6.53190       -5.32660       -5.47440
O         -5.78080       -4.60160       -4.84620
C         -7.89270       -5.01680       -5.92290
C         -8.42910       -6.14300       -6.62680
C         -9.69430       -5.93820       -7.07910
S        -10.26230       -4.36250       -6.65540
C         -8.76020       -3.97020       -5.85040
Cl        -8.52400       -2.46240       -5.11310
C         -7.43310       -7.19940       -6.64780
C         -7.62280       -8.42340       -7.23750
C         -8.83500       -8.74190       -7.88380
N         -9.81430       -9.01840       -8.41470
C         -6.69420       -9.48050       -7.28080
N         -5.98680      -10.38270       -7.35480
H          5.42290        1.99710        3.02290
H          0.92180        5.59930        0.53390
H          4.43450        7.36460        3.72780
H          2.93040        9.94650        2.06400
H          1.95440        9.83890        4.54000
H          0.90110       11.91430        3.32000
H         -0.95920       11.03090        1.64150
H         -1.05340        8.41210        1.82980
H         -0.52900        8.93780        4.37030
H          0.57010        7.64810        3.83080
H          1.10660        9.07910        0.41890
H          6.16600        0.12900        3.61730
H          6.31230       -1.49900        2.94200
H          7.27130        1.05780        1.56130
H          7.43180       -0.58240        0.92490
H          8.29580       -0.11300        2.39330
H         -2.84300       -8.89420       -5.43020
H         -1.32640       -2.43570       -2.49290
H         -2.49430       -3.71980       -2.75370
H         -2.33180       -4.46410       -0.42010
H         -2.72750       -2.74540       -0.46480
H         -1.08420       -3.27040       -0.07140
H         -0.32690       -1.39610       -1.21500
H          1.07070       -0.37420       -0.92680
H          0.39350       -0.31960       -3.33250
H          0.73460       -2.05060       -3.46900
H          2.03780       -0.92000       -3.11340
H         -5.06700       -8.39720       -6.16470
H        -10.33710       -6.59530       -7.63020
