95

C          2.63170        1.85640       -6.22460
C          3.92780        1.49670       -6.02330
C          5.01870        2.19240       -6.75950
O          4.89670        2.89860       -7.73440
C          6.25150        1.88420       -6.00780
C          7.52710        2.39860       -6.22880
C          8.47810        1.93570       -5.35110
C          8.18380        1.04080       -4.31280
C          6.93230        0.52100       -4.08420
C          5.95630        0.96370       -4.97940
C          4.55120        0.58370       -5.08990
C          4.01460       -0.59740       -4.64090
C          4.69550       -1.51400       -3.81630
N          5.19230       -2.28710       -3.12800
C          2.74830       -1.06820       -5.04650
N          1.73920       -1.50080       -5.38410
C          9.61060        1.01070       -3.82640
C         10.45960       -0.23570       -4.17790
C          9.87070       -0.81060       -5.44260
C         10.14890        0.02530       -6.43410
C         10.93100        1.17990       -5.85810
C         11.70890        0.45320       -4.74940
C          9.94110        1.99730       -4.99060
C          1.50580        1.65220       -5.39260
C          0.19120        1.78230       -5.79810
C         -0.75260        1.57090       -4.79530
S         -2.50040        1.55650       -4.85740
C         -2.53440        1.18850       -3.17090
C         -3.46310        0.87920       -2.16920
C         -4.86530        0.73330       -2.24470
C         -5.57520        0.29490       -1.08240
N         -6.87370        0.15910       -1.30220
S         -7.17490        0.55300       -2.84250
N         -5.66120        0.91180       -3.28760
C         -4.85870        0.10370        0.11900
C         -5.31860       -0.22790        1.39880
C         -4.20930       -0.18760        2.25230
N         -3.08800        0.14420        1.53990
C         -1.86000        0.38070        2.25960
C         -1.15010       -0.92370        2.62230
C         -3.44810        0.31160        0.21460
C         -2.72770        0.62990       -0.97040
N         -1.38150        0.76010       -1.26870
C         -1.26560        1.09980       -2.58870
C         -0.23810        1.31410       -3.51280
Se         1.62420        1.31510       -3.52870
C         -0.17950        0.43950       -0.53760
C          0.54910        1.69510       -0.05860
C         -4.54590       -0.45230        3.58200
C         -5.92920       -0.71080        3.71310
S         -6.79970       -0.61350        2.19690
C         -6.38770       -0.99640        4.99100
C         -5.40630       -0.97680        5.96960
Se        -3.69430       -0.54910        5.23270
C         -5.43830       -1.19510        7.35580
C         -6.44140       -1.56530        8.21650
C         -7.84920       -1.91700        7.89930
O         -8.41730       -1.88150        6.82820
C         -8.43280       -2.33330        9.18130
C         -7.45790       -2.21540       10.22130
C         -7.92920       -2.58550       11.44200
S         -9.57830       -3.08920       11.34800
C         -9.63500       -2.79270        9.62480
Cl       -11.04560       -3.07540        8.72940
C         -6.22150       -1.72190        9.64610
C         -5.09500       -1.45280       10.38310
C         -3.87170       -0.94290        9.90780
N         -2.84620       -0.52420        9.60020
C         -5.06750       -1.66430       11.77730
N         -5.01610       -1.83020       12.91170
H          2.45160        2.45240       -7.11510
H          7.71390        3.09230       -7.03350
H          6.71140       -0.16240       -3.28040
H          9.77480        1.35300       -2.80660
H         10.60190       -0.93150       -3.35550
H          9.28160       -1.70830       -5.47390
H          9.83880       -0.03490       -7.46090
H         11.50440        1.77210       -6.56650
H         12.43750       -0.25470       -5.14120
H         12.19330        1.12800       -4.04490
H         10.33030        2.98050       -4.73330
H         -0.07390        1.98260       -6.82170
H         -2.12590        0.89980        3.19040
H         -1.22090        1.04570        1.68600
H         -0.18420       -0.70650        3.06910
H         -1.74330       -1.48410        3.34340
H         -1.00380       -1.55800        1.75060
H          0.48270       -0.10440       -1.22570
H         -0.41560       -0.23060        0.28350
H         -0.11270        2.35560        0.49800
H          1.38690        1.41690        0.57450
H          0.93360        2.25280       -0.91190
H         -7.41540       -1.21860        5.21940
H         -4.46970       -1.04950        7.82420
H         -7.43060       -2.60250       12.39050
