
  xtb     02022205133D
 energy: -192.032743748218 gnorm: 0.000220069784 xtb: 6.4.1 (unknown)
111124  0     0  0            999 V2000
   -3.6376    4.5038    3.2716 C   0  0  0  0  0  0  0  0  0  0  0  0
   -2.6850    5.0338    4.0889 C   0  0  0  0  0  0  0  0  0  0  0  0
   -1.3765    4.3843    4.3463 C   0  0  0  0  0  0  0  0  0  0  0  0
   -0.8973    3.4293    3.7729 O   0  0  0  0  0  0  0  0  0  0  0  0
   -0.8353    5.0488    5.5457 C   0  0  0  0  0  0  0  0  0  0  0  0
    0.3516    4.7350    6.2049 C   0  0  0  0  0  0  0  0  0  0  0  0
    0.5961    5.5076    7.3142 C   0  0  0  0  0  0  0  0  0  0  0  0
   -0.2800    6.5130    7.7460 C   0  0  0  0  0  0  0  0  0  0  0  0
   -1.4587    6.8263    7.1119 C   0  0  0  0  0  0  0  0  0  0  0  0
   -1.7231    6.0563    5.9745 C   0  0  0  0  0  0  0  0  0  0  0  0
   -2.8578    6.0953    5.0584 C   0  0  0  0  0  0  0  0  0  0  0  0
   -3.8613    7.0287    5.0420 C   0  0  0  0  0  0  0  0  0  0  0  0
   -4.8614    7.0855    4.0486 C   0  0  0  0  0  0  0  0  0  0  0  0
   -5.6785    7.2063    3.2508 N   0  0  0  0  0  0  0  0  0  0  0  0
   -3.9924    8.0759    5.9758 C   0  0  0  0  0  0  0  0  0  0  0  0
   -4.1512    8.9460    6.7081 N   0  0  0  0  0  0  0  0  0  0  0  0
    0.5941    6.8803    8.9195 C   0  0  0  0  0  0  0  0  0  0  0  0
    1.4445    8.1599    8.7722 C   0  0  0  0  0  0  0  0  0  0  0  0
    2.5186    8.0030    9.8244 C   0  0  0  0  0  0  0  0  0  0  0  0
    3.3478    7.0509    9.4160 C   0  0  0  0  0  0  0  0  0  0  0  0
    2.8480    6.5482    8.0809 C   0  0  0  0  0  0  0  0  0  0  0  0
    2.2622    7.8471    7.5123 C   0  0  0  0  0  0  0  0  0  0  0  0
    1.5703    5.7594    8.4376 C   0  0  0  0  0  0  0  0  0  0  0  0
   -3.4056    3.5629    2.2300 C   0  0  0  0  0  0  0  0  0  0  0  0
   -4.5069    2.1845    2.1466 S   0  0  0  0  0  0  0  0  0  0  0  0
   -3.6623    1.5986    0.7817 C   0  0  0  0  0  0  0  0  0  0  0  0
   -3.6446    0.4749   -0.0654 C   0  0  0  0  0  0  0  0  0  0  0  0
   -4.4349   -0.6934   -0.1394 C   0  0  0  0  0  0  0  0  0  0  0  0
   -4.1242   -1.6853   -1.1349 C   0  0  0  0  0  0  0  0  0  0  0  0
   -4.9670   -2.7054   -1.1090 N   0  0  0  0  0  0  0  0  0  0  0  0
   -6.0525   -2.4477    0.0634 S   0  0  0  0  0  0  0  0  0  0  0  0
   -5.4905   -1.0243    0.5872 N   0  0  0  0  0  0  0  0  0  0  0  0
   -2.9686   -1.5211   -1.9325 C   0  0  0  0  0  0  0  0  0  0  0  0
   -2.2686   -2.4010   -2.7712 C   0  0  0  0  0  0  0  0  0  0  0  0
   -2.3881   -4.0283   -3.3412 S   0  0  0  0  0  0  0  0  0  0  0  0
   -0.7874   -3.8846   -4.0304 C   0  0  0  0  0  0  0  0  0  0  0  0
    0.0745   -4.8195   -4.6223 C   0  0  0  0  0  0  0  0  0  0  0  0
   -0.3339   -6.2153   -4.9670 C   0  0  0  0  0  0  0  0  0  0  0  0
   -1.5708   -6.2323   -5.8655 C   0  0  0  0  0  0  0  0  0  0  0  0
    1.3053   -4.2489   -4.9129 C   0  0  0  0  0  0  0  0  0  0  0  0
    1.3577   -2.5337   -4.5220 S   0  0  0  0  0  0  0  0  0  0  0  0
   -0.2275   -2.6129   -3.8558 C   0  0  0  0  0  0  0  0  0  0  0  0
   -1.0731   -1.7658   -3.1328 C   0  0  0  0  0  0  0  0  0  0  0  0
   -1.0239   -0.5153   -2.5774 N   0  0  0  0  0  0  0  0  0  0  0  0
   -2.1750   -0.3444   -1.8363 C   0  0  0  0  0  0  0  0  0  0  0  0
   -2.5927    0.7013   -0.9852 C   0  0  0  0  0  0  0  0  0  0  0  0
   -2.0352    1.9572   -0.7691 N   0  0  0  0  0  0  0  0  0  0  0  0
   -2.6560    2.4765    0.3591 C   0  0  0  0  0  0  0  0  0  0  0  0
   -2.4747    3.5883    1.1996 C   0  0  0  0  0  0  0  0  0  0  0  0
   -1.4796    4.6836    0.9702 C   0  0  0  0  0  0  0  0  0  0  0  0
   -0.0382    4.1731    1.0199 C   0  0  0  0  0  0  0  0  0  0  0  0
   -1.7092    2.8296   -1.8840 C   0  0  0  0  0  0  0  0  0  0  0  0
   -2.9372    3.6096   -2.3552 C   0  0  0  0  0  0  0  0  0  0  0  0
    0.2220    0.2165   -2.5017 C   0  0  0  0  0  0  0  0  0  0  0  0
    0.6080    0.8436   -3.8400 C   0  0  0  0  0  0  0  0  0  0  0  0
    2.4865   -4.8178   -5.4500 C   0  0  0  0  0  0  0  0  0  0  0  0
    2.9924   -6.0653   -5.2539 C   0  0  0  0  0  0  0  0  0  0  0  0
    4.0389   -6.5984   -6.1739 C   0  0  0  0  0  0  0  0  0  0  0  0
    4.6399   -5.9708   -7.0170 O   0  0  0  0  0  0  0  0  0  0  0  0
    4.1334   -8.0314   -5.8590 C   0  0  0  0  0  0  0  0  0  0  0  0
    4.8829   -9.0238   -6.4706 C   0  0  0  0  0  0  0  0  0  0  0  0
    4.7935  -10.3129   -5.9886 C   0  0  0  0  0  0  0  0  0  0  0  0
    3.9571  -10.6252   -4.9059 C   0  0  0  0  0  0  0  0  0  0  0  0
    3.9554  -11.9185   -4.5258 O   0  0  0  0  0  0  0  0  0  0  0  0
    3.1689  -12.3097   -3.4203 C   0  0  0  0  0  0  0  0  0  0  0  0
    3.1970   -9.6270   -4.2910 C   0  0  0  0  0  0  0  0  0  0  0  0
    3.2995   -8.3327   -4.7680 C   0  0  0  0  0  0  0  0  0  0  0  0
    2.6855   -7.0956   -4.2873 C   0  0  0  0  0  0  0  0  0  0  0  0
    2.1526   -6.9165   -3.0360 C   0  0  0  0  0  0  0  0  0  0  0  0
    1.9526   -7.9621   -2.1129 C   0  0  0  0  0  0  0  0  0  0  0  0
    1.7490   -8.7821   -1.3349 N   0  0  0  0  0  0  0  0  0  0  0  0
    1.8402   -5.6634   -2.4721 C   0  0  0  0  0  0  0  0  0  0  0  0
    1.6240   -4.6781   -1.9234 N   0  0  0  0  0  0  0  0  0  0  0  0
   -4.6781    4.7477    3.4559 H   0  0  0  0  0  0  0  0  0  0  0  0
    0.9937    3.9463    5.8448 H   0  0  0  0  0  0  0  0  0  0  0  0
   -2.1325    7.5900    7.4634 H   0  0  0  0  0  0  0  0  0  0  0  0
    0.1350    6.7850    9.9016 H   0  0  0  0  0  0  0  0  0  0  0  0
    0.8778    9.0867    8.7850 H   0  0  0  0  0  0  0  0  0  0  0  0
    2.5327    8.5435   10.7525 H   0  0  0  0  0  0  0  0  0  0  0  0
    4.1926    6.6371    9.9346 H   0  0  0  0  0  0  0  0  0  0  0  0
    3.5604    6.0068    7.4641 H   0  0  0  0  0  0  0  0  0  0  0  0
    3.0292    8.5962    7.3231 H   0  0  0  0  0  0  0  0  0  0  0  0
    1.6605    7.7077    6.6160 H   0  0  0  0  0  0  0  0  0  0  0  0
    1.7613    4.9154    9.0978 H   0  0  0  0  0  0  0  0  0  0  0  0
    0.4843   -6.7241   -5.4791 H   0  0  0  0  0  0  0  0  0  0  0  0
   -0.5528   -6.7601   -4.0428 H   0  0  0  0  0  0  0  0  0  0  0  0
   -2.4244   -5.7880   -5.3615 H   0  0  0  0  0  0  0  0  0  0  0  0
   -1.3784   -5.6778   -6.7813 H   0  0  0  0  0  0  0  0  0  0  0  0
   -1.8204   -7.2573   -6.1275 H   0  0  0  0  0  0  0  0  0  0  0  0
   -1.6718    5.1406   -0.0058 H   0  0  0  0  0  0  0  0  0  0  0  0
   -1.6141    5.4566    1.7280 H   0  0  0  0  0  0  0  0  0  0  0  0
    0.6527    4.9928    0.8361 H   0  0  0  0  0  0  0  0  0  0  0  0
    0.1687    3.7498    1.9976 H   0  0  0  0  0  0  0  0  0  0  0  0
    0.1327    3.3963    0.2798 H   0  0  0  0  0  0  0  0  0  0  0  0
   -0.9167    3.5203   -1.5897 H   0  0  0  0  0  0  0  0  0  0  0  0
   -1.3578    2.2146   -2.7079 H   0  0  0  0  0  0  0  0  0  0  0  0
   -3.7226    2.9225   -2.6640 H   0  0  0  0  0  0  0  0  0  0  0  0
   -3.3285    4.2412   -1.5616 H   0  0  0  0  0  0  0  0  0  0  0  0
   -2.6711    4.2375   -3.2016 H   0  0  0  0  0  0  0  0  0  0  0  0
    0.1390    0.9681   -1.7164 H   0  0  0  0  0  0  0  0  0  0  0  0
    1.0066   -0.4904   -2.2092 H   0  0  0  0  0  0  0  0  0  0  0  0
   -0.1743    1.4952   -4.2228 H   0  0  0  0  0  0  0  0  0  0  0  0
    1.5172    1.4255   -3.7192 H   0  0  0  0  0  0  0  0  0  0  0  0
    0.7928    0.0691   -4.5793 H   0  0  0  0  0  0  0  0  0  0  0  0
    3.0660   -4.1835   -6.1148 H   0  0  0  0  0  0  0  0  0  0  0  0
    5.5252   -8.7805   -7.3024 H   0  0  0  0  0  0  0  0  0  0  0  0
    5.3645  -11.1149   -6.4288 H   0  0  0  0  0  0  0  0  0  0  0  0
    3.4509  -11.7662   -2.5142 H   0  0  0  0  0  0  0  0  0  0  0  0
    2.1027  -12.1627   -3.6157 H   0  0  0  0  0  0  0  0  0  0  0  0
    3.3672  -13.3709   -3.2828 H   0  0  0  0  0  0  0  0  0  0  0  0
    2.5412   -9.8588   -3.4698 H   0  0  0  0  0  0  0  0  0  0  0  0
  1  2  2  0  0  0  0
  2  3  1  0  0  0  0
  3  4  2  0  0  0  0
  3  5  1  0  0  0  0
  5  6  2  0  0  0  0
  6  7  1  0  0  0  0
  7  8  2  0  0  0  0
  8  9  1  0  0  0  0
  9 10  2  0  0  0  0
 10 11  1  0  0  0  0
 11 12  2  0  0  0  0
 12 13  1  0  0  0  0
 13 14  3  0  0  0  0
 12 15  1  0  0  0  0
 15 16  3  0  0  0  0
  8 17  1  0  0  0  0
 17 18  1  0  0  0  0
 18 19  1  0  0  0  0
 19 20  2  0  0  0  0
 20 21  1  0  0  0  0
 21 22  1  0  0  0  0
 21 23  1  0  0  0  0
  1 24  1  0  0  0  0
 24 25  1  0  0  0  0
 25 26  1  0  0  0  0
 26 27  1  0  0  0  0
 27 28  1  0  0  0  0
 28 29  1  0  0  0  0
 29 30  2  0  0  0  0
 30 31  1  0  0  0  0
 31 32  1  0  0  0  0
 29 33  1  0  0  0  0
 33 34  1  0  0  0  0
 34 35  1  0  0  0  0
 35 36  1  0  0  0  0
 36 37  1  0  0  0  0
 37 38  1  0  0  0  0
 38 39  1  0  0  0  0
 37 40  2  0  0  0  0
 40 41  1  0  0  0  0
 41 42  1  0  0  0  0
 42 43  1  0  0  0  0
 43 44  1  0  0  0  0
 44 45  1  0  0  0  0
 45 46  1  0  0  0  0
 46 47  1  0  0  0  0
 47 48  1  0  0  0  0
 48 49  1  0  0  0  0
 49 50  1  0  0  0  0
 50 51  1  0  0  0  0
 47 52  1  0  0  0  0
 52 53  1  0  0  0  0
 44 54  1  0  0  0  0
 54 55  1  0  0  0  0
 40 56  1  0  0  0  0
 56 57  2  0  0  0  0
 57 58  1  0  0  0  0
 58 59  2  0  0  0  0
 58 60  1  0  0  0  0
 60 61  2  0  0  0  0
 61 62  1  0  0  0  0
 62 63  2  0  0  0  0
 63 64  1  0  0  0  0
 64 65  1  0  0  0  0
 63 66  1  0  0  0  0
 66 67  2  0  0  0  0
 67 68  1  0  0  0  0
 68 69  2  0  0  0  0
 69 70  1  0  0  0  0
 70 71  3  0  0  0  0
 69 72  1  0  0  0  0
 72 73  3  0  0  0  0
 11  2  1  0  0  0  0
 23 17  1  0  0  0  0
 49 24  2  0  0  0  0
 68 57  1  0  0  0  0
 10  5  1  0  0  0  0
 22 18  1  0  0  0  0
 48 26  2  0  0  0  0
 67 60  1  0  0  0  0
 23  7  1  0  0  0  0
 46 27  2  0  0  0  0
 32 28  2  0  0  0  0
 45 33  2  0  0  0  0
 43 34  2  0  0  0  0
 42 36  2  0  0  0  0
  1 74  1  0  0  0  0
  6 75  1  0  0  0  0
  9 76  1  0  0  0  0
 17 77  1  0  0  0  0
 18 78  1  0  0  0  0
 19 79  1  0  0  0  0
 20 80  1  0  0  0  0
 21 81  1  0  0  0  0
 22 82  1  0  0  0  0
 22 83  1  0  0  0  0
 23 84  1  0  0  0  0
 38 85  1  0  0  0  0
 38 86  1  0  0  0  0
 39 87  1  0  0  0  0
 39 88  1  0  0  0  0
 39 89  1  0  0  0  0
 50 90  1  0  0  0  0
 50 91  1  0  0  0  0
 51 92  1  0  0  0  0
 51 93  1  0  0  0  0
 51 94  1  0  0  0  0
 52 95  1  0  0  0  0
 52 96  1  0  0  0  0
 53 97  1  0  0  0  0
 53 98  1  0  0  0  0
 53 99  1  0  0  0  0
 54100  1  0  0  0  0
 54101  1  0  0  0  0
 55102  1  0  0  0  0
 55103  1  0  0  0  0
 55104  1  0  0  0  0
 56105  1  0  0  0  0
 61106  1  0  0  0  0
 62107  1  0  0  0  0
 65108  1  0  0  0  0
 65109  1  0  0  0  0
 65110  1  0  0  0  0
 66111  1  0  0  0  0
M  END
