101

C          3.23810       -4.08190       -3.97420
C          3.51870       -3.14830       -4.93550
C          3.42580       -1.67490       -4.80780
O          2.84950       -1.01350       -3.96520
C          4.23780       -1.12760       -5.90860
C          4.51780        0.21720       -6.14030
C          5.30390        0.44180       -7.24400
C          5.78390       -0.59550       -8.05540
C          5.51800       -1.92630       -7.83550
C          4.71300       -2.17600       -6.72030
C          4.22010       -3.43640       -6.17460
C          4.32080       -4.66370       -6.77520
C          3.73060       -5.84970       -6.28780
N          3.25770       -6.84740       -5.97240
C          4.98250       -4.89840       -7.99830
N          5.50750       -5.15530       -8.98640
C          6.50160        0.35510       -8.98060
C          5.84670        0.65880      -10.35080
C          4.36320        0.45110      -10.17240
C          3.90650        1.43190       -9.40530
C          5.07320        2.32050       -9.05060
C          5.90920        2.19460      -10.33410
C          5.96490        1.51000       -8.07740
C          2.54440       -3.90410       -2.75980
Se         2.88740       -5.12230       -1.31180
C          1.76960       -4.03530       -0.32570
C          1.26080       -3.89130        0.96940
C          1.42340       -4.72350        2.09600
C          0.74610       -4.38860        3.30960
N          0.96150       -5.27480        4.26930
S          1.93640       -6.43060        3.69020
N          2.12210       -5.84330        2.19110
C          0.00440       -3.18640        3.35800
C         -0.63570       -2.56370        4.43410
S         -0.93960       -2.83270        6.11590
C         -1.70220       -1.25320        6.19810
C         -2.26750       -0.54070        7.24320
C         -2.38680       -1.08590        8.62810
C         -3.77090       -1.70110        8.85390
C         -2.74320        0.71540        6.81160
S         -2.46700        0.97200        5.08590
C         -1.71980       -0.57340        4.96460
C         -1.11430       -1.33400        3.96420
N         -0.79990       -1.18530        2.64220
C         -0.12510       -2.31630        2.22750
C          0.44530       -2.72000        0.98720
N          0.42180       -2.21180       -0.29670
C          1.23280       -2.98350       -1.08550
C          1.63020       -2.92380       -2.41940
C         -0.32540       -1.14400       -0.92040
C          0.55330        0.07670       -1.19820
C         -1.09410        0.07770        2.00530
C         -2.55800        0.16760        1.57500
C         -3.33540        1.63940        7.66980
C         -3.85320        2.89510        7.43060
C         -3.93210        3.56230        6.13410
O         -3.54980        3.15570        5.05010
C         -4.58300        4.86470        6.38560
C         -4.89070        5.86070        5.48410
C         -5.50690        7.01000        5.96240
Br        -5.94320        8.39620        4.75240
C         -5.80000        7.13820        7.32020
Br        -6.63920        8.70640        7.96450
C         -5.48710        6.12990        8.22650
C         -4.87280        4.98210        7.75570
C         -4.42160        3.76660        8.43640
C         -4.52360        3.54100        9.78640
C         -4.08240        2.38690       10.46580
N         -3.74650        1.48420       11.09270
C         -5.09160        4.45640       10.69730
N         -5.54130        5.15830       11.48640
H          3.65790       -5.07340       -4.11260
H          4.13180        0.98420       -5.48710
H          5.90250       -2.71380       -8.46200
H          7.57930        0.22490       -9.05540
H          6.30490        0.14750      -11.19290
H          3.82600       -0.39310      -10.56310
H          2.91070        1.57110       -9.02660
H          4.82730        3.32260       -8.70910
H          6.92020        2.58690      -10.23330
H          5.42410        2.64530      -11.19840
H          6.69200        2.13530       -7.56270
H         -2.21050       -0.30840        9.37300
H         -1.62810       -1.86040        8.75580
H         -3.94480       -2.51020        8.14850
H         -3.83600       -2.09690        9.86310
H         -4.55100       -0.95430        8.72570
H          1.27390       -2.20590       -3.13270
H         -0.70300       -1.53040       -1.87310
H         -1.18820       -0.89450       -0.30970
H          1.31550       -0.16330       -1.93500
H          1.06020        0.41500       -0.29650
H         -0.05720        0.88920       -1.58320
H         -0.90410        0.86310        2.74420
H         -0.41290        0.23660        1.17480
H         -3.20200        0.18870        2.45000
H         -2.84890       -0.68350        0.96210
H         -2.71990        1.08210        1.01190
H         -3.38870        1.29900        8.69470
H         -4.65830        5.74860        4.43650
H         -5.73000        6.26780        9.26740
