106

C         -2.01660       -5.42570        2.69560
C         -1.05340       -5.46960        3.67240
C          0.07380       -4.54620        3.82200
O          0.36320       -3.60150        3.10480
C          0.81110       -4.97840        5.01930
C          1.95640       -4.39240        5.55400
C          2.42060       -5.01030        6.69000
C          1.79230       -6.12950        7.25190
C          0.66620       -6.72110        6.72960
C          0.17530       -6.10780        5.57280
C         -0.98240       -6.44390        4.74410
C         -1.82670       -7.50380        4.95950
C         -1.70250       -8.42230        6.02300
N         -1.67230       -9.20720        6.86060
C         -2.93750       -7.85130        4.16310
N         -3.85550       -8.20760        3.57020
C          2.78460       -6.21750        8.38470
C          2.31320       -5.68860        9.75610
C          3.59970       -5.45590       10.51510
C          4.19720       -4.39790        9.98190
C          3.32440       -3.89750        8.85360
C          1.94000       -4.23890        9.41970
C          3.48660       -4.97090        7.75640
C         -2.19940       -4.53940        1.62770
C         -3.26960       -4.64020        0.72240
C         -4.37080       -5.64810        0.77760
C         -5.47320       -5.19460        1.73880
C         -3.22510       -3.62840       -0.22810
C         -2.13410       -2.75450       -0.08560
S         -1.14220       -3.17710        1.25830
C         -2.14840       -1.76580       -1.07330
C         -3.24860       -1.88230       -1.93390
S         -4.27650       -3.22580       -1.57360
C         -3.19820       -0.79340       -2.81390
C         -4.12670       -0.31680       -3.76750
N         -5.26880       -0.86420       -4.15020
S         -6.00100        0.14210       -5.18520
N         -4.88720        1.31770       -5.18570
C         -3.90080        0.96220       -4.37860
C         -2.69090        1.64380       -4.11430
C         -2.15960        2.83400       -4.62870
S         -2.61670        4.12980       -5.68310
C         -1.03200        4.84300       -5.44120
C         -0.42150        5.98420       -5.91400
C          0.88810        6.14260       -5.43670
S          1.35190        4.81900       -4.37590
C         -0.19940        4.09440       -4.58210
C         -0.86010        2.95600       -4.11930
N         -0.57690        1.90000       -3.29070
C          0.81370        1.55040       -3.09030
C          1.43350        1.02000       -4.38270
C         -1.69770        1.09190       -3.25160
C         -2.01830       -0.06040       -2.49100
N         -1.40900       -0.66400       -1.41030
C         -0.41880       -0.14660       -0.49150
C          0.88580       -0.94310       -0.53690
C          1.65830        7.25030       -5.79880
C          2.94340        7.66020       -5.48190
C          3.79650        6.86140       -4.61020
O          3.43660        5.79270       -4.11950
N          5.05330        7.32870       -4.32530
C          5.89590        6.51270       -3.45710
C          6.64000        5.45080       -4.25630
C          5.61070        8.50210       -4.82500
O          6.74200        8.82540       -4.53220
C          4.73100        9.27780       -5.69600
C          3.46020        8.88630       -6.01500
C          2.62640        9.74450       -6.91620
C          5.28300       10.47590       -6.19840
N          5.72560       11.45090       -6.60980
H         -2.77640       -6.19330        2.74560
H          2.40810       -3.53150        5.08650
H          0.20070       -7.58500        7.17310
H          3.34200       -7.14930        8.45680
H          1.55980       -6.30000       10.24490
H          3.95780       -6.09670       11.29930
H          5.15410       -3.97840       10.23150
H          3.49240       -2.87670        8.52080
H          1.12990       -4.14460        8.69890
H          1.70480       -3.65770       10.30970
H          4.51250       -5.07190        7.40720
H         -3.99670       -6.62400        1.09000
H         -4.79190       -5.74770       -0.22480
H         -5.08240       -5.08330        2.74760
H         -6.27050       -5.93180        1.75820
H         -5.88560       -4.24070        1.41810
H         -0.88530        6.69090       -6.57820
H          0.90560        0.79490       -2.32060
H          1.33960        2.45570       -2.77380
H          0.89730        0.13700       -4.72540
H          2.47170        0.75380       -4.20610
H          1.39950        1.77400       -5.16440
H         -0.26330        0.91240       -0.70250
H         -0.83380       -0.22420        0.51950
H          1.22730       -1.09800       -1.55820
H          0.74450       -1.91770       -0.07870
H          1.65660       -0.41640        0.01860
H          1.11330        7.91210       -6.46070
H          5.24870        6.04550       -2.71240
H          6.60310        7.18830       -2.97320
H          7.26530        4.86350       -3.58980
H          5.93320        4.78750       -4.74980
H          7.27300        5.92110       -5.00520
H          1.71890       10.06770       -6.40710
H          3.18410       10.62830       -7.21500
H          2.34350        9.19760       -7.81510
