
  xtb     02022209083D
 energy: -188.100016351363 gnorm: 0.000245459353 xtb: 6.4.1 (unknown)
107120  0     0  0            999 V2000
    5.3795    0.0438   -2.7770 C   0  0  0  0  0  0  0  0  0  0  0  0
    5.9267    0.9692   -1.9292 C   0  0  0  0  0  0  0  0  0  0  0  0
    5.2455    1.5215   -0.7338 C   0  0  0  0  0  0  0  0  0  0  0  0
    4.0660    1.4671   -0.4429 O   0  0  0  0  0  0  0  0  0  0  0  0
    6.3153    2.1066    0.0940 C   0  0  0  0  0  0  0  0  0  0  0  0
    6.1633    2.7086    1.3409 C   0  0  0  0  0  0  0  0  0  0  0  0
    7.3342    3.1857    1.8781 C   0  0  0  0  0  0  0  0  0  0  0  0
    8.5702    3.0646    1.2288 C   0  0  0  0  0  0  0  0  0  0  0  0
    8.7339    2.4750   -0.0027 C   0  0  0  0  0  0  0  0  0  0  0  0
    7.5528    1.9894   -0.5703 C   0  0  0  0  0  0  0  0  0  0  0  0
    7.3268    1.3285   -1.8521 C   0  0  0  0  0  0  0  0  0  0  0  0
    8.2503    1.1572   -2.8504 C   0  0  0  0  0  0  0  0  0  0  0  0
    9.6073    1.5252   -2.7540 C   0  0  0  0  0  0  0  0  0  0  0  0
   10.7231    1.7957   -2.7341 N   0  0  0  0  0  0  0  0  0  0  0  0
    7.9461    0.6338   -4.1249 C   0  0  0  0  0  0  0  0  0  0  0  0
    7.7576    0.2508   -5.1909 N   0  0  0  0  0  0  0  0  0  0  0  0
    9.3143    3.7477    2.3485 C   0  0  0  0  0  0  0  0  0  0  0  0
   10.1209    2.8601    3.3286 C   0  0  0  0  0  0  0  0  0  0  0  0
    9.4566    1.5057    3.3295 C   0  0  0  0  0  0  0  0  0  0  0  0
    8.2865    1.6286    3.9419 C   0  0  0  0  0  0  0  0  0  0  0  0
    8.1381    3.0690    4.3656 C   0  0  0  0  0  0  0  0  0  0  0  0
    9.6051    3.4156    4.6659 C   0  0  0  0  0  0  0  0  0  0  0  0
    7.9360    3.8898    3.0681 C   0  0  0  0  0  0  0  0  0  0  0  0
    4.0078   -0.2836   -2.8347 C   0  0  0  0  0  0  0  0  0  0  0  0
    3.5944   -1.9910   -3.0499 S   0  0  0  0  0  0  0  0  0  0  0  0
    1.9660   -1.6170   -2.6873 C   0  0  0  0  0  0  0  0  0  0  0  0
    0.7571   -2.2838   -2.4665 C   0  0  0  0  0  0  0  0  0  0  0  0
    0.4545   -3.6554   -2.5924 C   0  0  0  0  0  0  0  0  0  0  0  0
   -0.8685   -4.0923   -2.2789 C   0  0  0  0  0  0  0  0  0  0  0  0
   -1.0269   -5.3970   -2.4423 N   0  0  0  0  0  0  0  0  0  0  0  0
    0.3797   -6.0195   -2.9481 S   0  0  0  0  0  0  0  0  0  0  0  0
    1.2398   -4.6493   -2.9787 N   0  0  0  0  0  0  0  0  0  0  0  0
   -1.8088   -3.1371   -1.8385 C   0  0  0  0  0  0  0  0  0  0  0  0
   -3.1314   -3.3277   -1.4254 C   0  0  0  0  0  0  0  0  0  0  0  0
   -4.2589   -4.6147   -1.1857 S   0  0  0  0  0  0  0  0  0  0  0  0
   -5.4053   -3.4549   -0.5505 C   0  0  0  0  0  0  0  0  0  0  0  0
   -6.6727   -3.5984    0.0175 C   0  0  0  0  0  0  0  0  0  0  0  0
   -7.3829   -4.9073    0.1164 C   0  0  0  0  0  0  0  0  0  0  0  0
   -8.1950   -5.1673   -1.1556 C   0  0  0  0  0  0  0  0  0  0  0  0
   -7.1634   -2.3809    0.4806 C   0  0  0  0  0  0  0  0  0  0  0  0
   -6.0653   -1.0464    0.1211 S   0  0  0  0  0  0  0  0  0  0  0  0
   -4.9217   -2.1382   -0.5628 C   0  0  0  0  0  0  0  0  0  0  0  0
   -3.6211   -2.0698   -1.0621 C   0  0  0  0  0  0  0  0  0  0  0  0
   -2.6617   -1.1152   -1.2569 N   0  0  0  0  0  0  0  0  0  0  0  0
   -1.5107   -1.7420   -1.7134 C   0  0  0  0  0  0  0  0  0  0  0  0
   -0.1952   -1.3041   -2.0532 C   0  0  0  0  0  0  0  0  0  0  0  0
    0.4393   -0.0716   -2.0732 N   0  0  0  0  0  0  0  0  0  0  0  0
    1.7437   -0.2506   -2.4738 C   0  0  0  0  0  0  0  0  0  0  0  0
    2.9010    0.5377   -2.6323 C   0  0  0  0  0  0  0  0  0  0  0  0
    2.9591    2.0007   -2.9498 C   0  0  0  0  0  0  0  0  0  0  0  0
    2.5839    2.1906   -4.4250 C   0  0  0  0  0  0  0  0  0  0  0  0
    0.0255    1.1881   -1.5004 C   0  0  0  0  0  0  0  0  0  0  0  0
   -0.6303    2.1149   -2.5259 C   0  0  0  0  0  0  0  0  0  0  0  0
   -2.9921    0.2265   -0.8302 C   0  0  0  0  0  0  0  0  0  0  0  0
   -2.7663    0.4066    0.6715 C   0  0  0  0  0  0  0  0  0  0  0  0
   -8.3954   -2.1539    1.1236 C   0  0  0  0  0  0  0  0  0  0  0  0
   -8.7699   -1.0907    1.8957 C   0  0  0  0  0  0  0  0  0  0  0  0
  -10.2095   -0.7947    2.0985 C   0  0  0  0  0  0  0  0  0  0  0  0
  -11.1471   -1.5095    1.8244 O   0  0  0  0  0  0  0  0  0  0  0  0
  -10.2459    0.5776    2.6515 C   0  0  0  0  0  0  0  0  0  0  0  0
  -11.3351    1.3794    2.9321 C   0  0  0  0  0  0  0  0  0  0  0  0
  -11.1097    2.6552    3.4280 C   0  0  0  0  0  0  0  0  0  0  0  0
   -9.8109    3.0990    3.6272 C   0  0  0  0  0  0  0  0  0  0  0  0
   -9.4980    5.0559    4.3591 I   0  0  0  0  0  0  0  0  0  0  0  0
   -8.7050    2.3031    3.3610 C   0  0  0  0  0  0  0  0  0  0  0  0
   -8.9320    1.0287    2.8716 C   0  0  0  0  0  0  0  0  0  0  0  0
   -8.0042   -0.0561    2.5500 C   0  0  0  0  0  0  0  0  0  0  0  0
   -6.7319   -0.1738    3.0486 C   0  0  0  0  0  0  0  0  0  0  0  0
   -5.9960   -1.3769    3.0182 C   0  0  0  0  0  0  0  0  0  0  0  0
   -5.3866   -2.3488    3.0672 N   0  0  0  0  0  0  0  0  0  0  0  0
   -6.0418    0.8600    3.7098 C   0  0  0  0  0  0  0  0  0  0  0  0
   -5.4159    1.6785    4.2166 N   0  0  0  0  0  0  0  0  0  0  0  0
    6.0431   -0.5862   -3.3574 H   0  0  0  0  0  0  0  0  0  0  0  0
    5.1930    2.7796    1.8073 H   0  0  0  0  0  0  0  0  0  0  0  0
    9.6903    2.3878   -0.4910 H   0  0  0  0  0  0  0  0  0  0  0  0
    9.8469    4.6581    2.0807 H   0  0  0  0  0  0  0  0  0  0  0  0
   11.1949    2.8677    3.1637 H   0  0  0  0  0  0  0  0  0  0  0  0
    9.8676    0.6370    2.8496 H   0  0  0  0  0  0  0  0  0  0  0  0
    7.5246    0.8832    4.0756 H   0  0  0  0  0  0  0  0  0  0  0  0
    7.4068    3.2679    5.1447 H   0  0  0  0  0  0  0  0  0  0  0  0
    9.7821    4.4831    4.7897 H   0  0  0  0  0  0  0  0  0  0  0  0
    9.9976    2.8754    5.5260 H   0  0  0  0  0  0  0  0  0  0  0  0
    7.5661    4.8943    3.2649 H   0  0  0  0  0  0  0  0  0  0  0  0
   -8.0391   -4.9191    0.9864 H   0  0  0  0  0  0  0  0  0  0  0  0
   -6.6384   -5.6968    0.2343 H   0  0  0  0  0  0  0  0  0  0  0  0
   -8.9455   -4.3929   -1.2977 H   0  0  0  0  0  0  0  0  0  0  0  0
   -7.5416   -5.1802   -2.0248 H   0  0  0  0  0  0  0  0  0  0  0  0
   -8.6971   -6.1283   -1.0852 H   0  0  0  0  0  0  0  0  0  0  0  0
    2.2979    2.5800   -2.3090 H   0  0  0  0  0  0  0  0  0  0  0  0
    3.9700    2.3751   -2.8071 H   0  0  0  0  0  0  0  0  0  0  0  0
    3.3382    1.7317   -5.0601 H   0  0  0  0  0  0  0  0  0  0  0  0
    2.5305    3.2501   -4.6641 H   0  0  0  0  0  0  0  0  0  0  0  0
    1.6264    1.7284   -4.6549 H   0  0  0  0  0  0  0  0  0  0  0  0
    0.9202    1.6621   -1.0902 H   0  0  0  0  0  0  0  0  0  0  0  0
   -0.6339    0.9918   -0.6588 H   0  0  0  0  0  0  0  0  0  0  0  0
   -1.3854    1.5880   -3.1069 H   0  0  0  0  0  0  0  0  0  0  0  0
    0.1082    2.5005   -3.2211 H   0  0  0  0  0  0  0  0  0  0  0  0
   -1.0945    2.9588   -2.0212 H   0  0  0  0  0  0  0  0  0  0  0  0
   -4.0572    0.3660   -1.0427 H   0  0  0  0  0  0  0  0  0  0  0  0
   -2.4505    0.9613   -1.4147 H   0  0  0  0  0  0  0  0  0  0  0  0
   -3.0056    1.4252    0.9639 H   0  0  0  0  0  0  0  0  0  0  0  0
   -3.4073   -0.2703    1.2314 H   0  0  0  0  0  0  0  0  0  0  0  0
   -1.7364    0.1923    0.9494 H   0  0  0  0  0  0  0  0  0  0  0  0
   -9.1807   -2.8770    0.9281 H   0  0  0  0  0  0  0  0  0  0  0  0
  -12.3370    1.0140    2.7686 H   0  0  0  0  0  0  0  0  0  0  0  0
  -11.9428    3.3016    3.6569 H   0  0  0  0  0  0  0  0  0  0  0  0
   -7.7070    2.6768    3.5242 H   0  0  0  0  0  0  0  0  0  0  0  0
  1  2  2  0  0  0  0
  2  3  1  0  0  0  0
  3  4  2  0  0  0  0
  3  5  1  0  0  0  0
  5  6  2  0  0  0  0
  6  7  1  0  0  0  0
  7  8  2  0  0  0  0
  8  9  1  0  0  0  0
  9 10  2  0  0  0  0
 10 11  1  0  0  0  0
 11 12  2  0  0  0  0
 12 13  1  0  0  0  0
 13 14  3  0  0  0  0
 12 15  1  0  0  0  0
 15 16  3  0  0  0  0
  8 17  1  0  0  0  0
 17 18  1  0  0  0  0
 18 19  1  0  0  0  0
 19 20  2  0  0  0  0
 20 21  1  0  0  0  0
 21 22  1  0  0  0  0
 21 23  1  0  0  0  0
  1 24  1  0  0  0  0
 24 25  1  0  0  0  0
 25 26  1  0  0  0  0
 26 27  1  0  0  0  0
 27 28  1  0  0  0  0
 28 29  1  0  0  0  0
 29 30  2  0  0  0  0
 30 31  1  0  0  0  0
 31 32  1  0  0  0  0
 29 33  1  0  0  0  0
 33 34  1  0  0  0  0
 34 35  1  0  0  0  0
 35 36  1  0  0  0  0
 36 37  1  0  0  0  0
 37 38  1  0  0  0  0
 38 39  1  0  0  0  0
 37 40  2  0  0  0  0
 40 41  1  0  0  0  0
 41 42  1  0  0  0  0
 42 43  1  0  0  0  0
 43 44  1  0  0  0  0
 44 45  1  0  0  0  0
 45 46  1  0  0  0  0
 46 47  1  0  0  0  0
 47 48  1  0  0  0  0
 48 49  1  0  0  0  0
 49 50  1  0  0  0  0
 50 51  1  0  0  0  0
 47 52  1  0  0  0  0
 52 53  1  0  0  0  0
 44 54  1  0  0  0  0
 54 55  1  0  0  0  0
 40 56  1  0  0  0  0
 56 57  2  0  0  0  0
 57 58  1  0  0  0  0
 58 59  2  0  0  0  0
 58 60  1  0  0  0  0
 60 61  2  0  0  0  0
 61 62  1  0  0  0  0
 62 63  2  0  0  0  0
 63 64  1  0  0  0  0
 63 65  1  0  0  0  0
 65 66  2  0  0  0  0
 66 67  1  0  0  0  0
 67 68  2  0  0  0  0
 68 69  1  0  0  0  0
 69 70  3  0  0  0  0
 68 71  1  0  0  0  0
 71 72  3  0  0  0  0
 11  2  1  0  0  0  0
 23 17  1  0  0  0  0
 49 24  2  0  0  0  0
 67 57  1  0  0  0  0
 10  5  1  0  0  0  0
 22 18  1  0  0  0  0
 48 26  2  0  0  0  0
 66 60  1  0  0  0  0
 23  7  1  0  0  0  0
 46 27  2  0  0  0  0
 32 28  2  0  0  0  0
 45 33  2  0  0  0  0
 43 34  2  0  0  0  0
 42 36  2  0  0  0  0
  1 73  1  0  0  0  0
  6 74  1  0  0  0  0
  9 75  1  0  0  0  0
 17 76  1  0  0  0  0
 18 77  1  0  0  0  0
 19 78  1  0  0  0  0
 20 79  1  0  0  0  0
 21 80  1  0  0  0  0
 22 81  1  0  0  0  0
 22 82  1  0  0  0  0
 23 83  1  0  0  0  0
 38 84  1  0  0  0  0
 38 85  1  0  0  0  0
 39 86  1  0  0  0  0
 39 87  1  0  0  0  0
 39 88  1  0  0  0  0
 50 89  1  0  0  0  0
 50 90  1  0  0  0  0
 51 91  1  0  0  0  0
 51 92  1  0  0  0  0
 51 93  1  0  0  0  0
 52 94  1  0  0  0  0
 52 95  1  0  0  0  0
 53 96  1  0  0  0  0
 53 97  1  0  0  0  0
 53 98  1  0  0  0  0
 54 99  1  0  0  0  0
 54100  1  0  0  0  0
 55101  1  0  0  0  0
 55102  1  0  0  0  0
 55103  1  0  0  0  0
 56104  1  0  0  0  0
 61105  1  0  0  0  0
 62106  1  0  0  0  0
 65107  1  0  0  0  0
M  END
