
  xtb     02022206373D
 energy: -182.941036726015 gnorm: 0.000893539091 xtb: 6.4.1 (unknown)
105118  0     0  0            999 V2000
    2.2079    4.9621   -1.1087 C   0  0  0  0  0  0  0  0  0  0  0  0
    2.9861    5.4434   -0.0947 C   0  0  0  0  0  0  0  0  0  0  0  0
    3.2687    6.8978   -0.0161 C   0  0  0  0  0  0  0  0  0  0  0  0
    3.0483    7.7254   -0.8744 O   0  0  0  0  0  0  0  0  0  0  0  0
    3.8176    7.1211    1.3366 C   0  0  0  0  0  0  0  0  0  0  0  0
    4.1333    8.3409    1.9315 C   0  0  0  0  0  0  0  0  0  0  0  0
    4.6032    8.2320    3.2188 C   0  0  0  0  0  0  0  0  0  0  0  0
    4.7501    7.0009    3.8712 C   0  0  0  0  0  0  0  0  0  0  0  0
    4.4512    5.7892    3.2952 C   0  0  0  0  0  0  0  0  0  0  0  0
    3.9727    5.8785    1.9856 C   0  0  0  0  0  0  0  0  0  0  0  0
    3.5931    4.8169    1.0545 C   0  0  0  0  0  0  0  0  0  0  0  0
    3.9867    3.5052    1.1535 C   0  0  0  0  0  0  0  0  0  0  0  0
    4.6391    2.9513    2.2714 C   0  0  0  0  0  0  0  0  0  0  0  0
    5.1393    2.4298    3.1646 N   0  0  0  0  0  0  0  0  0  0  0  0
    3.8598    2.5659    0.1110 C   0  0  0  0  0  0  0  0  0  0  0  0
    3.8337    1.7637   -0.7104 N   0  0  0  0  0  0  0  0  0  0  0  0
    5.2528    7.6411    5.1409 C   0  0  0  0  0  0  0  0  0  0  0  0
    4.2454    7.7479    6.3049 C   0  0  0  0  0  0  0  0  0  0  0  0
    4.8367    8.8135    7.1992 C   0  0  0  0  0  0  0  0  0  0  0  0
    4.6985    9.9800    6.5821 C   0  0  0  0  0  0  0  0  0  0  0  0
    4.0110    9.7225    5.2606 C   0  0  0  0  0  0  0  0  0  0  0  0
    3.1073    8.5483    5.6583 C   0  0  0  0  0  0  0  0  0  0  0  0
    5.0901    9.0145    4.4139 C   0  0  0  0  0  0  0  0  0  0  0  0
    1.4846    3.7526   -1.1566 C   0  0  0  0  0  0  0  0  0  0  0  0
    1.0627    2.9530   -0.0761 C   0  0  0  0  0  0  0  0  0  0  0  0
    0.3325    1.9178   -0.6336 C   0  0  0  0  0  0  0  0  0  0  0  0
    0.3214    2.0976   -2.0320 C   0  0  0  0  0  0  0  0  0  0  0  0
    1.0021    3.2200   -2.3389 N   0  0  0  0  0  0  0  0  0  0  0  0
    1.2055    3.7372   -3.6697 C   0  0  0  0  0  0  0  0  0  0  0  0
    0.1280    4.7543   -4.0409 C   0  0  0  0  0  0  0  0  0  0  0  0
   -0.4038    1.0248   -2.5790 C   0  0  0  0  0  0  0  0  0  0  0  0
   -0.8121    0.7395   -3.8998 C   0  0  0  0  0  0  0  0  0  0  0  0
   -1.6372   -0.4091   -4.1435 C   0  0  0  0  0  0  0  0  0  0  0  0
   -1.9864   -0.5251   -5.4146 N   0  0  0  0  0  0  0  0  0  0  0  0
   -1.3299    0.6990   -6.2434 S   0  0  0  0  0  0  0  0  0  0  0  0
   -0.5731    1.4280   -5.0072 N   0  0  0  0  0  0  0  0  0  0  0  0
   -1.9188   -1.2840   -3.0726 C   0  0  0  0  0  0  0  0  0  0  0  0
   -2.5553   -2.5325   -3.0476 C   0  0  0  0  0  0  0  0  0  0  0  0
   -3.3781   -3.6095   -4.1207 S   0  0  0  0  0  0  0  0  0  0  0  0
   -3.5384   -4.7623   -2.8129 C   0  0  0  0  0  0  0  0  0  0  0  0
   -4.1090   -6.0408   -2.7410 C   0  0  0  0  0  0  0  0  0  0  0  0
   -4.8897   -6.6414   -3.8654 C   0  0  0  0  0  0  0  0  0  0  0  0
   -4.0427   -6.8480   -5.1208 C   0  0  0  0  0  0  0  0  0  0  0  0
   -3.9979   -6.5638   -1.4584 C   0  0  0  0  0  0  0  0  0  0  0  0
   -3.2283   -5.4364   -0.3387 S   0  0  0  0  0  0  0  0  0  0  0  0
   -2.9902   -4.2988   -1.6086 C   0  0  0  0  0  0  0  0  0  0  0  0
   -2.4247   -3.0287   -1.7457 C   0  0  0  0  0  0  0  0  0  0  0  0
   -1.7622   -2.1239   -0.9609 N   0  0  0  0  0  0  0  0  0  0  0  0
   -1.4431   -1.0324   -1.7518 C   0  0  0  0  0  0  0  0  0  0  0  0
   -0.7810    0.1919   -1.4809 C   0  0  0  0  0  0  0  0  0  0  0  0
   -0.3426    0.7721   -0.2984 N   0  0  0  0  0  0  0  0  0  0  0  0
   -0.8132    0.5946    1.0569 C   0  0  0  0  0  0  0  0  0  0  0  0
   -2.3337    0.7016    1.1496 C   0  0  0  0  0  0  0  0  0  0  0  0
   -1.1975   -2.5545    0.2995 C   0  0  0  0  0  0  0  0  0  0  0  0
    0.3238   -2.6535    0.2292 C   0  0  0  0  0  0  0  0  0  0  0  0
   -4.4930   -7.7606   -0.8910 C   0  0  0  0  0  0  0  0  0  0  0  0
   -4.5033   -9.0005   -1.4659 C   0  0  0  0  0  0  0  0  0  0  0  0
   -3.5957   -9.4107   -2.5728 C   0  0  0  0  0  0  0  0  0  0  0  0
   -2.7873   -8.7207   -3.1537 O   0  0  0  0  0  0  0  0  0  0  0  0
   -3.7892  -10.8628   -2.6969 C   0  0  0  0  0  0  0  0  0  0  0  0
   -3.3018  -11.8703   -3.4630 C   0  0  0  0  0  0  0  0  0  0  0  0
   -3.9948  -13.3814   -2.9989 S   0  0  0  0  0  0  0  0  0  0  0  0
   -4.9447  -12.6504   -1.7582 C   0  0  0  0  0  0  0  0  0  0  0  0
   -4.7318  -11.3071   -1.7138 C   0  0  0  0  0  0  0  0  0  0  0  0
   -5.1882  -10.1669   -0.9454 C   0  0  0  0  0  0  0  0  0  0  0  0
   -6.1432  -10.2119    0.0380 C   0  0  0  0  0  0  0  0  0  0  0  0
   -6.6419   -9.0967    0.7371 C   0  0  0  0  0  0  0  0  0  0  0  0
   -7.0966   -8.2234    1.3287 N   0  0  0  0  0  0  0  0  0  0  0  0
   -6.7354  -11.4305    0.4254 C   0  0  0  0  0  0  0  0  0  0  0  0
   -7.2214  -12.4184    0.7497 N   0  0  0  0  0  0  0  0  0  0  0  0
    2.0726    5.6534   -1.9337 H   0  0  0  0  0  0  0  0  0  0  0  0
    4.0098    9.2681    1.3943 H   0  0  0  0  0  0  0  0  0  0  0  0
    4.5659    4.8479    3.8072 H   0  0  0  0  0  0  0  0  0  0  0  0
    6.2465    7.3366    5.4639 H   0  0  0  0  0  0  0  0  0  0  0  0
    3.9899    6.8016    6.7742 H   0  0  0  0  0  0  0  0  0  0  0  0
    5.3287    8.6087    8.1318 H   0  0  0  0  0  0  0  0  0  0  0  0
    5.0521   10.9443    6.8968 H   0  0  0  0  0  0  0  0  0  0  0  0
    3.5410   10.5759    4.7793 H   0  0  0  0  0  0  0  0  0  0  0  0
    2.3471    8.8404    6.3810 H   0  0  0  0  0  0  0  0  0  0  0  0
    2.6351    8.0469    4.8154 H   0  0  0  0  0  0  0  0  0  0  0  0
    5.9756    9.6266    4.2540 H   0  0  0  0  0  0  0  0  0  0  0  0
    1.2529    3.1576    0.9590 H   0  0  0  0  0  0  0  0  0  0  0  0
    2.1999    4.1849   -3.7301 H   0  0  0  0  0  0  0  0  0  0  0  0
    1.1488    2.8943   -4.3616 H   0  0  0  0  0  0  0  0  0  0  0  0
   -0.8472    4.2745   -4.0344 H   0  0  0  0  0  0  0  0  0  0  0  0
    0.1133    5.5873   -3.3418 H   0  0  0  0  0  0  0  0  0  0  0  0
    0.3168    5.1389   -5.0387 H   0  0  0  0  0  0  0  0  0  0  0  0
   -5.7099   -5.9550   -4.1011 H   0  0  0  0  0  0  0  0  0  0  0  0
   -5.3229   -7.5905   -3.5483 H   0  0  0  0  0  0  0  0  0  0  0  0
   -3.6688   -5.8976   -5.4918 H   0  0  0  0  0  0  0  0  0  0  0  0
   -3.1988   -7.4939   -4.8976 H   0  0  0  0  0  0  0  0  0  0  0  0
   -4.6461   -7.3116   -5.8972 H   0  0  0  0  0  0  0  0  0  0  0  0
   -0.3608    1.3998    1.6402 H   0  0  0  0  0  0  0  0  0  0  0  0
   -0.4513   -0.3447    1.4778 H   0  0  0  0  0  0  0  0  0  0  0  0
   -2.8216   -0.0480    0.5316 H   0  0  0  0  0  0  0  0  0  0  0  0
   -2.6532    0.5684    2.1798 H   0  0  0  0  0  0  0  0  0  0  0  0
   -2.6581    1.6828    0.8101 H   0  0  0  0  0  0  0  0  0  0  0  0
   -1.5223   -1.9006    1.1091 H   0  0  0  0  0  0  0  0  0  0  0  0
   -1.6139   -3.5443    0.5025 H   0  0  0  0  0  0  0  0  0  0  0  0
    0.7740   -1.6964   -0.0222 H   0  0  0  0  0  0  0  0  0  0  0  0
    0.7164   -2.9858    1.1862 H   0  0  0  0  0  0  0  0  0  0  0  0
    0.6134   -3.3744   -0.5318 H   0  0  0  0  0  0  0  0  0  0  0  0
   -4.8517   -7.6700    0.1287 H   0  0  0  0  0  0  0  0  0  0  0  0
   -2.5923  -11.8282   -4.2649 H   0  0  0  0  0  0  0  0  0  0  0  0
   -5.5817  -13.2619   -1.1511 H   0  0  0  0  0  0  0  0  0  0  0  0
  1  2  2  0  0  0  0
  2  3  1  0  0  0  0
  3  4  2  0  0  0  0
  3  5  1  0  0  0  0
  5  6  2  0  0  0  0
  6  7  1  0  0  0  0
  7  8  2  0  0  0  0
  8  9  1  0  0  0  0
  9 10  2  0  0  0  0
 10 11  1  0  0  0  0
 11 12  2  0  0  0  0
 12 13  1  0  0  0  0
 13 14  3  0  0  0  0
 12 15  1  0  0  0  0
 15 16  3  0  0  0  0
  8 17  1  0  0  0  0
 17 18  1  0  0  0  0
 18 19  1  0  0  0  0
 19 20  2  0  0  0  0
 20 21  1  0  0  0  0
 21 22  1  0  0  0  0
 21 23  1  0  0  0  0
  1 24  1  0  0  0  0
 24 25  2  0  0  0  0
 25 26  1  0  0  0  0
 26 27  2  0  0  0  0
 27 28  1  0  0  0  0
 28 29  1  0  0  0  0
 29 30  1  0  0  0  0
 27 31  1  0  0  0  0
 31 32  1  0  0  0  0
 32 33  1  0  0  0  0
 33 34  2  0  0  0  0
 34 35  1  0  0  0  0
 35 36  1  0  0  0  0
 33 37  1  0  0  0  0
 37 38  1  0  0  0  0
 38 39  1  0  0  0  0
 39 40  1  0  0  0  0
 40 41  1  0  0  0  0
 41 42  1  0  0  0  0
 42 43  1  0  0  0  0
 41 44  2  0  0  0  0
 44 45  1  0  0  0  0
 45 46  1  0  0  0  0
 46 47  1  0  0  0  0
 47 48  1  0  0  0  0
 48 49  1  0  0  0  0
 49 50  1  0  0  0  0
 50 51  1  0  0  0  0
 51 52  1  0  0  0  0
 52 53  1  0  0  0  0
 48 54  1  0  0  0  0
 54 55  1  0  0  0  0
 44 56  1  0  0  0  0
 56 57  2  0  0  0  0
 57 58  1  0  0  0  0
 58 59  2  0  0  0  0
 58 60  1  0  0  0  0
 60 61  2  0  0  0  0
 61 62  1  0  0  0  0
 62 63  1  0  0  0  0
 63 64  2  0  0  0  0
 64 65  1  0  0  0  0
 65 66  2  0  0  0  0
 66 67  1  0  0  0  0
 67 68  3  0  0  0  0
 66 69  1  0  0  0  0
 69 70  3  0  0  0  0
 11  2  1  0  0  0  0
 23 17  1  0  0  0  0
 28 24  1  0  0  0  0
 50 31  2  0  0  0  0
 65 57  1  0  0  0  0
 10  5  1  0  0  0  0
 22 18  1  0  0  0  0
 51 26  1  0  0  0  0
 64 60  1  0  0  0  0
 23  7  1  0  0  0  0
 36 32  2  0  0  0  0
 49 37  2  0  0  0  0
 47 38  2  0  0  0  0
 46 40  2  0  0  0  0
  1 71  1  0  0  0  0
  6 72  1  0  0  0  0
  9 73  1  0  0  0  0
 17 74  1  0  0  0  0
 18 75  1  0  0  0  0
 19 76  1  0  0  0  0
 20 77  1  0  0  0  0
 21 78  1  0  0  0  0
 22 79  1  0  0  0  0
 22 80  1  0  0  0  0
 23 81  1  0  0  0  0
 25 82  1  0  0  0  0
 29 83  1  0  0  0  0
 29 84  1  0  0  0  0
 30 85  1  0  0  0  0
 30 86  1  0  0  0  0
 30 87  1  0  0  0  0
 42 88  1  0  0  0  0
 42 89  1  0  0  0  0
 43 90  1  0  0  0  0
 43 91  1  0  0  0  0
 43 92  1  0  0  0  0
 52 93  1  0  0  0  0
 52 94  1  0  0  0  0
 53 95  1  0  0  0  0
 53 96  1  0  0  0  0
 53 97  1  0  0  0  0
 54 98  1  0  0  0  0
 54 99  1  0  0  0  0
 55100  1  0  0  0  0
 55101  1  0  0  0  0
 55102  1  0  0  0  0
 56103  1  0  0  0  0
 61104  1  0  0  0  0
 63105  1  0  0  0  0
M  END
