104

C         -2.58670        0.89590       -7.42670
C         -2.53120       -0.38460       -7.92300
C         -2.09170       -1.55850       -7.18110
O         -1.70770       -1.59590       -6.01590
C         -2.19670       -2.70450       -8.09370
C         -1.87980       -4.03340       -7.82180
C         -2.08670       -4.88490       -8.88060
C         -2.58320       -4.44790      -10.11540
C         -2.90120       -3.13950      -10.39600
C         -2.68740       -2.25400       -9.33720
C         -2.89800       -0.80750       -9.26020
C         -3.35840       -0.02000      -10.28380
C         -3.69340       -0.49370      -11.56980
N         -3.98310       -0.79970      -12.63800
C         -3.56840        1.37370      -10.22350
N         -3.76990        2.50410      -10.26610
C         -2.53970       -5.83140      -10.71360
C         -1.38440       -6.15670      -11.69210
C         -0.23930       -5.24830      -11.31870
C          0.23840       -5.65840      -10.15140
C         -0.57450       -6.85200       -9.71450
C         -0.89150       -7.47850      -11.08190
C         -1.97950       -6.31760       -9.33970
C         -2.27520        1.39620       -6.15640
C         -2.43100        2.75440       -5.86500
C         -2.11490        3.11830       -4.57070
S         -2.20560        4.67790       -3.76990
C         -1.66340        3.92470       -2.31220
C         -1.43370        4.24970       -0.96870
C         -1.66550        5.44830       -0.25910
C         -1.48020        5.45730        1.16210
N         -1.79300        6.62290        1.70650
S         -2.27390        7.62470        0.52930
N         -2.10380        6.60940       -0.71950
C         -0.95630        4.30470        1.78630
C         -0.55500        4.08370        3.11240
C          0.03170        2.81750        3.15670
N         -0.01110        2.24140        1.91560
C          0.79260        1.07110        1.65670
C          0.10270       -0.21300        2.11650
C         -0.63640        3.12600        1.05290
C         -0.99250        3.05720       -0.32040
N         -0.98530        2.03380       -1.25360
C         -1.40640        2.55700       -2.45100
C         -1.67200        2.07230       -3.73370
Se        -1.64470        0.43960       -4.64010
C         -1.08750        0.60190       -1.08600
C         -2.51680        0.19310       -0.73600
C          0.53610        2.50840        4.42880
C          0.30550        3.55030        5.33330
S         -0.52140        4.91710        4.62630
C          0.75340        3.33570        6.64560
C          1.39610        2.14310        6.84670
Se         1.44220        1.10260        5.25940
C          1.83140        1.62470        8.12820
C          1.00910        1.84150        9.22420
C          1.30110        1.30680       10.47240
C          2.42240        0.52090       10.65210
C          2.68520       -0.07720       11.96900
O          1.95290        0.08970       12.92370
N          3.82180       -0.86260       12.07420
C          4.09160       -1.46700       13.37520
C          4.92820       -0.54020       14.24760
C          4.74750       -1.08750       11.07100
O          5.73000       -1.77290       11.27110
C          4.46940       -0.46440        9.76430
C          5.36550       -0.63840        8.73060
C          5.13490       -0.02900        7.49730
C          4.00020        0.71390        7.28900
C          3.03570        0.87860        8.30230
C          3.30460        0.30730        9.57460
H         -2.93310        1.66420       -8.10870
H         -1.50750       -4.32770       -6.85300
H         -3.28300       -2.82360      -11.35210
H         -3.49310       -6.23600      -11.04710
H         -1.66950       -6.16360      -12.74060
H          0.05890       -4.39290      -11.89610
H          1.01590       -5.21360       -9.55820
H         -0.12040       -7.49310       -8.96340
H         -0.00630       -7.86870      -11.58180
H         -1.65960       -8.24950      -11.03860
H         -2.56330       -7.04490       -8.77880
H         -2.78240        3.45400       -6.60470
H          1.06000        1.04590        0.59920
H          1.72630        1.18390        2.22510
H          0.68980       -1.07740        1.81810
H         -0.89770       -0.30110        1.70130
H          0.01560       -0.21690        3.20240
H         -0.80260        0.14890       -2.04430
H         -0.40050        0.24330       -0.32880
H         -3.19720        0.48310       -1.53380
H         -2.57350       -0.88450       -0.61020
H         -2.83750        0.67690        0.18490
H          0.63550        4.07070        7.42270
H          0.09990        2.40880        9.09360
H          0.64290        1.47270       11.31180
H          4.62370       -2.40270       13.19540
H          3.12780       -1.66500       13.84750
H          5.88410       -0.33770       13.77030
H          4.40250        0.39810       14.40860
H          5.10990       -1.00910       15.21050
H          6.24930       -1.23360        8.90320
H          5.86090       -0.13700        6.70580
H          3.86450        1.20870        6.33750
