108

C          1.33680       -2.77760        4.61580
C          2.00030       -3.79530        5.24320
C          2.92190       -4.74530        4.58020
O          3.28560       -4.74010        3.42150
C          3.21390       -5.78520        5.58510
C          4.04380       -6.89220        5.42090
C          4.13120       -7.69540        6.53250
C          3.43050       -7.42850        7.71640
C          2.59870       -6.34790        7.88770
C          2.50690       -5.50890        6.77230
C          1.74980       -4.27460        6.58770
C          1.00130       -3.64020        7.54580
C          0.35140       -2.40000        7.37420
N         -0.18760       -1.38690        7.32390
C          0.79320       -4.12840        8.85220
N          0.57830       -4.46690        9.92810
C          3.99130       -8.64100        8.41650
C          5.12130       -8.38370        9.43610
C          5.78460       -9.73340        9.58900
C          6.45050       -9.98480        8.46910
C          6.24840       -8.80920        7.54050
C          6.16750       -7.67280        8.56790
C          4.77510       -8.93690        7.09760
C          1.67430       -2.16350        3.39100
C          2.90680       -1.87990        2.81020
C          4.22180       -2.12320        3.46920
C          5.16580       -0.92670        3.38130
C          2.74150       -1.22000        1.58270
C          1.40690       -0.96500        1.23530
S          0.32460       -1.52940        2.44900
C          1.30010       -0.31790        0.00020
C          2.54850       -0.11090       -0.59270
S          3.87270       -0.67410        0.36150
C          2.31460        0.50270       -1.82970
C          3.21560        0.83970       -2.86310
N          4.52990        0.68590       -2.89680
S          5.06540        1.18400       -4.34140
N          3.64060        1.61710       -4.97650
C          2.69550        1.38650       -4.07900
C          1.31150        1.65320       -4.16640
C          0.57860        2.29330       -5.17150
S          0.83170        3.00280       -6.73040
C         -0.85280        3.48940       -6.74490
C         -1.63000        4.18720       -7.64650
C         -2.94750        4.35900       -7.20900
S         -3.20890        3.61860       -5.63490
C         -1.56440        3.10240       -5.58970
C         -0.73490        2.41150       -4.70310
N         -0.83580        1.85560       -3.45710
C         -2.08360        1.99520       -2.74330
C         -3.12070        0.97160       -3.20520
C          0.40340        1.36180       -3.10020
C          0.90450        0.69440       -1.94620
N          0.31150        0.15660       -0.81720
C         -1.06530       -0.10720       -0.46900
C         -1.57830        0.85690        0.60140
C         -3.89720        5.05070       -7.96280
C         -5.22190        5.36280       -7.74290
C         -5.95670        4.98710       -6.56130
O         -5.48540        4.32610       -5.64210
N         -7.26870        5.42070       -6.47980
C         -8.00330        5.05350       -5.27420
C         -8.75880        3.74510       -5.46340
C         -7.91020        6.11810       -7.46720
S         -9.49210        6.55990       -7.29190
N         -7.21500        6.43630       -8.59600
C         -7.87680        7.19120       -9.65430
C         -7.80590        8.68970       -9.39350
C         -5.87610        6.12530       -8.80380
O         -5.31430        6.47370       -9.82360
H          0.41990       -2.41460        5.06610
H          4.55800       -7.06510        4.48850
H          2.05740       -6.16230        8.80020
H          3.26160       -9.36950        8.76430
H          4.80550       -7.88650       10.34910
H          5.65960      -10.36960       10.44540
H          6.99280      -10.87310        8.20300
H          6.96080       -8.70000        6.72710
H          7.10890       -7.52690        9.09490
H          5.83100       -6.72360        8.15490
H          4.56950       -9.86380        6.56540
H          4.68620       -2.99740        3.00280
H          4.04800       -2.37000        4.51900
H          6.04900       -1.11750        3.98580
H          4.67940       -0.02860        3.75600
H          5.48590       -0.74860        2.35900
H         -1.28050        4.57250       -8.58690
H         -2.46970        2.99640       -2.96200
H         -1.90200        1.93700       -1.67460
H         -3.41580        1.17890       -4.23000
H         -4.00400        1.03500       -2.57640
H         -2.72910       -0.04310       -3.16530
H         -1.67780       -0.08160       -1.36550
H         -1.10900       -1.12560       -0.06780
H         -2.64480        0.71110        0.74730
H         -1.07510        0.67040        1.54610
H         -1.39720        1.89400        0.32630
H         -3.52230        5.42590       -8.91170
H         -7.26590        4.94990       -4.47630
H         -8.69500        5.86350       -5.03800
H         -9.27870        3.49070       -4.54460
H         -9.49060        3.84220       -6.26170
H         -8.06610        2.94350       -5.70880
H         -8.91510        6.86050       -9.71170
H         -7.35650        6.94740      -10.58210
H         -6.76870        9.00950       -9.32710
H         -8.28480        9.22180      -10.21000
H         -8.31760        8.93970       -8.46720
