
  xtb     02112205243D
 energy: -210.608927410817 gnorm: 0.000591221494 xtb: 6.4.1 (unknown)
129143  0     0  0            999 V2000
   -2.7924   -7.1744   -0.4115 C   0  0  0  0  0  0  0  0  0  0  0  0
   -1.9230   -8.1856   -0.1127 C   0  0  0  0  0  0  0  0  0  0  0  0
   -0.4439   -8.1426   -0.0184 C   0  0  0  0  0  0  0  0  0  0  0  0
    0.2959   -7.1816    0.0561 O   0  0  0  0  0  0  0  0  0  0  0  0
    0.0029   -9.5483   -0.0775 C   0  0  0  0  0  0  0  0  0  0  0  0
    1.3216   -9.9960   -0.1024 C   0  0  0  0  0  0  0  0  0  0  0  0
    1.4466  -11.3619   -0.1734 C   0  0  0  0  0  0  0  0  0  0  0  0
    0.3408  -12.2218   -0.2160 C   0  0  0  0  0  0  0  0  0  0  0  0
   -0.9646  -11.7930   -0.1860 C   0  0  0  0  0  0  0  0  0  0  0  0
   -1.1133  -10.4045   -0.1151 C   0  0  0  0  0  0  0  0  0  0  0  0
   -2.3195   -9.5850   -0.0685 C   0  0  0  0  0  0  0  0  0  0  0  0
   -3.5964  -10.0625    0.0773 C   0  0  0  0  0  0  0  0  0  0  0  0
   -3.9351  -11.4304    0.1299 C   0  0  0  0  0  0  0  0  0  0  0  0
   -4.2893  -12.5222    0.1715 N   0  0  0  0  0  0  0  0  0  0  0  0
   -4.7548   -9.2735    0.2427 C   0  0  0  0  0  0  0  0  0  0  0  0
   -5.7494   -8.7225    0.4083 N   0  0  0  0  0  0  0  0  0  0  0  0
    1.2039  -13.4560   -0.3012 C   0  0  0  0  0  0  0  0  0  0  0  0
    1.3527  -14.1386   -1.6833 C   0  0  0  0  0  0  0  0  0  0  0  0
    1.1363  -13.0626   -2.7182 C   0  0  0  0  0  0  0  0  0  0  0  0
    2.1813  -12.2469   -2.6788 C   0  0  0  0  0  0  0  0  0  0  0  0
    3.1238  -12.7572   -1.6169 C   0  0  0  0  0  0  0  0  0  0  0  0
    2.8830  -14.2698   -1.7454 C   0  0  0  0  0  0  0  0  0  0  0  0
    2.4354  -12.4977   -0.2539 C   0  0  0  0  0  0  0  0  0  0  0  0
   -2.6102   -5.7601   -0.4788 C   0  0  0  0  0  0  0  0  0  0  0  0
   -3.5474   -5.0206   -1.2447 C   0  0  0  0  0  0  0  0  0  0  0  0
   -3.4498   -3.6654   -1.4093 C   0  0  0  0  0  0  0  0  0  0  0  0
   -2.4042   -2.9754   -0.7828 C   0  0  0  0  0  0  0  0  0  0  0  0
   -1.9546   -1.6427   -0.7070 C   0  0  0  0  0  0  0  0  0  0  0  0
   -0.8134   -1.6215    0.1038 C   0  0  0  0  0  0  0  0  0  0  0  0
   -0.5283   -2.8726    0.5564 N   0  0  0  0  0  0  0  0  0  0  0  0
   -1.4817   -3.7149    0.0340 C   0  0  0  0  0  0  0  0  0  0  0  0
   -1.5882   -5.0795    0.1910 C   0  0  0  0  0  0  0  0  0  0  0  0
    0.5276   -3.2381    1.4648 C   0  0  0  0  0  0  0  0  0  0  0  0
    0.0147   -3.3400    2.9004 C   0  0  0  0  0  0  0  0  0  0  0  0
   -0.3280   -0.3074    0.1000 C   0  0  0  0  0  0  0  0  0  0  0  0
    0.8409    0.2523    0.6501 C   0  0  0  0  0  0  0  0  0  0  0  0
    1.1539    1.6098    0.3935 C   0  0  0  0  0  0  0  0  0  0  0  0
    2.3245    1.8755    0.9802 N   0  0  0  0  0  0  0  0  0  0  0  0
    2.6632    0.7410    1.5476 N   0  0  0  0  0  0  0  0  0  0  0  0
    3.8978    0.5898    2.2600 C   0  0  0  0  0  0  0  0  0  0  0  0
    4.9920    0.0549    1.3401 C   0  0  0  0  0  0  0  0  0  0  0  0
    1.8308   -0.2613    1.3856 N   0  0  0  0  0  0  0  0  0  0  0  0
    0.2525    2.4028   -0.3421 C   0  0  0  0  0  0  0  0  0  0  0  0
   -0.9693    1.8638   -0.8623 C   0  0  0  0  0  0  0  0  0  0  0  0
   -1.2243    0.4690   -0.7042 C   0  0  0  0  0  0  0  0  0  0  0  0
   -2.2006   -0.3846   -1.1971 N   0  0  0  0  0  0  0  0  0  0  0  0
   -3.2650   -0.2215   -2.1548 C   0  0  0  0  0  0  0  0  0  0  0  0
   -4.6324   -0.1576   -1.4713 C   0  0  0  0  0  0  0  0  0  0  0  0
   -1.6751    2.9026   -1.4516 N   0  0  0  0  0  0  0  0  0  0  0  0
   -3.0115    3.0133   -1.9810 C   0  0  0  0  0  0  0  0  0  0  0  0
   -3.0080    3.0822   -3.5097 C   0  0  0  0  0  0  0  0  0  0  0  0
   -0.9231    4.0451   -1.3405 C   0  0  0  0  0  0  0  0  0  0  0  0
    0.2689    3.7646   -0.6664 C   0  0  0  0  0  0  0  0  0  0  0  0
    1.0275    4.8920   -0.5485 N   0  0  0  0  0  0  0  0  0  0  0  0
    2.2296    5.0179    0.2338 C   0  0  0  0  0  0  0  0  0  0  0  0
    1.9180    5.4544    1.6645 C   0  0  0  0  0  0  0  0  0  0  0  0
    0.3047    5.9191   -1.1099 C   0  0  0  0  0  0  0  0  0  0  0  0
   -0.9395    5.4241   -1.6329 C   0  0  0  0  0  0  0  0  0  0  0  0
   -1.8097    6.3151   -2.2685 C   0  0  0  0  0  0  0  0  0  0  0  0
   -1.4535    7.6333   -2.3794 C   0  0  0  0  0  0  0  0  0  0  0  0
   -0.2456    8.1308   -1.8418 C   0  0  0  0  0  0  0  0  0  0  0  0
    0.6435    7.2502   -1.2157 C   0  0  0  0  0  0  0  0  0  0  0  0
    0.0561    9.5178   -2.0159 C   0  0  0  0  0  0  0  0  0  0  0  0
    0.9112   10.3293   -1.3373 C   0  0  0  0  0  0  0  0  0  0  0  0
    1.3502   11.6046   -1.9756 C   0  0  0  0  0  0  0  0  0  0  0  0
    0.8696   12.1184   -2.9617 O   0  0  0  0  0  0  0  0  0  0  0  0
    2.5046   12.0575   -1.1847 C   0  0  0  0  0  0  0  0  0  0  0  0
    3.3597   13.1260   -1.3995 C   0  0  0  0  0  0  0  0  0  0  0  0
    4.3919   13.3367   -0.5090 C   0  0  0  0  0  0  0  0  0  0  0  0
    4.5827   12.4873    0.5907 C   0  0  0  0  0  0  0  0  0  0  0  0
    5.6276   12.7956    1.3884 O   0  0  0  0  0  0  0  0  0  0  0  0
    5.8707   12.0103    2.5353 C   0  0  0  0  0  0  0  0  0  0  0  0
    3.7230   11.4077    0.8073 C   0  0  0  0  0  0  0  0  0  0  0  0
    2.6823   11.2054   -0.0818 C   0  0  0  0  0  0  0  0  0  0  0  0
    1.6099   10.2097   -0.0786 C   0  0  0  0  0  0  0  0  0  0  0  0
    1.2078    9.4955    1.0224 C   0  0  0  0  0  0  0  0  0  0  0  0
    0.0075    8.7593    1.0897 C   0  0  0  0  0  0  0  0  0  0  0  0
   -0.9757    8.1847    1.2363 N   0  0  0  0  0  0  0  0  0  0  0  0
    1.9098    9.4692    2.2420 C   0  0  0  0  0  0  0  0  0  0  0  0
    2.4653    9.3866    3.2448 N   0  0  0  0  0  0  0  0  0  0  0  0
   -3.7879   -7.4904   -0.7051 H   0  0  0  0  0  0  0  0  0  0  0  0
    2.1439   -9.2983   -0.0682 H   0  0  0  0  0  0  0  0  0  0  0  0
   -1.8047  -12.4662   -0.2236 H   0  0  0  0  0  0  0  0  0  0  0  0
    1.0868  -14.1760    0.5065 H   0  0  0  0  0  0  0  0  0  0  0  0
    0.7668  -15.0457   -1.8042 H   0  0  0  0  0  0  0  0  0  0  0  0
    0.2463  -12.9747   -3.3134 H   0  0  0  0  0  0  0  0  0  0  0  0
    2.3385  -11.3409   -3.2344 H   0  0  0  0  0  0  0  0  0  0  0  0
    4.1509  -12.4066   -1.6784 H   0  0  0  0  0  0  0  0  0  0  0  0
    3.3028  -14.8473   -0.9229 H   0  0  0  0  0  0  0  0  0  0  0  0
    3.2331  -14.6730   -2.6945 H   0  0  0  0  0  0  0  0  0  0  0  0
    3.1241  -12.5938    0.5834 H   0  0  0  0  0  0  0  0  0  0  0  0
   -4.3501   -5.5571   -1.7291 H   0  0  0  0  0  0  0  0  0  0  0  0
   -4.1735   -3.1426   -2.0167 H   0  0  0  0  0  0  0  0  0  0  0  0
   -0.8982   -5.6156    0.8167 H   0  0  0  0  0  0  0  0  0  0  0  0
    1.2954   -2.4631    1.4052 H   0  0  0  0  0  0  0  0  0  0  0  0
    0.9477   -4.1954    1.1440 H   0  0  0  0  0  0  0  0  0  0  0  0
   -0.7804   -4.0786    2.9732 H   0  0  0  0  0  0  0  0  0  0  0  0
    0.8245   -3.6317    3.5630 H   0  0  0  0  0  0  0  0  0  0  0  0
   -0.3730   -2.3778    3.2267 H   0  0  0  0  0  0  0  0  0  0  0  0
    4.1705    1.5721    2.6508 H   0  0  0  0  0  0  0  0  0  0  0  0
    3.7226   -0.1049    3.0843 H   0  0  0  0  0  0  0  0  0  0  0  0
    5.9178   -0.0642    1.8957 H   0  0  0  0  0  0  0  0  0  0  0  0
    5.1623    0.7452    0.5174 H   0  0  0  0  0  0  0  0  0  0  0  0
    4.6991   -0.9101    0.9336 H   0  0  0  0  0  0  0  0  0  0  0  0
   -3.2399   -1.0982   -2.8115 H   0  0  0  0  0  0  0  0  0  0  0  0
   -3.0819    0.6502   -2.7748 H   0  0  0  0  0  0  0  0  0  0  0  0
   -4.6743    0.6457   -0.7383 H   0  0  0  0  0  0  0  0  0  0  0  0
   -4.8294   -1.0896   -0.9476 H   0  0  0  0  0  0  0  0  0  0  0  0
   -5.4130    0.0004   -2.2109 H   0  0  0  0  0  0  0  0  0  0  0  0
   -3.6294    2.1997   -1.6135 H   0  0  0  0  0  0  0  0  0  0  0  0
   -3.4338    3.9446   -1.5878 H   0  0  0  0  0  0  0  0  0  0  0  0
   -2.4686    3.9660   -3.8403 H   0  0  0  0  0  0  0  0  0  0  0  0
   -4.0274    3.1334   -3.8832 H   0  0  0  0  0  0  0  0  0  0  0  0
   -2.5157    2.2165   -3.9485 H   0  0  0  0  0  0  0  0  0  0  0  0
    2.7151    4.0395    0.2520 H   0  0  0  0  0  0  0  0  0  0  0  0
    2.8912    5.7411   -0.2522 H   0  0  0  0  0  0  0  0  0  0  0  0
    1.3539    4.6759    2.1715 H   0  0  0  0  0  0  0  0  0  0  0  0
    1.3244    6.3659    1.6700 H   0  0  0  0  0  0  0  0  0  0  0  0
    2.8386    5.6318    2.2132 H   0  0  0  0  0  0  0  0  0  0  0  0
   -2.7523    5.9769   -2.6714 H   0  0  0  0  0  0  0  0  0  0  0  0
   -2.1217    8.3294   -2.8639 H   0  0  0  0  0  0  0  0  0  0  0  0
    1.5987    7.6065   -0.8613 H   0  0  0  0  0  0  0  0  0  0  0  0
   -0.4185    9.9961   -2.8685 H   0  0  0  0  0  0  0  0  0  0  0  0
    3.2090   13.7772   -2.2463 H   0  0  0  0  0  0  0  0  0  0  0  0
    5.0780   14.1594   -0.6330 H   0  0  0  0  0  0  0  0  0  0  0  0
    5.0130   12.0132    3.2139 H   0  0  0  0  0  0  0  0  0  0  0  0
    6.7244   12.4715    3.0286 H   0  0  0  0  0  0  0  0  0  0  0  0
    6.1201   10.9789    2.2689 H   0  0  0  0  0  0  0  0  0  0  0  0
    3.8694   10.7436    1.6418 H   0  0  0  0  0  0  0  0  0  0  0  0
  1  2  2  0  0  0  0
  2  3  1  0  0  0  0
  3  4  2  0  0  0  0
  3  5  1  0  0  0  0
  5  6  2  0  0  0  0
  6  7  1  0  0  0  0
  7  8  2  0  0  0  0
  8  9  1  0  0  0  0
  9 10  2  0  0  0  0
 10 11  1  0  0  0  0
 11 12  2  0  0  0  0
 12 13  1  0  0  0  0
 13 14  3  0  0  0  0
 12 15  1  0  0  0  0
 15 16  3  0  0  0  0
  8 17  1  0  0  0  0
 17 18  1  0  0  0  0
 18 19  1  0  0  0  0
 19 20  2  0  0  0  0
 20 21  1  0  0  0  0
 21 22  1  0  0  0  0
 21 23  1  0  0  0  0
  1 24  1  0  0  0  0
 24 25  2  0  0  0  0
 25 26  1  0  0  0  0
 26 27  2  0  0  0  0
 27 28  1  0  0  0  0
 28 29  2  0  0  0  0
 29 30  1  0  0  0  0
 30 31  1  0  0  0  0
 31 32  2  0  0  0  0
 30 33  1  0  0  0  0
 33 34  1  0  0  0  0
 29 35  1  0  0  0  0
 35 36  1  0  0  0  0
 36 37  1  0  0  0  0
 37 38  2  0  0  0  0
 38 39  1  0  0  0  0
 39 40  1  0  0  0  0
 40 41  1  0  0  0  0
 39 42  1  0  0  0  0
 37 43  1  0  0  0  0
 43 44  2  0  0  0  0
 44 45  1  0  0  0  0
 45 46  1  0  0  0  0
 46 47  1  0  0  0  0
 47 48  1  0  0  0  0
 44 49  1  0  0  0  0
 49 50  1  0  0  0  0
 50 51  1  0  0  0  0
 49 52  1  0  0  0  0
 52 53  2  0  0  0  0
 53 54  1  0  0  0  0
 54 55  1  0  0  0  0
 55 56  1  0  0  0  0
 54 57  1  0  0  0  0
 57 58  2  0  0  0  0
 58 59  1  0  0  0  0
 59 60  2  0  0  0  0
 60 61  1  0  0  0  0
 61 62  2  0  0  0  0
 61 63  1  0  0  0  0
 63 64  2  0  0  0  0
 64 65  1  0  0  0  0
 65 66  2  0  0  0  0
 65 67  1  0  0  0  0
 67 68  2  0  0  0  0
 68 69  1  0  0  0  0
 69 70  2  0  0  0  0
 70 71  1  0  0  0  0
 71 72  1  0  0  0  0
 70 73  1  0  0  0  0
 73 74  2  0  0  0  0
 74 75  1  0  0  0  0
 75 76  2  0  0  0  0
 76 77  1  0  0  0  0
 77 78  3  0  0  0  0
 76 79  1  0  0  0  0
 79 80  3  0  0  0  0
 11  2  1  0  0  0  0
 23 17  1  0  0  0  0
 32 24  1  0  0  0  0
 45 35  2  0  0  0  0
 58 52  1  0  0  0  0
 75 64  1  0  0  0  0
 10  5  1  0  0  0  0
 22 18  1  0  0  0  0
 31 27  1  0  0  0  0
 42 36  2  0  0  0  0
 53 43  1  0  0  0  0
 62 57  1  0  0  0  0
 74 67  1  0  0  0  0
 23  7  1  0  0  0  0
 46 28  1  0  0  0  0
  1 81  1  0  0  0  0
  6 82  1  0  0  0  0
  9 83  1  0  0  0  0
 17 84  1  0  0  0  0
 18 85  1  0  0  0  0
 19 86  1  0  0  0  0
 20 87  1  0  0  0  0
 21 88  1  0  0  0  0
 22 89  1  0  0  0  0
 22 90  1  0  0  0  0
 23 91  1  0  0  0  0
 25 92  1  0  0  0  0
 26 93  1  0  0  0  0
 32 94  1  0  0  0  0
 33 95  1  0  0  0  0
 33 96  1  0  0  0  0
 34 97  1  0  0  0  0
 34 98  1  0  0  0  0
 34 99  1  0  0  0  0
 40100  1  0  0  0  0
 40101  1  0  0  0  0
 41102  1  0  0  0  0
 41103  1  0  0  0  0
 41104  1  0  0  0  0
 47105  1  0  0  0  0
 47106  1  0  0  0  0
 48107  1  0  0  0  0
 48108  1  0  0  0  0
 48109  1  0  0  0  0
 50110  1  0  0  0  0
 50111  1  0  0  0  0
 51112  1  0  0  0  0
 51113  1  0  0  0  0
 51114  1  0  0  0  0
 55115  1  0  0  0  0
 55116  1  0  0  0  0
 56117  1  0  0  0  0
 56118  1  0  0  0  0
 56119  1  0  0  0  0
 59120  1  0  0  0  0
 60121  1  0  0  0  0
 62122  1  0  0  0  0
 63123  1  0  0  0  0
 68124  1  0  0  0  0
 69125  1  0  0  0  0
 72126  1  0  0  0  0
 72127  1  0  0  0  0
 72128  1  0  0  0  0
 73129  1  0  0  0  0
M  END
