110

C         -3.79930       -4.85490       -0.58630
C         -5.13130       -5.12810       -0.76170
C         -6.24000       -4.16400       -0.77260
O         -6.18830       -2.96650       -0.56340
C         -7.45300       -4.93290       -1.10010
C         -8.74080       -4.42850       -1.26560
C         -9.67680       -5.38270       -1.58410
C         -9.35470       -6.73900       -1.72610
C         -8.08760       -7.24820       -1.56840
C         -7.11790       -6.29360       -1.24430
C         -5.68090       -6.44580       -1.02110
C         -5.00210       -7.63890       -1.05180
C         -5.59930       -8.89390       -1.29380
N         -6.00670       -9.95320       -1.46970
C         -3.61830       -7.81390       -0.84750
N         -2.50340       -8.05220       -0.69640
C        -10.77710       -7.12580       -2.04630
C        -11.58510       -7.78610       -0.90900
C        -13.02340       -7.61080       -1.33980
C        -13.32960       -6.32630       -1.21050
C        -12.10370       -5.61180       -0.68910
C        -11.50700       -6.71840        0.19000
C        -11.13570       -5.61290       -1.89110
C         -3.11790       -3.65050       -0.34970
S         -3.92260       -2.09370       -0.14420
C         -2.39620       -1.36690        0.08090
C         -1.88100       -0.09520        0.34890
C         -2.57290        1.10630        0.60880
C         -1.81390        2.26950        0.93970
N         -2.57610        3.32220        1.19350
S         -4.12490        2.87720        1.02600
N         -3.87740        1.33010        0.62500
C         -0.40550        2.18170        0.92570
C          0.53820        3.19130        1.12390
S          0.58690        4.87950        1.49000
C          2.33420        4.82220        1.33930
C          3.30880        5.79920        1.45620
C          2.98840        7.23060        1.73540
C          2.86700        8.02290        0.43040
C          4.59430        5.27550        1.20820
S          4.54820        3.54500        0.85450
C          2.83370        3.54260        1.02580
C          1.79550        2.61550        0.91360
N          1.65650        1.28970        0.60350
C          0.30600        0.97520        0.61910
C         -0.46020       -0.20710        0.38550
N         -0.14530       -1.54240        0.18570
C         -1.31140       -2.25540       -0.01030
C         -1.71230       -3.57570       -0.24700
C         -0.83840       -4.79330       -0.30840
C         -0.73510       -5.45810        1.06820
C          1.14460       -2.18230        0.16020
C          1.67450       -2.32550       -1.26890
C          2.87260        0.55850        0.32330
C          3.55840        0.09130        1.60730
C          5.74530        6.06010        1.22570
C          7.06000        5.74710        0.95240
C          7.56960        4.43520        0.56140
O          6.95370        3.38850        0.45920
C          9.01560        4.61840        0.30920
C          9.94150        3.68730       -0.10920
C         11.25410        4.11790       -0.28700
C         12.27030        3.12020       -0.76970
F         12.06760        2.78570       -2.05880
F         12.22110        1.97040       -0.07600
F         13.53090        3.56250       -0.68800
C         11.61420        5.43880       -0.05190
C         10.67450        6.36900        0.37300
C          9.36400        5.95750        0.55460
C          8.16160        6.68350        0.97620
C          8.13130        8.00930        1.33010
C          6.99080        8.72560        1.74870
N          6.11230        9.37810        2.09960
C          9.26030        8.85520        1.33150
N         10.13400        9.59960        1.35450
H         -3.14990       -5.71600       -0.64900
H         -8.94100       -3.37490       -1.14970
H         -7.85850       -8.29320       -1.69150
H        -10.93390       -7.60290       -3.01180
H        -11.26960       -8.79370       -0.65260
H        -13.63220       -8.40300       -1.73450
H        -14.24530       -5.83100       -1.47570
H        -12.26170       -4.63860       -0.23230
H        -12.14340       -6.95640        1.04070
H        -10.49650       -6.51220        0.53790
H        -11.52830       -5.07980       -2.75500
H          2.03350        7.26860        2.26330
H          3.74850        7.68910        2.36930
H          2.61620        9.05650        0.65040
H          2.08660        7.59940       -0.19750
H          3.80450        8.00540       -0.12050
H          0.15800       -4.53420       -0.66000
H         -1.23940       -5.51790       -1.01780
H         -0.10480       -6.34090        1.00680
H         -0.31360       -4.77350        1.80220
H         -1.71810       -5.76440        1.41610
H          1.03590       -3.17020        0.61250
H          1.83150       -1.62370        0.78960
H          1.68960       -1.36560       -1.78160
H          1.03420       -2.98680       -1.84760
H          2.68010       -2.73840       -1.25740
H          2.67710       -0.26300       -0.35710
H          3.54570        1.25240       -0.19040
H          3.87990        0.95100        2.18900
H          2.89110       -0.50500        2.22680
H          4.43520       -0.50010        1.36030
H          5.55360        7.09320        1.48040
H          9.65380        2.66310       -0.29000
H         12.63810        5.74620       -0.19960
H         10.98020        7.38690        0.54850
