136

C         -3.34440        4.72060        2.76060
C         -3.62360        5.38490        3.92230
C         -2.98490        5.12070        5.22880
O         -2.01380        4.42520        5.44180
C         -3.67140        5.99080        6.19790
C         -3.48500        6.01410        7.57760
C         -4.29020        6.91330        8.23370
C         -5.20250        7.74000        7.56420
C         -5.38460        7.73750        6.20190
C         -4.58260        6.82010        5.51500
C         -4.52620        6.50480        4.08820
C         -5.25760        7.12570        3.10720
C         -5.24330        6.78580        1.73900
N         -5.30160        6.56290        0.61320
C         -6.13330        8.20910        3.32580
N         -6.85830        9.09460        3.42220
C         -5.68920        8.37420        8.84370
C         -7.05040        7.88100        9.37880
C         -7.03880        8.29560       10.83250
C         -6.17350        7.51550       11.46760
C         -5.58620        6.56030       10.45380
C         -6.79830        6.37520        9.53190
C         -4.67080        7.45360        9.58980
C         -2.76490        3.44020        2.61990
C         -2.79750        2.32110        3.45240
C         -3.48770        2.27860        4.74580
C         -4.81470        2.70580        4.78090
C         -5.52340        2.72780        5.96380
C         -4.91000        2.30290        7.13090
C         -3.60340        1.85780        7.09670
C         -2.86040        1.84760        5.92030
C         -1.42310        1.40560        5.94910
C         -0.61390        2.06150        7.06660
C         -2.22070        1.20660        2.82660
S         -2.05790       -0.46700        3.31210
C         -1.29090       -0.80550        1.79990
C         -0.75580       -1.89840        1.10180
C         -0.74210       -3.27780        1.40610
C         -0.24430       -4.19910        0.42560
N         -0.35180       -5.45910        0.81580
S         -1.01650       -5.48480        2.29160
N         -1.19440       -3.88790        2.49010
C          0.34310       -3.68810       -0.75320
C          1.05370       -4.32380       -1.77980
S          1.50370       -5.92380       -2.26320
C          2.43630       -5.22490       -3.57280
C          3.23910       -5.78760       -4.55600
C          3.42350       -7.23500       -4.74600
C          4.62480       -7.87400       -4.43200
C          5.76130       -7.13560       -3.78290
C          5.56290       -7.09670       -2.26590
C          4.72580       -9.24000       -4.65620
C          3.66990       -9.96180       -5.17990
C          2.47680       -9.32490       -5.47360
C          2.35470       -7.96690       -5.25340
C          3.81960       -4.80670       -5.37750
S          3.35790       -3.17750       -4.89510
C          2.39000       -3.82020       -3.61870
C          1.58000       -3.31520       -2.59760
N          1.19330       -2.08840       -2.12930
C          0.41180       -2.28630       -1.01020
C         -0.26770       -1.39680       -0.13810
N         -0.54620       -0.03920       -0.20680
C         -1.17180        0.30930        0.96350
C         -1.72700        1.45640        1.53760
S         -2.01210        3.08730        1.06430
C         -0.77800        0.78340       -1.37590
C         -2.03010        0.32860       -2.12260
C          1.84090       -0.89520       -2.62420
C          1.26450       -0.44140       -3.96470
C          4.65110       -5.14710       -6.45150
C          5.32820       -4.35240       -7.34060
C          5.30400       -2.88620       -7.37600
O          4.69190       -2.13540       -6.63290
C          6.16700       -2.49220       -8.49900
C          6.48390       -1.22910       -8.95420
C          7.33320       -1.09000      -10.04720
C          7.68820        0.27350      -10.54800
C          7.85170       -2.23420      -10.67190
C          8.76390       -2.09910      -11.84920
C          7.52660       -3.50540      -10.20490
C          6.68440       -3.64400       -9.11530
C          6.18720       -4.82270       -8.40940
C          6.50890       -6.12140       -8.71110
C          7.35380       -6.49470       -9.77710
N          8.02850       -6.86820      -10.62800
C          6.07520       -7.27050       -8.01770
N          5.78450       -8.26290       -7.51620
H         -3.61120        5.19330        1.82260
H         -2.77100        5.35830        8.05040
H         -6.08690        8.38460        5.70350
H         -5.56820        9.45320        8.91700
H         -7.90950        8.18840        8.78890
H         -7.60020        9.12310       11.22470
H         -5.86760        7.56130       12.49640
H         -5.11120        5.66400       10.84370
H         -7.62260        5.86940       10.03220
H         -6.57040        5.86520        8.59750
H         -3.86840        7.91870       10.15940
H         -5.29180        3.01510        3.86110
H         -6.54910        3.06610        5.97400
H         -5.45360        2.31430        8.06430
H         -3.14330        1.51220        8.00970
H         -0.94750        1.65710        5.00200
H         -1.39250        0.31760        6.06680
H          0.43250        1.77900        6.97430
H         -0.69260        3.14130        6.98110
H         -0.95980        1.75710        8.05070
H          5.82840       -6.11420       -4.16140
H          6.69990       -7.64300       -4.01290
H          4.63650       -6.58410       -2.01620
H          5.51060       -8.10670       -1.86610
H          6.38860       -6.57490       -1.78750
H          5.65370       -9.74070       -4.42240
H          3.77710      -11.02100       -5.35780
H          1.64440       -9.88140       -5.87730
H          1.43110       -7.45630       -5.48600
H         -0.91360        1.80690       -1.01750
H          0.07880        0.77340       -2.04160
H         -2.19940        0.96710       -2.98510
H         -2.90010        0.38700       -1.47260
H         -1.92150       -0.70050       -2.45940
H          2.90070       -1.13250       -2.76840
H          1.78020       -0.11950       -1.85950
H          1.69360        0.51670       -4.24430
H          1.51650       -1.16250       -4.73720
H          0.18240       -0.34860       -3.92430
H          4.76160       -6.21900       -6.56950
H          6.07210       -0.36280       -8.45810
H          7.37730        0.39390      -11.58530
H          8.76620        0.42720      -10.50860
H          7.20570        1.04120       -9.94940
H          9.65460       -1.53230      -11.58000
H          9.07080       -3.07570      -12.21320
H          8.26720       -1.56570      -12.65910
H          7.93940       -4.36750      -10.70330
