
  xtb     02022221473D
 energy: -201.764041448704 gnorm: 0.000490707582 xtb: 6.4.1 (unknown)
119133  0     0  0            999 V2000
   -1.4282    6.5219    0.5848 C   0  0  0  0  0  0  0  0  0  0  0  0
   -0.4250    6.6813    1.5094 C   0  0  0  0  0  0  0  0  0  0  0  0
    0.3910    5.6168    2.0964 C   0  0  0  0  0  0  0  0  0  0  0  0
    0.3079    4.4162    1.8930 O   0  0  0  0  0  0  0  0  0  0  0  0
    1.3466    6.2769    3.0022 C   0  0  0  0  0  0  0  0  0  0  0  0
    2.3343    5.6648    3.7705 C   0  0  0  0  0  0  0  0  0  0  0  0
    3.0814    6.5410    4.5206 C   0  0  0  0  0  0  0  0  0  0  0  0
    2.8642    7.9247    4.5043 C   0  0  0  0  0  0  0  0  0  0  0  0
    1.8946    8.5410    3.7491 C   0  0  0  0  0  0  0  0  0  0  0  0
    1.1193    7.6674    2.9807 C   0  0  0  0  0  0  0  0  0  0  0  0
    0.0112    7.9449    2.0664 C   0  0  0  0  0  0  0  0  0  0  0  0
   -0.5097    9.1897    1.8127 C   0  0  0  0  0  0  0  0  0  0  0  0
   -1.5839    9.4760    0.9457 C   0  0  0  0  0  0  0  0  0  0  0  0
   -2.4509    9.7998    0.2634 N   0  0  0  0  0  0  0  0  0  0  0  0
   -0.0466   10.3857    2.3990 C   0  0  0  0  0  0  0  0  0  0  0  0
    0.2710   11.4006    2.8329 N   0  0  0  0  0  0  0  0  0  0  0  0
    3.9722    8.1917    5.4928 C   0  0  0  0  0  0  0  0  0  0  0  0
    3.5443    8.4897    6.9452 C   0  0  0  0  0  0  0  0  0  0  0  0
    4.7964    8.2302    7.7515 C   0  0  0  0  0  0  0  0  0  0  0  0
    5.0011    6.9193    7.7683 C   0  0  0  0  0  0  0  0  0  0  0  0
    3.8907    6.2706    6.9735 C   0  0  0  0  0  0  0  0  0  0  0  0
    2.7392    7.2317    7.2961 C   0  0  0  0  0  0  0  0  0  0  0  0
    4.2135    6.6480    5.5121 C   0  0  0  0  0  0  0  0  0  0  0  0
   -1.9411    5.3734   -0.0250 C   0  0  0  0  0  0  0  0  0  0  0  0
   -2.9804    5.4102   -0.9712 C   0  0  0  0  0  0  0  0  0  0  0  0
   -3.6382    6.6431   -1.4994 C   0  0  0  0  0  0  0  0  0  0  0  0
   -2.8125    7.2534   -2.6353 C   0  0  0  0  0  0  0  0  0  0  0  0
   -3.3015    4.1370   -1.4203 C   0  0  0  0  0  0  0  0  0  0  0  0
   -2.5350    3.1118   -0.8395 C   0  0  0  0  0  0  0  0  0  0  0  0
   -1.3862    3.7271    0.2886 S   0  0  0  0  0  0  0  0  0  0  0  0
   -2.9138    1.8605   -1.3346 C   0  0  0  0  0  0  0  0  0  0  0  0
   -3.9574    1.9435   -2.2627 C   0  0  0  0  0  0  0  0  0  0  0  0
   -4.4942    3.5583   -2.5701 S   0  0  0  0  0  0  0  0  0  0  0  0
   -4.2659    0.6329   -2.6484 C   0  0  0  0  0  0  0  0  0  0  0  0
   -5.2993    0.1363   -3.4723 C   0  0  0  0  0  0  0  0  0  0  0  0
   -6.2194    0.8127   -4.1414 N   0  0  0  0  0  0  0  0  0  0  0  0
   -7.2047   -0.2465   -4.8695 S   0  0  0  0  0  0  0  0  0  0  0  0
   -6.4933   -1.6090   -4.3597 N   0  0  0  0  0  0  0  0  0  0  0  0
   -5.4580   -1.2819   -3.6024 C   0  0  0  0  0  0  0  0  0  0  0  0
   -4.5172   -2.1315   -2.9814 C   0  0  0  0  0  0  0  0  0  0  0  0
   -4.3764   -3.5274   -3.0272 C   0  0  0  0  0  0  0  0  0  0  0  0
   -5.1764   -4.9083   -3.7012 S   0  0  0  0  0  0  0  0  0  0  0  0
   -3.9255   -5.9269   -3.0343 C   0  0  0  0  0  0  0  0  0  0  0  0
   -3.6968   -7.3167   -3.0531 C   0  0  0  0  0  0  0  0  0  0  0  0
   -2.5676   -7.6670   -2.3789 C   0  0  0  0  0  0  0  0  0  0  0  0
   -1.7515   -6.2820   -1.6855 S   0  0  0  0  0  0  0  0  0  0  0  0
   -2.9530   -5.2189   -2.3320 C   0  0  0  0  0  0  0  0  0  0  0  0
   -3.2118   -3.8397   -2.3262 C   0  0  0  0  0  0  0  0  0  0  0  0
   -2.6408   -2.7016   -1.8274 N   0  0  0  0  0  0  0  0  0  0  0  0
   -1.2676   -2.7381   -1.3762 C   0  0  0  0  0  0  0  0  0  0  0  0
   -0.3325   -2.0626   -2.3755 C   0  0  0  0  0  0  0  0  0  0  0  0
   -3.4313   -1.6271   -2.2108 C   0  0  0  0  0  0  0  0  0  0  0  0
   -3.3605   -0.2292   -1.9600 C   0  0  0  0  0  0  0  0  0  0  0  0
   -2.5492    0.5522   -1.1571 N   0  0  0  0  0  0  0  0  0  0  0  0
   -1.7153    0.1999   -0.0297 C   0  0  0  0  0  0  0  0  0  0  0  0
   -2.5211   -0.4983    1.0632 C   0  0  0  0  0  0  0  0  0  0  0  0
   -2.0056   -9.0475   -2.2132 C   0  0  0  0  0  0  0  0  0  0  0  0
   -1.2647   -9.1896   -0.9216 C   0  0  0  0  0  0  0  0  0  0  0  0
   -0.0057   -8.7533   -0.8105 C   0  0  0  0  0  0  0  0  0  0  0  0
    0.6600   -8.0993   -1.9145 C   0  0  0  0  0  0  0  0  0  0  0  0
    1.5786   -7.0919   -1.7233 C   0  0  0  0  0  0  0  0  0  0  0  0
    2.2410   -6.4677   -2.8702 C   0  0  0  0  0  0  0  0  0  0  0  0
    2.2849   -6.9506   -3.9851 O   0  0  0  0  0  0  0  0  0  0  0  0
    2.8485   -5.2380   -2.6398 N   0  0  0  0  0  0  0  0  0  0  0  0
    3.4914   -4.6070   -3.7878 C   0  0  0  0  0  0  0  0  0  0  0  0
    2.5137   -3.7737   -4.6049 C   0  0  0  0  0  0  0  0  0  0  0  0
    2.8041   -4.5796   -1.4475 C   0  0  0  0  0  0  0  0  0  0  0  0
    3.2396   -2.9903   -1.3358 S   0  0  0  0  0  0  0  0  0  0  0  0
    2.4109   -5.2824   -0.3480 N   0  0  0  0  0  0  0  0  0  0  0  0
    1.8734   -6.5681   -0.3845 C   0  0  0  0  0  0  0  0  0  0  0  0
    1.6515   -7.1423    0.6612 O   0  0  0  0  0  0  0  0  0  0  0  0
    2.5190   -4.6629    0.9685 C   0  0  0  0  0  0  0  0  0  0  0  0
    1.2631   -3.8736    1.3136 C   0  0  0  0  0  0  0  0  0  0  0  0
    0.2254   -8.5011   -3.2907 C   0  0  0  0  0  0  0  0  0  0  0  0
   -1.0025   -9.4077   -3.3232 C   0  0  0  0  0  0  0  0  0  0  0  0
   -1.9141    7.4300    0.2560 H   0  0  0  0  0  0  0  0  0  0  0  0
    2.4703    4.5948    3.7473 H   0  0  0  0  0  0  0  0  0  0  0  0
    1.7463    9.6076    3.7456 H   0  0  0  0  0  0  0  0  0  0  0  0
    4.7735    8.8399    5.1434 H   0  0  0  0  0  0  0  0  0  0  0  0
    3.0598    9.4515    7.0888 H   0  0  0  0  0  0  0  0  0  0  0  0
    5.4147    9.0050    8.1653 H   0  0  0  0  0  0  0  0  0  0  0  0
    5.8246    6.3801    8.1988 H   0  0  0  0  0  0  0  0  0  0  0  0
    3.7217    5.2106    7.1440 H   0  0  0  0  0  0  0  0  0  0  0  0
    2.4605    7.2016    8.3482 H   0  0  0  0  0  0  0  0  0  0  0  0
    1.8535    7.0857    6.6805 H   0  0  0  0  0  0  0  0  0  0  0  0
    5.1768    6.2674    5.1771 H   0  0  0  0  0  0  0  0  0  0  0  0
   -3.7749    7.3855   -0.7118 H   0  0  0  0  0  0  0  0  0  0  0  0
   -4.6221    6.3664   -1.8835 H   0  0  0  0  0  0  0  0  0  0  0  0
   -1.8227    7.5348   -2.2835 H   0  0  0  0  0  0  0  0  0  0  0  0
   -2.7025    6.5394   -3.4483 H   0  0  0  0  0  0  0  0  0  0  0  0
   -3.3084    8.1422   -3.0145 H   0  0  0  0  0  0  0  0  0  0  0  0
   -4.3417   -8.0225   -3.5438 H   0  0  0  0  0  0  0  0  0  0  0  0
   -1.1779   -2.3034   -0.3807 H   0  0  0  0  0  0  0  0  0  0  0  0
   -0.9992   -3.7945   -1.2887 H   0  0  0  0  0  0  0  0  0  0  0  0
    0.6885   -2.0791   -2.0016 H   0  0  0  0  0  0  0  0  0  0  0  0
   -0.6229   -1.0295   -2.5513 H   0  0  0  0  0  0  0  0  0  0  0  0
   -0.3655   -2.5888   -3.3272 H   0  0  0  0  0  0  0  0  0  0  0  0
   -0.8646   -0.4000   -0.3521 H   0  0  0  0  0  0  0  0  0  0  0  0
   -1.3136    1.1366    0.3641 H   0  0  0  0  0  0  0  0  0  0  0  0
   -1.8677   -0.7719    1.8871 H   0  0  0  0  0  0  0  0  0  0  0  0
   -3.2904    0.1716    1.4401 H   0  0  0  0  0  0  0  0  0  0  0  0
   -3.0084   -1.3944    0.6850 H   0  0  0  0  0  0  0  0  0  0  0  0
   -2.8454   -9.7492   -2.2509 H   0  0  0  0  0  0  0  0  0  0  0  0
   -1.7755   -9.6302   -0.0794 H   0  0  0  0  0  0  0  0  0  0  0  0
    0.5172   -8.8191    0.1286 H   0  0  0  0  0  0  0  0  0  0  0  0
    4.3064   -3.9836   -3.4171 H   0  0  0  0  0  0  0  0  0  0  0  0
    3.8928   -5.4159   -4.4015 H   0  0  0  0  0  0  0  0  0  0  0  0
    2.1307   -2.9470   -4.0125 H   0  0  0  0  0  0  0  0  0  0  0  0
    1.6855   -4.3920   -4.9423 H   0  0  0  0  0  0  0  0  0  0  0  0
    3.0244   -3.3708   -5.4745 H   0  0  0  0  0  0  0  0  0  0  0  0
    2.6626   -5.4732    1.6850 H   0  0  0  0  0  0  0  0  0  0  0  0
    3.3924   -4.0093    0.9689 H   0  0  0  0  0  0  0  0  0  0  0  0
    1.3520   -3.4755    2.3200 H   0  0  0  0  0  0  0  0  0  0  0  0
    1.1370   -3.0456    0.6205 H   0  0  0  0  0  0  0  0  0  0  0  0
    0.3894   -4.5196    1.2665 H   0  0  0  0  0  0  0  0  0  0  0  0
    1.0646   -8.9979   -3.7835 H   0  0  0  0  0  0  0  0  0  0  0  0
    0.0413   -7.5982   -3.8786 H   0  0  0  0  0  0  0  0  0  0  0  0
   -1.4811   -9.3317   -4.3000 H   0  0  0  0  0  0  0  0  0  0  0  0
   -0.7032  -10.4468   -3.1708 H   0  0  0  0  0  0  0  0  0  0  0  0
  1  2  2  0  0  0  0
  2  3  1  0  0  0  0
  3  4  2  0  0  0  0
  3  5  1  0  0  0  0
  5  6  2  0  0  0  0
  6  7  1  0  0  0  0
  7  8  2  0  0  0  0
  8  9  1  0  0  0  0
  9 10  2  0  0  0  0
 10 11  1  0  0  0  0
 11 12  2  0  0  0  0
 12 13  1  0  0  0  0
 13 14  3  0  0  0  0
 12 15  1  0  0  0  0
 15 16  3  0  0  0  0
  8 17  1  0  0  0  0
 17 18  1  0  0  0  0
 18 19  1  0  0  0  0
 19 20  2  0  0  0  0
 20 21  1  0  0  0  0
 21 22  1  0  0  0  0
 21 23  1  0  0  0  0
  1 24  1  0  0  0  0
 24 25  2  0  0  0  0
 25 26  1  0  0  0  0
 26 27  1  0  0  0  0
 25 28  1  0  0  0  0
 28 29  2  0  0  0  0
 29 30  1  0  0  0  0
 29 31  1  0  0  0  0
 31 32  2  0  0  0  0
 32 33  1  0  0  0  0
 32 34  1  0  0  0  0
 34 35  1  0  0  0  0
 35 36  2  0  0  0  0
 36 37  1  0  0  0  0
 37 38  1  0  0  0  0
 38 39  2  0  0  0  0
 39 40  1  0  0  0  0
 40 41  1  0  0  0  0
 41 42  1  0  0  0  0
 42 43  1  0  0  0  0
 43 44  1  0  0  0  0
 44 45  2  0  0  0  0
 45 46  1  0  0  0  0
 46 47  1  0  0  0  0
 47 48  1  0  0  0  0
 48 49  1  0  0  0  0
 49 50  1  0  0  0  0
 50 51  1  0  0  0  0
 49 52  1  0  0  0  0
 52 53  1  0  0  0  0
 53 54  1  0  0  0  0
 54 55  1  0  0  0  0
 55 56  1  0  0  0  0
 45 57  1  0  0  0  0
 57 58  1  0  0  0  0
 58 59  2  0  0  0  0
 59 60  1  0  0  0  0
 60 61  2  0  0  0  0
 61 62  1  0  0  0  0
 62 63  2  0  0  0  0
 62 64  1  0  0  0  0
 64 65  1  0  0  0  0
 65 66  1  0  0  0  0
 64 67  1  0  0  0  0
 67 68  2  0  0  0  0
 67 69  1  0  0  0  0
 69 70  1  0  0  0  0
 70 71  2  0  0  0  0
 69 72  1  0  0  0  0
 72 73  1  0  0  0  0
 60 74  1  0  0  0  0
 74 75  1  0  0  0  0
 11  2  1  0  0  0  0
 23 17  1  0  0  0  0
 30 24  1  0  0  0  0
 54 31  1  0  0  0  0
 75 57  1  0  0  0  0
 10  5  1  0  0  0  0
 22 18  1  0  0  0  0
 33 28  1  0  0  0  0
 53 34  2  0  0  0  0
 70 61  1  0  0  0  0
 23  7  1  0  0  0  0
 39 35  1  0  0  0  0
 52 40  2  0  0  0  0
 48 41  2  0  0  0  0
 47 43  2  0  0  0  0
  1 76  1  0  0  0  0
  6 77  1  0  0  0  0
  9 78  1  0  0  0  0
 17 79  1  0  0  0  0
 18 80  1  0  0  0  0
 19 81  1  0  0  0  0
 20 82  1  0  0  0  0
 21 83  1  0  0  0  0
 22 84  1  0  0  0  0
 22 85  1  0  0  0  0
 23 86  1  0  0  0  0
 26 87  1  0  0  0  0
 26 88  1  0  0  0  0
 27 89  1  0  0  0  0
 27 90  1  0  0  0  0
 27 91  1  0  0  0  0
 44 92  1  0  0  0  0
 50 93  1  0  0  0  0
 50 94  1  0  0  0  0
 51 95  1  0  0  0  0
 51 96  1  0  0  0  0
 51 97  1  0  0  0  0
 55 98  1  0  0  0  0
 55 99  1  0  0  0  0
 56100  1  0  0  0  0
 56101  1  0  0  0  0
 56102  1  0  0  0  0
 57103  1  0  0  0  0
 58104  1  0  0  0  0
 59105  1  0  0  0  0
 65106  1  0  0  0  0
 65107  1  0  0  0  0
 66108  1  0  0  0  0
 66109  1  0  0  0  0
 66110  1  0  0  0  0
 72111  1  0  0  0  0
 72112  1  0  0  0  0
 73113  1  0  0  0  0
 73114  1  0  0  0  0
 73115  1  0  0  0  0
 74116  1  0  0  0  0
 74117  1  0  0  0  0
 75118  1  0  0  0  0
 75119  1  0  0  0  0
M  END
