
  xtb     02112203443D
 energy: -195.778010791507 gnorm: 0.000741496779 xtb: 6.4.1 (unknown)
110124  0     0  0            999 V2000
    0.8900   -4.4576   -5.0486 C   0  0  0  0  0  0  0  0  0  0  0  0
   -0.0594   -5.3325   -4.5847 C   0  0  0  0  0  0  0  0  0  0  0  0
   -0.8501   -5.1865   -3.3601 C   0  0  0  0  0  0  0  0  0  0  0  0
   -0.8019   -4.2751   -2.5492 O   0  0  0  0  0  0  0  0  0  0  0  0
   -1.7329   -6.3623   -3.2925 C   0  0  0  0  0  0  0  0  0  0  0  0
   -2.6671   -6.6550   -2.3019 C   0  0  0  0  0  0  0  0  0  0  0  0
   -3.3515   -7.8287   -2.5080 C   0  0  0  0  0  0  0  0  0  0  0  0
   -3.1261   -8.6488   -3.6213 C   0  0  0  0  0  0  0  0  0  0  0  0
   -2.2094   -8.3698   -4.6072 C   0  0  0  0  0  0  0  0  0  0  0  0
   -1.4977   -7.1829   -4.4145 C   0  0  0  0  0  0  0  0  0  0  0  0
   -0.4555   -6.5663   -5.2344 C   0  0  0  0  0  0  0  0  0  0  0  0
    0.0397   -7.0844   -6.4047 C   0  0  0  0  0  0  0  0  0  0  0  0
    1.0411   -6.5024   -7.2089 C   0  0  0  0  0  0  0  0  0  0  0  0
    1.8482   -6.0995   -7.9217 N   0  0  0  0  0  0  0  0  0  0  0  0
   -0.3854   -8.2971   -6.9866 C   0  0  0  0  0  0  0  0  0  0  0  0
   -0.6728   -9.2718   -7.5216 N   0  0  0  0  0  0  0  0  0  0  0  0
   -4.1486   -9.6651   -3.1806 C   0  0  0  0  0  0  0  0  0  0  0  0
   -3.6285  -10.9768   -2.5421 C   0  0  0  0  0  0  0  0  0  0  0  0
   -2.2890  -10.6535   -1.9280 C   0  0  0  0  0  0  0  0  0  0  0  0
   -2.5035   -9.8787   -0.8731 C   0  0  0  0  0  0  0  0  0  0  0  0
   -3.9922   -9.6632   -0.7553 C   0  0  0  0  0  0  0  0  0  0  0  0
   -4.5033  -11.0150   -1.2789 C   0  0  0  0  0  0  0  0  0  0  0  0
   -4.4002   -8.7518   -1.9395 C   0  0  0  0  0  0  0  0  0  0  0  0
    1.3527   -3.2435   -4.5289 C   0  0  0  0  0  0  0  0  0  0  0  0
    2.3466   -2.4746   -5.1546 C   0  0  0  0  0  0  0  0  0  0  0  0
    3.0905   -2.8469   -6.3955 C   0  0  0  0  0  0  0  0  0  0  0  0
    4.2499   -3.7914   -6.0703 C   0  0  0  0  0  0  0  0  0  0  0  0
    2.6225   -1.3136   -4.4439 C   0  0  0  0  0  0  0  0  0  0  0  0
    3.8298    0.1178   -4.7575 Se  0  0  0  0  0  2  0  0  0  0  0  0
    3.1285    0.8136   -3.1823 C   0  0  0  0  0  0  0  0  0  0  0  0
    3.2660    1.9561   -2.3894 C   0  0  0  0  0  0  0  0  0  0  0  0
    4.0417    3.1140   -2.6084 C   0  0  0  0  0  0  0  0  0  0  0  0
    3.9133    4.2056   -1.6964 C   0  0  0  0  0  0  0  0  0  0  0  0
    4.6541    5.2480   -2.0378 N   0  0  0  0  0  0  0  0  0  0  0  0
    5.4508    4.8778   -3.4015 S   0  0  0  0  0  0  0  0  0  0  0  0
    4.8764    3.3747   -3.6019 N   0  0  0  0  0  0  0  0  0  0  0  0
    3.0906    4.0442   -0.5621 C   0  0  0  0  0  0  0  0  0  0  0  0
    2.8841    4.9091    0.5163 C   0  0  0  0  0  0  0  0  0  0  0  0
    3.3912    6.6108    1.0548 Se  0  0  0  0  0  2  0  0  0  0  0  0
    2.3796    6.2384    2.6139 C   0  0  0  0  0  0  0  0  0  0  0  0
    2.1200    6.9752    3.7763 C   0  0  0  0  0  0  0  0  0  0  0  0
    2.8023    8.2737    4.0693 C   0  0  0  0  0  0  0  0  0  0  0  0
    2.4562    9.3633    3.0560 C   0  0  0  0  0  0  0  0  0  0  0  0
    1.3283    6.2563    4.6664 C   0  0  0  0  0  0  0  0  0  0  0  0
    0.9583    4.6404    4.0626 S   0  0  0  0  0  0  0  0  0  0  0  0
    1.8041    4.9576    2.5952 C   0  0  0  0  0  0  0  0  0  0  0  0
    2.0719    4.2282    1.4309 C   0  0  0  0  0  0  0  0  0  0  0  0
    1.7552    2.9885    0.9374 N   0  0  0  0  0  0  0  0  0  0  0  0
    2.3641    2.8480   -0.2990 C   0  0  0  0  0  0  0  0  0  0  0  0
    2.3788    1.8193   -1.2822 C   0  0  0  0  0  0  0  0  0  0  0  0
    1.7015    0.6219   -1.4322 N   0  0  0  0  0  0  0  0  0  0  0  0
    2.1465    0.0179   -2.5786 C   0  0  0  0  0  0  0  0  0  0  0  0
    1.8563   -1.1632   -3.2755 C   0  0  0  0  0  0  0  0  0  0  0  0
    0.7741   -2.4879   -3.0462 S   0  0  0  0  0  0  0  0  0  0  0  0
    0.4878    0.1548   -0.8007 C   0  0  0  0  0  0  0  0  0  0  0  0
   -0.6756    1.1095   -1.0584 C   0  0  0  0  0  0  0  0  0  0  0  0
    1.2147    1.9805    1.8216 C   0  0  0  0  0  0  0  0  0  0  0  0
    2.2676    0.9363    2.1848 C   0  0  0  0  0  0  0  0  0  0  0  0
    0.8993    6.5422    5.9786 C   0  0  0  0  0  0  0  0  0  0  0  0
    0.4927    7.7571    6.4648 C   0  0  0  0  0  0  0  0  0  0  0  0
   -0.0545    8.8411    5.6220 C   0  0  0  0  0  0  0  0  0  0  0  0
   -0.1492    8.8723    4.4143 O   0  0  0  0  0  0  0  0  0  0  0  0
   -0.6186    9.8257    6.5741 C   0  0  0  0  0  0  0  0  0  0  0  0
   -1.2554   11.0158    6.2918 C   0  0  0  0  0  0  0  0  0  0  0  0
   -1.7160   11.7616    7.3688 C   0  0  0  0  0  0  0  0  0  0  0  0
   -2.5922   13.4166    7.0441 Br  0  0  0  0  0  0  0  0  0  0  0  0
   -1.5550   11.3280    8.6779 C   0  0  0  0  0  0  0  0  0  0  0  0
   -0.9174   10.1268    8.9507 C   0  0  0  0  0  0  0  0  0  0  0  0
   -0.4416    9.3680    7.8914 C   0  0  0  0  0  0  0  0  0  0  0  0
    0.2636    8.0897    7.8522 C   0  0  0  0  0  0  0  0  0  0  0  0
    0.7081    7.3812    8.9395 C   0  0  0  0  0  0  0  0  0  0  0  0
    0.4728    7.7578   10.2771 C   0  0  0  0  0  0  0  0  0  0  0  0
    0.3032    8.0147   11.3831 N   0  0  0  0  0  0  0  0  0  0  0  0
    1.4816    6.2047    8.8596 C   0  0  0  0  0  0  0  0  0  0  0  0
    2.1333    5.2593    8.8621 N   0  0  0  0  0  0  0  0  0  0  0  0
    1.3745   -4.7331   -5.9750 H   0  0  0  0  0  0  0  0  0  0  0  0
   -2.8103   -5.9929   -1.4622 H   0  0  0  0  0  0  0  0  0  0  0  0
   -2.0519   -9.0121   -5.4571 H   0  0  0  0  0  0  0  0  0  0  0  0
   -4.9773   -9.8370   -3.8645 H   0  0  0  0  0  0  0  0  0  0  0  0
   -3.6585  -11.8413   -3.1997 H   0  0  0  0  0  0  0  0  0  0  0  0
   -1.3488  -10.9644   -2.3444 H   0  0  0  0  0  0  0  0  0  0  0  0
   -1.7782   -9.4127   -0.2319 H   0  0  0  0  0  0  0  0  0  0  0  0
   -4.3546   -9.3327    0.2146 H   0  0  0  0  0  0  0  0  0  0  0  0
   -5.5716  -11.0226   -1.4910 H   0  0  0  0  0  0  0  0  0  0  0  0
   -4.2534  -11.8439   -0.6186 H   0  0  0  0  0  0  0  0  0  0  0  0
   -5.3938   -8.3261   -1.8130 H   0  0  0  0  0  0  0  0  0  0  0  0
    2.4326   -3.3166   -7.1281 H   0  0  0  0  0  0  0  0  0  0  0  0
    3.4921   -1.9280   -6.8348 H   0  0  0  0  0  0  0  0  0  0  0  0
    3.8820   -4.7156   -5.6308 H   0  0  0  0  0  0  0  0  0  0  0  0
    4.7931   -4.0355   -6.9786 H   0  0  0  0  0  0  0  0  0  0  0  0
    4.9338   -3.3194   -5.3678 H   0  0  0  0  0  0  0  0  0  0  0  0
    2.5488    8.6076    5.0759 H   0  0  0  0  0  0  0  0  0  0  0  0
    3.8820    8.0889    4.0331 H   0  0  0  0  0  0  0  0  0  0  0  0
    2.9586   10.2888    3.3255 H   0  0  0  0  0  0  0  0  0  0  0  0
    1.3838    9.5331    3.0414 H   0  0  0  0  0  0  0  0  0  0  0  0
    2.7783    9.0733    2.0555 H   0  0  0  0  0  0  0  0  0  0  0  0
    0.2571   -0.8172   -1.2418 H   0  0  0  0  0  0  0  0  0  0  0  0
    0.6493   -0.0086    0.2646 H   0  0  0  0  0  0  0  0  0  0  0  0
   -1.5689    0.7481   -0.5564 H   0  0  0  0  0  0  0  0  0  0  0  0
   -0.4519    2.1134   -0.7039 H   0  0  0  0  0  0  0  0  0  0  0  0
   -0.8788    1.1650   -2.1253 H   0  0  0  0  0  0  0  0  0  0  0  0
    0.8951    2.4974    2.7293 H   0  0  0  0  0  0  0  0  0  0  0  0
    0.3266    1.5242    1.3851 H   0  0  0  0  0  0  0  0  0  0  0  0
    2.6678    0.4533    1.2962 H   0  0  0  0  0  0  0  0  0  0  0  0
    1.8318    0.1797    2.8315 H   0  0  0  0  0  0  0  0  0  0  0  0
    3.0919    1.4091    2.7137 H   0  0  0  0  0  0  0  0  0  0  0  0
    0.8447    5.6849    6.6404 H   0  0  0  0  0  0  0  0  0  0  0  0
   -1.3833   11.3469    5.2729 H   0  0  0  0  0  0  0  0  0  0  0  0
   -1.9320   11.9309    9.4895 H   0  0  0  0  0  0  0  0  0  0  0  0
   -0.8088    9.8036    9.9730 H   0  0  0  0  0  0  0  0  0  0  0  0
  1  2  2  0  0  0  0
  2  3  1  0  0  0  0
  3  4  2  0  0  0  0
  3  5  1  0  0  0  0
  5  6  2  0  0  0  0
  6  7  1  0  0  0  0
  7  8  2  0  0  0  0
  8  9  1  0  0  0  0
  9 10  2  0  0  0  0
 10 11  1  0  0  0  0
 11 12  2  0  0  0  0
 12 13  1  0  0  0  0
 13 14  3  0  0  0  0
 12 15  1  0  0  0  0
 15 16  3  0  0  0  0
  8 17  1  0  0  0  0
 17 18  1  0  0  0  0
 18 19  1  0  0  0  0
 19 20  2  0  0  0  0
 20 21  1  0  0  0  0
 21 22  1  0  0  0  0
 21 23  1  0  0  0  0
  1 24  1  0  0  0  0
 24 25  2  0  0  0  0
 25 26  1  0  0  0  0
 26 27  1  0  0  0  0
 25 28  1  0  0  0  0
 28 29  1  0  0  0  0
 29 30  1  0  0  0  0
 30 31  1  0  0  0  0
 31 32  1  0  0  0  0
 32 33  1  0  0  0  0
 33 34  2  0  0  0  0
 34 35  1  0  0  0  0
 35 36  1  0  0  0  0
 33 37  1  0  0  0  0
 37 38  1  0  0  0  0
 38 39  1  0  0  0  0
 39 40  1  0  0  0  0
 40 41  1  0  0  0  0
 41 42  1  0  0  0  0
 42 43  1  0  0  0  0
 41 44  2  0  0  0  0
 44 45  1  0  0  0  0
 45 46  1  0  0  0  0
 46 47  1  0  0  0  0
 47 48  1  0  0  0  0
 48 49  1  0  0  0  0
 49 50  1  0  0  0  0
 50 51  1  0  0  0  0
 51 52  1  0  0  0  0
 52 53  1  0  0  0  0
 53 54  1  0  0  0  0
 51 55  1  0  0  0  0
 55 56  1  0  0  0  0
 48 57  1  0  0  0  0
 57 58  1  0  0  0  0
 44 59  1  0  0  0  0
 59 60  2  0  0  0  0
 60 61  1  0  0  0  0
 61 62  2  0  0  0  0
 61 63  1  0  0  0  0
 63 64  2  0  0  0  0
 64 65  1  0  0  0  0
 65 66  1  0  0  0  0
 65 67  2  0  0  0  0
 67 68  1  0  0  0  0
 68 69  2  0  0  0  0
 69 70  1  0  0  0  0
 70 71  2  0  0  0  0
 71 72  1  0  0  0  0
 72 73  3  0  0  0  0
 71 74  1  0  0  0  0
 74 75  3  0  0  0  0
 11  2  1  0  0  0  0
 23 17  1  0  0  0  0
 54 24  1  0  0  0  0
 70 60  1  0  0  0  0
 10  5  1  0  0  0  0
 22 18  1  0  0  0  0
 53 28  2  0  0  0  0
 69 63  1  0  0  0  0
 23  7  1  0  0  0  0
 52 30  2  0  0  0  0
 50 31  2  0  0  0  0
 36 32  2  0  0  0  0
 49 37  2  0  0  0  0
 47 38  2  0  0  0  0
 46 40  2  0  0  0  0
  1 76  1  0  0  0  0
  6 77  1  0  0  0  0
  9 78  1  0  0  0  0
 17 79  1  0  0  0  0
 18 80  1  0  0  0  0
 19 81  1  0  0  0  0
 20 82  1  0  0  0  0
 21 83  1  0  0  0  0
 22 84  1  0  0  0  0
 22 85  1  0  0  0  0
 23 86  1  0  0  0  0
 26 87  1  0  0  0  0
 26 88  1  0  0  0  0
 27 89  1  0  0  0  0
 27 90  1  0  0  0  0
 27 91  1  0  0  0  0
 42 92  1  0  0  0  0
 42 93  1  0  0  0  0
 43 94  1  0  0  0  0
 43 95  1  0  0  0  0
 43 96  1  0  0  0  0
 55 97  1  0  0  0  0
 55 98  1  0  0  0  0
 56 99  1  0  0  0  0
 56100  1  0  0  0  0
 56101  1  0  0  0  0
 57102  1  0  0  0  0
 57103  1  0  0  0  0
 58104  1  0  0  0  0
 58105  1  0  0  0  0
 58106  1  0  0  0  0
 59107  1  0  0  0  0
 64108  1  0  0  0  0
 67109  1  0  0  0  0
 68110  1  0  0  0  0
M  END
