105

C         -3.21310        2.18060       -5.64770
C         -2.86740        1.83300       -6.92770
C         -1.65670        1.13340       -7.40970
O         -0.69470        0.73760       -6.77650
C         -1.81710        0.99170       -8.86680
C         -0.91970        0.38280       -9.74270
C         -1.32790        0.38750      -11.05400
C         -2.54030        0.95880      -11.46360
C         -3.43040        1.56650      -10.61100
C         -3.03470        1.57130       -9.26890
C         -3.70270        2.11330       -8.08740
C         -4.90460        2.77270       -8.11030
C         -5.59450        3.32590       -7.00960
N         -6.24280        3.81360       -6.19560
C         -5.66130        3.01510       -9.27710
N         -6.33910        3.25500      -10.17250
C         -2.31490        0.59650      -12.91010
C         -3.09950       -0.61990      -13.44620
C         -2.34020       -1.01890      -14.69080
C         -1.18970       -1.55670      -14.30640
C         -1.15250       -1.53120      -12.79530
C         -2.64300       -1.73080      -12.49150
C         -0.96170       -0.03810      -12.45450
C         -2.56690        1.99130       -4.41230
S         -3.42570        2.61530       -2.98640
C         -2.16310        2.06050       -1.97740
C         -1.82060        1.96630       -0.62260
C         -2.55020        2.29620        0.54040
C         -2.00990        1.94000        1.81970
N         -2.82490        2.25010        2.81560
S         -4.15290        2.93600        2.19790
N         -3.74320        2.86240        0.63400
C         -0.71420        1.38140        1.88210
C          0.09120        1.05860        2.98420
C          1.34470        0.67820        2.47280
N          1.32390        0.72790        1.10000
C          2.57000        0.71790        0.36760
C          3.18470       -0.67870        0.27860
C          0.06010        1.13930        0.70910
C         -0.54690        1.32360       -0.55980
N         -0.16030        1.00080       -1.84820
C         -1.13310        1.44280       -2.70860
C         -1.36130        1.39110       -4.07750
C          0.83130        0.06370       -2.32600
C          1.91170        0.73830       -3.17050
C          2.26700        0.38490        3.46280
C          1.71170        0.51160        4.73990
S          0.02540        1.02870        4.69650
C          2.47180        0.22440        5.88650
C          2.13460        0.24130        7.21300
C          0.82100        0.60130        7.76630
O         -0.16420        0.97130        7.15490
C          0.92570        0.42520        9.22490
C         -0.08110        0.62770       10.16630
C          0.30200        0.36360       11.45930
C          1.59090       -0.07490       11.79130
C          2.59320       -0.27690       10.87240
C          2.22700       -0.00820        9.54940
C          3.00680       -0.11240        8.31700
C          4.32780       -0.47640        8.24630
C          5.09560       -0.58230        7.06830
N          5.79660       -0.69660        6.16440
C          5.13100       -0.79800        9.36060
N          5.85120       -1.07070       10.21250
C          1.27300       -0.14970       13.26420
C          1.81200        0.99580       14.14660
C          0.96240        0.92150       15.39480
C         -0.25600        1.34180       15.07940
C         -0.25080        1.70670       13.61240
C          1.18650        2.22500       13.47480
C         -0.16280        0.34320       12.89410
H         -4.16130        2.69310       -5.54050
H          0.00430       -0.04080       -9.38100
H         -4.35450        2.00330      -10.94870
H         -2.29110        1.42920      -13.61040
H         -4.16860       -0.45970      -13.55440
H         -2.68190       -0.82410      -15.69030
H         -0.37850       -1.90080      -14.92090
H         -0.44790       -2.20290      -12.31210
H         -2.99870       -2.71180      -12.80200
H         -2.91070       -1.55930      -11.45050
H         -0.03460        0.37410      -12.84890
H          3.27130        1.37440        0.89670
H          2.40550        1.14280       -0.61930
H          4.07350       -0.64660       -0.34560
H          3.46790       -1.03380        1.26500
H          2.48820       -1.39960       -0.14320
H         -0.72020        0.95220       -4.81800
H          0.31420       -0.67490       -2.94940
H          1.25760       -0.46320       -1.47660
H          2.36770        1.57550       -2.64640
H          1.48850        1.11610       -4.09660
H          2.68580        0.01620       -3.41520
H          3.29070        0.09110        3.31570
H          3.48730       -0.07080        5.65090
H         -1.06290        0.95700        9.86410
H          3.57670       -0.61990       11.14620
H          1.38480       -1.13000       13.72340
H          2.88940        0.99390       14.28680
H          1.30850        0.53140       16.33390
H         -1.13070        1.37290       15.70220
H         -1.05240        2.35340       13.26590
H          1.50630        2.37910       12.44590
H          1.35190        3.13580       14.04790
H         -1.00900       -0.30650       13.11010
