108

C          3.05080        3.92200       -3.09730
C          2.62340        5.22640       -3.09580
C          1.63360        5.88790       -2.22080
O          0.90630        5.39880       -1.37720
C          1.69560        7.32480       -2.55020
C          0.96660        8.34560       -1.94560
C          1.23460        9.59670       -2.44610
C          2.16590        9.81630       -3.46950
C          2.89210        8.81750       -4.07300
C          2.62800        7.53500       -3.58330
C          3.18810        6.24160       -3.96800
C          4.05980        6.04820       -5.01230
C          4.55650        7.07620       -5.84060
N          5.00850        7.84940       -6.55950
C          4.58140        4.81370       -5.44970
N          5.05330        3.85720       -5.88050
C          1.92680       11.30540       -3.47610
C          1.05640       11.89050       -4.61540
C          0.13570       10.78270       -5.06350
C         -0.74790       10.57460       -4.09660
C         -0.44010       11.53760       -2.97670
C          0.07790       12.73730       -3.78600
C          0.88740       11.06030       -2.33720
C          2.63440        2.79000       -2.37920
C          1.54890        2.60850       -1.49820
C          1.59940        1.28550       -1.10260
C          2.70620        0.67720       -1.73380
N          3.32180        1.58290       -2.51720
C          4.53010        1.33420       -3.26800
C          5.76410        1.85860       -2.53680
C          2.75860       -0.65170       -1.27660
C          3.70770       -1.67900       -1.47270
C          3.56920       -2.90700       -0.74460
N          4.55910       -3.75300       -0.97860
S          5.58040       -3.07420       -2.03320
N          4.79540       -1.66800       -2.23070
C          2.42060       -3.10050        0.05320
C          1.97060       -4.21960        0.76280
S          2.50210       -5.81440        1.16940
C          0.98250       -6.07160        2.00850
C          0.47310       -7.15680        2.70440
C          1.24790       -8.41490        2.92140
C          1.97610       -8.37670        4.26810
C         -0.81220       -6.88380        3.21320
S         -1.36000       -5.25760        2.79420
C          0.11830       -4.96150        1.96110
C          0.69550       -3.90590        1.25300
N          0.35740       -2.62830        0.89590
C          1.40950       -2.09910        0.17000
C          1.64030       -0.82200       -0.40150
N          0.95080        0.37700       -0.30360
C          0.05820        0.85930        0.72740
C          0.65390        0.68740        2.12260
C         -1.02640       -2.21150        0.96880
C         -1.63410       -2.04440       -0.42090
C         -1.54390       -7.80650        3.96060
C         -2.79100       -7.71840        4.53890
C         -3.68720       -6.56430        4.48770
O         -3.50280       -5.49390        3.93400
C         -4.89270       -6.95050        5.24840
C         -6.03000       -6.21070        5.49480
C         -7.04370       -6.79410        6.24520
Cl        -8.47680       -5.90710        6.57620
C         -6.89930       -8.09760        6.72990
Cl        -8.15940       -8.80760        7.65700
C         -5.74960       -8.83950        6.47720
C         -4.73730       -8.26150        5.73010
C         -3.43310       -8.76870        5.30110
C         -2.94350      -10.01850        5.58770
C         -3.64040      -10.98640        6.34110
N         -4.14920      -11.82120        6.94300
C         -1.69140      -10.52790        5.18660
N         -0.69290      -11.01960        4.89960
H          3.87280        3.72200       -3.76930
H          0.26330        8.13050       -1.15620
H          3.60840        9.00740       -4.85440
H          2.79070       11.92840       -3.25240
H          1.61700       12.39450       -5.39810
H          0.25390       10.24200       -5.98430
H         -1.51580        9.82480       -4.04780
H         -1.24270       11.72150       -2.26710
H         -0.69730       13.20160       -4.39380
H          0.56870       13.49360       -3.17490
H          1.07220       11.52430       -1.37010
H          0.85460        3.37540       -1.22610
H          4.45540        1.78650       -4.26070
H          4.61840        0.25110       -3.37910
H          6.64760        1.67350       -3.14010
H          5.68740        2.92760       -2.35110
H          5.87810        1.34640       -1.58430
H          0.59730       -9.28970        2.88650
H          1.98500       -8.50390        2.12090
H          2.54410       -9.29230        4.40440
H          2.65950       -7.53150        4.30460
H          1.26680       -8.28660        5.08740
H         -0.92120        0.38460        0.64860
H         -0.08250        1.92360        0.52680
H          1.58220        1.24880        2.19990
H          0.86970       -0.35640        2.33760
H         -0.04010        1.06260        2.86990
H         -1.56000       -3.00100        1.50340
H         -1.12440       -1.30180        1.56170
H         -1.09990       -1.29560       -1.00070
H         -1.59060       -2.98750       -0.96090
H         -2.67480       -1.74490       -0.33340
H         -1.02690       -8.74540        4.10350
H         -6.12730       -5.20630        5.11430
H         -5.67710       -9.84090        6.86800
