
  xtb     02022200313D
 energy: -202.840017034572 gnorm: 0.000270440590 xtb: 6.4.1 (unknown)
113127  0     0  0            999 V2000
    0.8209   -5.1728   -5.1152 C   0  0  0  0  0  0  0  0  0  0  0  0
   -0.3260   -4.6814   -5.6669 C   0  0  0  0  0  0  0  0  0  0  0  0
   -1.0461   -3.4832   -5.1662 C   0  0  0  0  0  0  0  0  0  0  0  0
   -0.6260   -2.5960   -4.4522 O   0  0  0  0  0  0  0  0  0  0  0  0
   -2.4308   -3.6321   -5.6510 C   0  0  0  0  0  0  0  0  0  0  0  0
   -3.5079   -2.8001   -5.3517 C   0  0  0  0  0  0  0  0  0  0  0  0
   -4.6929   -3.1918   -5.9256 C   0  0  0  0  0  0  0  0  0  0  0  0
   -4.8039   -4.3299   -6.7364 C   0  0  0  0  0  0  0  0  0  0  0  0
   -3.7485   -5.1547   -7.0468 C   0  0  0  0  0  0  0  0  0  0  0  0
   -2.5319   -4.7729   -6.4728 C   0  0  0  0  0  0  0  0  0  0  0  0
   -1.2160   -5.3960   -6.5601 C   0  0  0  0  0  0  0  0  0  0  0  0
   -0.8476   -6.4178   -7.3941 C   0  0  0  0  0  0  0  0  0  0  0  0
   -1.7263   -7.0890   -8.2680 C   0  0  0  0  0  0  0  0  0  0  0  0
   -2.3983   -7.6732   -8.9927 N   0  0  0  0  0  0  0  0  0  0  0  0
    0.4799   -6.8811   -7.5160 C   0  0  0  0  0  0  0  0  0  0  0  0
    1.5465   -7.2718   -7.6827 N   0  0  0  0  0  0  0  0  0  0  0  0
   -6.2851   -4.1332   -6.9456 C   0  0  0  0  0  0  0  0  0  0  0  0
   -7.2239   -5.0410   -6.1226 C   0  0  0  0  0  0  0  0  0  0  0  0
   -8.5512   -4.3182   -6.1610 C   0  0  0  0  0  0  0  0  0  0  0  0
   -8.4450   -3.2381   -5.3977 C   0  0  0  0  0  0  0  0  0  0  0  0
   -7.0440   -3.2125   -4.8307 C   0  0  0  0  0  0  0  0  0  0  0  0
   -6.7904   -4.7186   -4.6866 C   0  0  0  0  0  0  0  0  0  0  0  0
   -6.1595   -2.8617   -6.0462 C   0  0  0  0  0  0  0  0  0  0  0  0
    1.6454   -4.4624   -4.2042 C   0  0  0  0  0  0  0  0  0  0  0  0
    2.1092   -5.3253   -2.7332 S   0  0  0  0  0  0  0  0  0  0  0  0
    2.6862   -3.8553   -2.0793 C   0  0  0  0  0  0  0  0  0  0  0  0
    3.1450   -3.3595   -0.8506 C   0  0  0  0  0  0  0  0  0  0  0  0
    3.4756   -4.0020    0.3629 C   0  0  0  0  0  0  0  0  0  0  0  0
    3.9387   -3.2072    1.4649 C   0  0  0  0  0  0  0  0  0  0  0  0
    4.2580   -3.9410    2.5189 N   0  0  0  0  0  0  0  0  0  0  0  0
    3.9959   -5.4976    2.1586 S   0  0  0  0  0  0  0  0  0  0  0  0
    3.4622   -5.2951    0.6446 N   0  0  0  0  0  0  0  0  0  0  0  0
    3.9115   -1.7993    1.3457 C   0  0  0  0  0  0  0  0  0  0  0  0
    4.0313   -0.7898    2.3113 C   0  0  0  0  0  0  0  0  0  0  0  0
    4.3221   -0.6320    4.0073 S   0  0  0  0  0  0  0  0  0  0  0  0
    3.9169    1.0679    3.9012 C   0  0  0  0  0  0  0  0  0  0  0  0
    3.7394    2.0615    4.8719 C   0  0  0  0  0  0  0  0  0  0  0  0
    4.1076    1.9003    6.3077 C   0  0  0  0  0  0  0  0  0  0  0  0
    5.5503    1.4237    6.4733 C   0  0  0  0  0  0  0  0  0  0  0  0
    3.2906    3.2456    4.2954 C   0  0  0  0  0  0  0  0  0  0  0  0
    3.1995    3.1449    2.5343 S   0  0  0  0  0  0  0  0  0  0  0  0
    3.6207    1.4763    2.5914 C   0  0  0  0  0  0  0  0  0  0  0  0
    3.6898    0.4160    1.6857 C   0  0  0  0  0  0  0  0  0  0  0  0
    3.3981    0.1916    0.3670 N   0  0  0  0  0  0  0  0  0  0  0  0
    3.5335   -1.1614    0.1285 C   0  0  0  0  0  0  0  0  0  0  0  0
    3.2887   -1.9575   -1.0188 C   0  0  0  0  0  0  0  0  0  0  0  0
    3.0283   -1.6309   -2.3431 N   0  0  0  0  0  0  0  0  0  0  0  0
    2.6277   -2.7869   -2.9858 C   0  0  0  0  0  0  0  0  0  0  0  0
    2.0454   -3.1335   -4.2213 C   0  0  0  0  0  0  0  0  0  0  0  0
    2.0163   -2.3140   -5.4741 C   0  0  0  0  0  0  0  0  0  0  0  0
    3.3692   -2.3879   -6.1906 C   0  0  0  0  0  0  0  0  0  0  0  0
    3.6671   -0.5489   -3.0648 C   0  0  0  0  0  0  0  0  0  0  0  0
    5.1893   -0.6588   -2.9813 C   0  0  0  0  0  0  0  0  0  0  0  0
    2.7176    1.2104   -0.3990 C   0  0  0  0  0  0  0  0  0  0  0  0
    3.6852    2.2713   -0.9215 C   0  0  0  0  0  0  0  0  0  0  0  0
    2.8845    4.4628    4.8767 C   0  0  0  0  0  0  0  0  0  0  0  0
    2.1660    4.5927    6.0370 C   0  0  0  0  0  0  0  0  0  0  0  0
    1.3501    3.5064    6.6229 C   0  0  0  0  0  0  0  0  0  0  0  0
    1.3470    2.3292    6.3290 O   0  0  0  0  0  0  0  0  0  0  0  0
    0.4323    4.1757    7.5685 C   0  0  0  0  0  0  0  0  0  0  0  0
   -0.5655    3.6212    8.3155 C   0  0  0  0  0  0  0  0  0  0  0  0
   -1.3515    4.4581    9.1393 C   0  0  0  0  0  0  0  0  0  0  0  0
   -2.3977    3.9383    9.9255 C   0  0  0  0  0  0  0  0  0  0  0  0
   -3.1520    4.7707   10.7041 C   0  0  0  0  0  0  0  0  0  0  0  0
   -4.1503    4.2747   11.4488 F   0  0  0  0  0  0  0  0  0  0  0  0
   -2.8919    6.1551   10.7321 C   0  0  0  0  0  0  0  0  0  0  0  0
   -3.6485    6.9475   11.5038 F   0  0  0  0  0  0  0  0  0  0  0  0
   -1.8817    6.6886    9.9818 C   0  0  0  0  0  0  0  0  0  0  0  0
   -1.0863    5.8578    9.1676 C   0  0  0  0  0  0  0  0  0  0  0  0
   -0.0430    6.4022    8.3831 C   0  0  0  0  0  0  0  0  0  0  0  0
    0.7072    5.5712    7.5943 C   0  0  0  0  0  0  0  0  0  0  0  0
    1.8135    5.8381    6.6808 C   0  0  0  0  0  0  0  0  0  0  0  0
    2.4561    7.0385    6.5176 C   0  0  0  0  0  0  0  0  0  0  0  0
    2.0868    8.2256    7.1808 C   0  0  0  0  0  0  0  0  0  0  0  0
    1.8204    9.2201    7.6891 N   0  0  0  0  0  0  0  0  0  0  0  0
    3.5869    7.2219    5.6948 C   0  0  0  0  0  0  0  0  0  0  0  0
    4.5221    7.4262    5.0605 N   0  0  0  0  0  0  0  0  0  0  0  0
    1.0562   -6.2223   -5.2509 H   0  0  0  0  0  0  0  0  0  0  0  0
   -3.3802   -1.9343   -4.7210 H   0  0  0  0  0  0  0  0  0  0  0  0
   -3.8451   -6.0282   -7.6702 H   0  0  0  0  0  0  0  0  0  0  0  0
   -6.6073   -4.0125   -7.9780 H   0  0  0  0  0  0  0  0  0  0  0  0
   -7.2263   -6.0850   -6.4234 H   0  0  0  0  0  0  0  0  0  0  0  0
   -9.3853   -4.6273   -6.7630 H   0  0  0  0  0  0  0  0  0  0  0  0
   -9.1724   -2.4646   -5.2347 H   0  0  0  0  0  0  0  0  0  0  0  0
   -6.8817   -2.5906   -3.9544 H   0  0  0  0  0  0  0  0  0  0  0  0
   -5.7560   -4.9757   -4.4660 H   0  0  0  0  0  0  0  0  0  0  0  0
   -7.4447   -5.1768   -3.9469 H   0  0  0  0  0  0  0  0  0  0  0  0
   -6.3958   -1.8918   -6.4796 H   0  0  0  0  0  0  0  0  0  0  0  0
    3.9782    2.8522    6.8244 H   0  0  0  0  0  0  0  0  0  0  0  0
    3.4248    1.1767    6.7605 H   0  0  0  0  0  0  0  0  0  0  0  0
    6.2369    2.1212    5.9980 H   0  0  0  0  0  0  0  0  0  0  0  0
    5.6914    0.4406    6.0333 H   0  0  0  0  0  0  0  0  0  0  0  0
    5.7958    1.3649    7.5304 H   0  0  0  0  0  0  0  0  0  0  0  0
    1.7450   -1.2829   -5.2438 H   0  0  0  0  0  0  0  0  0  0  0  0
    1.2588   -2.7067   -6.1488 H   0  0  0  0  0  0  0  0  0  0  0  0
    4.1889   -2.0800   -5.5460 H   0  0  0  0  0  0  0  0  0  0  0  0
    3.3600   -1.7473   -7.0692 H   0  0  0  0  0  0  0  0  0  0  0  0
    3.5588   -3.4095   -6.5120 H   0  0  0  0  0  0  0  0  0  0  0  0
    3.3464    0.4190   -2.6887 H   0  0  0  0  0  0  0  0  0  0  0  0
    3.3496   -0.6194   -4.1022 H   0  0  0  0  0  0  0  0  0  0  0  0
    5.5228   -1.6225   -3.3610 H   0  0  0  0  0  0  0  0  0  0  0  0
    5.6513    0.1269   -3.5736 H   0  0  0  0  0  0  0  0  0  0  0  0
    5.5261   -0.5659   -1.9509 H   0  0  0  0  0  0  0  0  0  0  0  0
    2.1511    0.7318   -1.1982 H   0  0  0  0  0  0  0  0  0  0  0  0
    1.9954    1.6964    0.2667 H   0  0  0  0  0  0  0  0  0  0  0  0
    4.5003    1.8254   -1.4855 H   0  0  0  0  0  0  0  0  0  0  0  0
    3.1547    2.9729   -1.5592 H   0  0  0  0  0  0  0  0  0  0  0  0
    4.1130    2.8235   -0.0888 H   0  0  0  0  0  0  0  0  0  0  0  0
    3.0714    5.3523    4.2854 H   0  0  0  0  0  0  0  0  0  0  0  0
   -0.7552    2.5593    8.2760 H   0  0  0  0  0  0  0  0  0  0  0  0
   -2.6098    2.8806    9.9139 H   0  0  0  0  0  0  0  0  0  0  0  0
   -1.6957    7.7507   10.0156 H   0  0  0  0  0  0  0  0  0  0  0  0
    0.1291    7.4660    8.4177 H   0  0  0  0  0  0  0  0  0  0  0  0
  1  2  2  0  0  0  0
  2  3  1  0  0  0  0
  3  4  2  0  0  0  0
  3  5  1  0  0  0  0
  5  6  2  0  0  0  0
  6  7  1  0  0  0  0
  7  8  2  0  0  0  0
  8  9  1  0  0  0  0
  9 10  2  0  0  0  0
 10 11  1  0  0  0  0
 11 12  2  0  0  0  0
 12 13  1  0  0  0  0
 13 14  3  0  0  0  0
 12 15  1  0  0  0  0
 15 16  3  0  0  0  0
  8 17  1  0  0  0  0
 17 18  1  0  0  0  0
 18 19  1  0  0  0  0
 19 20  2  0  0  0  0
 20 21  1  0  0  0  0
 21 22  1  0  0  0  0
 21 23  1  0  0  0  0
  1 24  1  0  0  0  0
 24 25  1  0  0  0  0
 25 26  1  0  0  0  0
 26 27  1  0  0  0  0
 27 28  1  0  0  0  0
 28 29  1  0  0  0  0
 29 30  2  0  0  0  0
 30 31  1  0  0  0  0
 31 32  1  0  0  0  0
 29 33  1  0  0  0  0
 33 34  1  0  0  0  0
 34 35  1  0  0  0  0
 35 36  1  0  0  0  0
 36 37  1  0  0  0  0
 37 38  1  0  0  0  0
 38 39  1  0  0  0  0
 37 40  2  0  0  0  0
 40 41  1  0  0  0  0
 41 42  1  0  0  0  0
 42 43  1  0  0  0  0
 43 44  1  0  0  0  0
 44 45  1  0  0  0  0
 45 46  1  0  0  0  0
 46 47  1  0  0  0  0
 47 48  1  0  0  0  0
 48 49  1  0  0  0  0
 49 50  1  0  0  0  0
 50 51  1  0  0  0  0
 47 52  1  0  0  0  0
 52 53  1  0  0  0  0
 44 54  1  0  0  0  0
 54 55  1  0  0  0  0
 40 56  1  0  0  0  0
 56 57  2  0  0  0  0
 57 58  1  0  0  0  0
 58 59  2  0  0  0  0
 58 60  1  0  0  0  0
 60 61  2  0  0  0  0
 61 62  1  0  0  0  0
 62 63  2  0  0  0  0
 63 64  1  0  0  0  0
 64 65  1  0  0  0  0
 64 66  2  0  0  0  0
 66 67  1  0  0  0  0
 66 68  1  0  0  0  0
 68 69  2  0  0  0  0
 69 70  1  0  0  0  0
 70 71  2  0  0  0  0
 71 72  1  0  0  0  0
 72 73  2  0  0  0  0
 73 74  1  0  0  0  0
 74 75  3  0  0  0  0
 73 76  1  0  0  0  0
 76 77  3  0  0  0  0
 11  2  1  0  0  0  0
 23 17  1  0  0  0  0
 49 24  2  0  0  0  0
 72 57  1  0  0  0  0
 10  5  1  0  0  0  0
 22 18  1  0  0  0  0
 48 26  2  0  0  0  0
 71 60  1  0  0  0  0
 23  7  1  0  0  0  0
 46 27  2  0  0  0  0
 69 62  1  0  0  0  0
 32 28  2  0  0  0  0
 45 33  2  0  0  0  0
 43 34  2  0  0  0  0
 42 36  2  0  0  0  0
  1 78  1  0  0  0  0
  6 79  1  0  0  0  0
  9 80  1  0  0  0  0
 17 81  1  0  0  0  0
 18 82  1  0  0  0  0
 19 83  1  0  0  0  0
 20 84  1  0  0  0  0
 21 85  1  0  0  0  0
 22 86  1  0  0  0  0
 22 87  1  0  0  0  0
 23 88  1  0  0  0  0
 38 89  1  0  0  0  0
 38 90  1  0  0  0  0
 39 91  1  0  0  0  0
 39 92  1  0  0  0  0
 39 93  1  0  0  0  0
 50 94  1  0  0  0  0
 50 95  1  0  0  0  0
 51 96  1  0  0  0  0
 51 97  1  0  0  0  0
 51 98  1  0  0  0  0
 52 99  1  0  0  0  0
 52100  1  0  0  0  0
 53101  1  0  0  0  0
 53102  1  0  0  0  0
 53103  1  0  0  0  0
 54104  1  0  0  0  0
 54105  1  0  0  0  0
 55106  1  0  0  0  0
 55107  1  0  0  0  0
 55108  1  0  0  0  0
 56109  1  0  0  0  0
 61110  1  0  0  0  0
 63111  1  0  0  0  0
 68112  1  0  0  0  0
 70113  1  0  0  0  0
M  END
