126

C         -2.34850        6.42810        0.82250
C         -3.16460        6.43980        1.92710
C         -3.62450        5.26720        2.67320
O         -3.40080        4.09220        2.42750
C         -4.42830        5.77570        3.79600
C         -5.06220        5.02190        4.78110
C         -5.73840        5.77450        5.71070
C         -5.78370        7.17380        5.66110
C         -5.16770        7.92830        4.69060
C         -4.46980        7.18290        3.73540
C         -3.69650        7.62260        2.57310
C         -3.51960        8.92900        2.19260
C         -2.78120        9.38450        1.08030
N         -2.20560        9.86160        0.20720
C         -4.06120       10.03890        2.87460
N         -4.46180       10.99290        3.37290
C         -6.62530        7.27050        6.90960
C         -5.89280        7.68220        8.20420
C         -6.82370        7.23010        9.30610
C         -6.78010        5.90470        9.35290
C         -5.81920        5.43870        8.28300
C         -4.81350        6.59690        8.30930
C         -6.57450        5.70980        6.96450
C         -1.76590        5.35890        0.13310
C         -0.90420        5.54740       -0.96610
C         -0.40450        6.84230       -1.41770
C          0.14130        7.75890       -0.52000
C          0.59900        8.98210       -0.96400
C          0.52580        9.32640       -2.30830
C          1.04470       10.65040       -2.78450
C          2.54420       10.56340       -3.07770
C          0.00980        8.39820       -3.20470
C         -0.44510        7.16950       -2.77140
C         -0.55860        4.33470       -1.55810
S          0.49250        3.92250       -2.89950
C          0.20090        2.24760       -2.57510
C          0.59690        0.98760       -3.05220
C          1.37280        0.58240       -4.16170
C          1.55460       -0.82220       -4.40860
N          2.25320       -1.05440       -5.50820
S          2.65310        0.36570       -6.17400
N          1.95090        1.33470       -5.08410
C          1.07650       -1.75560       -3.45990
C          1.29730       -3.13380       -3.31140
S          2.07840       -4.43160       -4.14610
C          1.70240       -5.48870       -2.80540
C          1.96740       -6.84570       -2.56440
C          2.58600       -7.74380       -3.53210
C          3.72800       -7.35440       -4.22720
C          4.34500       -8.23210       -5.09720
C          3.83970       -9.50860       -5.30430
C          4.55320      -10.48540       -6.19260
C          5.58310      -11.27990       -5.38640
C          2.67880       -9.88000       -4.63320
C          2.05550       -9.01180       -3.76180
C          1.47330       -7.24470       -1.32400
S          0.60350       -5.94510       -0.50740
C          0.98610       -4.85110       -1.78360
C          0.75640       -3.50260       -2.07360
N          0.17560       -2.41870       -1.46670
C          0.35100       -1.33480       -2.31180
C         -0.01630        0.02730       -2.20030
N         -0.82600        0.67990       -1.29200
C         -0.67260        2.02750       -1.50140
C         -1.11220        3.21690       -0.91440
S         -2.08540        3.65310        0.44150
C         -2.02050        0.15470       -0.66630
C         -3.28560        0.70990       -1.31880
C         -0.03640       -2.43010       -0.03160
C          0.92010       -1.48980        0.69390
C          1.56830       -8.47960       -0.64720
C          2.55010       -9.42090       -0.74940
C          3.88670       -9.30790       -1.34770
O          4.45190       -8.31050       -1.74320
C          4.47530      -10.67040       -1.25730
C          5.68200      -11.12820       -1.74520
C          6.00610      -12.46600       -1.54670
Cl         7.48920      -13.07520       -2.16620
C          5.13840      -13.31690       -0.85450
Cl         5.56730      -14.96480       -0.61800
C          3.92960      -12.84600       -0.35170
C          3.60740      -11.52010       -0.56310
C          2.39200      -10.76360       -0.15960
O          1.45590      -11.17470        0.48910
H         -2.10100        7.39230        0.39560
H         -5.00380        3.94470        4.77790
H         -5.21850        9.00370        4.66680
H         -7.59190        7.75700        6.79420
H         -5.56680        8.71830        8.23280
H         -7.43980        7.89560        9.88170
H         -7.35240        5.24190        9.97510
H         -5.42570        4.43070        8.38390
H         -4.26910        6.64780        9.25080
H         -4.10780        6.59110        7.48060
H         -7.50780        5.15520        6.88660
H          0.22820        7.49760        0.52520
H          1.01080        9.68510       -0.25530
H          0.86910       11.40890       -2.01970
H          0.51740       10.95000       -3.69200
H          2.91970       11.52300       -3.42500
H          3.09030       10.28090       -2.18040
H          2.73760        9.81610       -3.84420
H         -0.04500        8.64500       -4.25530
H         -0.86110        6.46530       -3.47670
H          4.15160       -6.37800       -4.05280
H          5.23930       -7.92250       -5.61830
H          3.83420      -11.17630       -6.63710
H          5.06090       -9.95260       -6.99880
H          5.09690      -11.81570       -4.57350
H          6.32480      -10.60910       -4.95940
H          6.09200      -11.99970       -6.02290
H          2.25870      -10.86210       -4.79820
H          1.14820       -9.31230       -3.25750
H         -2.02150       -0.92490       -0.79560
H         -2.01160        0.40600        0.39890
H         -3.26940        0.52450       -2.39090
H         -4.15520        0.21760       -0.89220
H         -3.38020        1.77760       -1.14730
H         -1.07040       -2.18930        0.22280
H          0.14450       -3.45670        0.29570
H          1.95020       -1.74610        0.45700
H          0.74660       -0.45590        0.40920
H          0.77640       -1.58320        1.76660
H          0.76870       -8.70430        0.05410
H          6.35150      -10.46780       -2.27270
H          3.26360      -13.50140        0.18710
