110

C         -3.30950        0.60970       -5.91320
C         -4.46480       -0.08610       -5.66220
C         -4.77930       -0.83670       -4.44370
O         -4.06180       -1.01110       -3.47160
C         -6.14550       -1.35410       -4.61330
C         -6.87420       -2.10900       -3.69760
C         -8.13280       -2.44950       -4.13070
C         -8.63000       -2.06520       -5.38310
C         -7.92160       -1.31770       -6.29420
C         -6.63670       -0.96190       -5.87500
C         -5.60410       -0.18070       -6.55530
C         -5.71610        0.35200       -7.81450
C         -6.85270        0.22060       -8.64000
N         -7.73780        0.15650       -9.36860
C         -4.72880        1.10260       -8.48600
N         -3.98420        1.72180       -9.10510
C         -9.95060       -2.75810       -5.16000
C        -10.18080       -4.11620       -5.86780
C         -8.81770       -4.72710       -6.07920
C         -8.34830       -5.09050       -4.89320
C         -9.38540       -4.73120       -3.85790
C        -10.66960       -4.95130       -4.67340
C         -9.39700       -3.18530       -3.76400
C         -2.16440        0.79800       -5.12930
C         -1.08670        1.60580       -5.52900
C         -1.00500        2.39070       -6.79730
C         -1.71850        3.73760       -6.64950
C         -0.09840        1.65110       -4.55280
S          1.42930        2.51030       -4.45300
C          1.67270        1.83120       -2.88130
C          2.58610        1.90570       -1.82130
C          3.72500        2.72970       -1.64980
C          4.38130        2.73190       -0.36980
N          5.39140        3.57240       -0.26290
Se         5.58380        4.42130       -1.79680
N          4.23190        3.56430       -2.53550
C          3.93210        1.82400        0.61970
C          4.43180        1.55680        1.90090
S          5.63410        2.15250        2.98750
C          5.14590        0.94630        4.15910
C          5.56010        0.67250        5.46690
C          6.72190        1.35900        6.11440
C          6.55860        2.87810        6.17790
C          4.86110       -0.41000        5.99770
S          3.72280       -1.10010        4.84070
C          4.12160        0.10960        3.68700
C          3.70030        0.47580        2.40790
N          2.75140        0.08650        1.50170
C          2.85550        0.91650        0.39990
C          2.09880        1.04390       -0.79460
N          0.90480        0.49290       -1.21910
C          0.64140        0.97730       -2.47030
C         -0.38230        0.87580       -3.41720
S         -1.90770        0.08390       -3.53730
C         -0.14970       -0.15010       -0.46680
C         -0.66260        0.74770        0.65590
C          2.12210       -1.20900        1.63760
C          2.60150       -2.17860        0.56070
C          4.96530       -1.07990        7.23390
C          5.27770       -0.60010        8.47580
C          5.74370       -1.54290        9.52180
O          5.74880       -2.74780        9.46300
C          6.23450       -0.67420       10.62420
C          5.96870        0.67260       10.31570
C          6.35330        1.68750       11.17340
C          7.00530        1.33480       12.34670
F          7.39690        2.29570       13.18630
C          7.26770        0.00660       12.67500
F          7.89270       -0.29170       13.81680
C          6.87690       -1.01220       11.80190
F          7.13350       -2.27650       12.11970
C          5.25520        0.72620        9.03760
C          4.48660        1.77890        8.61080
C          4.42040        3.02530        9.26580
N          4.34520        4.06450        9.74700
C          3.60430        1.70920        7.51390
N          2.84080        1.70300        6.65680
H         -3.26160        1.12110       -6.86470
H         -6.45180       -2.38020       -2.74260
H         -8.32350       -1.02860       -7.25060
H        -10.83310       -2.12190       -5.18610
H        -10.82480       -4.06590       -6.74150
H         -8.32630       -4.77840       -7.03310
H         -7.38600       -5.50620       -4.65790
H         -9.30620       -5.24120       -2.90130
H        -11.56120       -4.54640       -4.19660
H        -10.83180       -5.99720       -4.92910
H         -9.91760       -2.82700       -2.87790
H         -1.44180        1.83890       -7.63080
H          0.04880        2.56950       -7.01970
H         -1.27210        4.31550       -5.84360
H         -1.63340        4.30210       -7.57350
H         -2.77390        3.59230       -6.43050
H          6.88340        0.95340        7.11350
H          7.61210        1.13490        5.51800
H          5.62520        3.15870        6.65860
H          6.56180        3.30410        5.17850
H          7.38140        3.31270        6.73990
H          0.18320       -1.11790       -0.09130
H         -0.96190       -0.34170       -1.17200
H          0.13330        1.01850        1.34580
H         -1.07440        1.66320        0.23780
H         -1.44800        0.23740        1.20640
H          2.40990       -1.59110        2.62020
H          1.03620       -1.11310        1.63820
H          2.11230       -3.14060        0.68580
H          3.67620       -2.32410        0.64270
H          2.38600       -1.80150       -0.43620
H          4.80300       -2.15420        7.19770
H          6.17620        2.73000       10.96620
