95

C          0.26840       -2.97520        3.98000
C         -0.03900       -2.71500        5.28680
C         -1.18640       -1.92890        5.76590
O         -2.15690       -1.56890        5.12650
C         -0.92330       -1.64720        7.18720
C         -1.67980       -0.83960        8.03350
C         -1.15420       -0.70920        9.29640
C          0.03220       -1.34190        9.69200
C          0.77860       -2.15470        8.87210
C          0.26550       -2.29570        7.57880
C          0.79290       -3.03350        6.43280
C          1.86050       -3.89280        6.46150
C          2.33780       -4.63760        5.36280
N          2.78400       -5.27990        4.52110
C          2.62240       -4.18020        7.61340
N          3.28710       -4.45940        8.50700
C         -0.01300       -0.73860       11.07390
C          0.93550        0.45170       11.33250
C          0.34690        1.12580       12.55080
C         -0.77810        1.72260       12.17790
C         -0.96850        1.46190       10.70110
C          0.49660        1.44250       10.24630
C         -1.33710       -0.03580       10.63350
C         -0.39460       -2.60260        2.79650
S         -1.97530       -1.82810        2.68260
C         -1.79110       -1.72070        0.98340
C         -2.45230       -1.19240       -0.13930
C         -3.73800       -0.63270       -0.31570
C         -4.12340       -0.16440       -1.61940
N         -5.36600        0.28930       -1.64570
S         -5.99860        0.14170       -0.16300
N         -4.70990       -0.50000        0.57230
C         -3.15330       -0.13260       -2.64790
C         -3.12350        0.53710       -3.87820
C         -1.80480        0.45800       -4.36330
N         -1.04500       -0.29160       -3.50380
C          0.38930       -0.35810       -3.66570
C          0.78710       -1.26580       -4.82930
C         -1.84770       -0.66820       -2.44710
C         -1.56360       -1.34380       -1.23860
N         -0.43840       -2.04120       -0.82650
C         -0.56580       -2.24510        0.53010
C          0.21020       -2.77180        1.54810
C          0.33610       -2.96110       -1.63410
C         -0.11980       -4.40550       -1.42710
C         -1.58160        1.20850       -5.51030
C         -2.74540        1.83260       -5.94480
S         -4.11890        1.49950       -4.88000
C         -2.94860        2.75040       -6.98990
C         -2.10960        3.19160       -7.97530
C         -2.40230        4.51400       -8.59410
O         -3.43710        5.13550       -8.52400
C         -1.14160        4.92000       -9.25000
C         -0.82280        6.12590       -9.84200
C          0.45380        6.31660      -10.36050
C          0.87190        7.59870      -11.00230
C          1.35740        5.25730      -10.25820
F          2.60000        5.43830      -10.74380
C          1.05980        4.03300       -9.68100
C         -0.21470        3.86670       -9.16600
C         -0.85260        2.72700       -8.50710
C         -0.42390        1.42670       -8.60140
C          0.79960        1.04030       -9.18370
N          1.79900        0.66740       -9.60840
C         -1.18020        0.31870       -8.17340
N         -1.75300       -0.62030       -7.84370
H          1.20390       -3.49020        3.79450
H         -2.58620       -0.36910        7.68590
H          1.68930       -2.63300        9.19160
H         -0.04610       -1.44420       11.90150
H          1.98960        0.19190       11.37790
H          0.76680        1.05530       13.53690
H         -1.48580        2.25010       12.79010
H         -1.64920        2.12280       10.17110
H          0.64160        1.08130        9.22970
H          0.97490        2.41410       10.35850
H         -2.25570       -0.27320       11.16640
H          0.84410       -0.68030       -2.72910
H          0.74470        0.65830       -3.87260
H          0.46080       -2.29070       -4.67020
H          1.86680       -1.26010       -4.94920
H          0.33070       -0.91970       -5.75300
H          1.17980       -3.22290        1.43500
H          1.39380       -2.86130       -1.36970
H          0.19930       -2.70770       -2.68140
H          0.02160       -4.71780       -0.39630
H          0.45540       -5.06420       -2.07220
H         -1.17380       -4.50550       -1.67740
H         -0.62350        1.35940       -5.97080
H         -3.89250        3.28700       -6.94890
H         -1.56180        6.91070       -9.89410
H          1.16840        7.42290      -12.03580
H          1.73610        8.01350      -10.48430
H          0.06290        8.32270      -10.98230
H          1.81800        3.26820       -9.63840
