128

C          3.08550       -1.17080        7.35310
C          3.62090       -2.42070        7.23870
C          3.68040       -3.24310        6.00600
O          3.08930       -3.09220        4.95550
C          4.69830       -4.27830        6.26520
C          5.14030       -5.24480        5.36390
C          6.12010       -6.06690        5.86410
C          6.63090       -5.93340        7.16230
C          6.19640       -4.99100        8.06400
C          5.19250       -4.14710        7.57690
C          4.49160       -3.04150        8.22240
C          4.58600       -2.69830        9.54600
C          5.43670       -3.33170       10.47470
N          6.11070       -3.79880       11.27880
C          3.82240       -1.69260       10.17560
N          3.22580       -0.91020       10.76840
C          7.60800       -7.06880        6.97910
C          9.07850       -6.67910        6.71730
C          9.68130       -7.92740        6.11380
C          9.19120       -8.06060        4.88800
C          8.24920       -6.90440        4.64220
C          8.95320       -5.81220        5.45760
C          7.03140       -7.22280        5.53520
C          2.23870       -0.49470        6.41920
C          2.38400        0.90740        6.29140
C          1.73050        1.61630        5.31890
C          0.87210        0.93970        4.44430
C          0.10330        1.26800        3.30970
C         -0.53360        0.10110        2.87290
N         -0.24810       -0.93770        3.70580
C          0.64140       -0.46470        4.64270
C          1.30930       -1.16860        5.62190
C         -0.62790       -2.31240        3.50330
C          0.46660       -3.09840        2.78490
C         -1.17470        0.40680        1.66490
C         -1.84430       -0.41180        0.73480
C         -2.20620        0.11930       -0.52780
N         -2.76280       -0.86500       -1.23940
N         -2.72230       -1.90280       -0.43590
C         -3.27320       -3.17200       -0.81070
C         -4.74420       -3.26280       -0.41380
N         -2.19440       -1.70080        0.74840
C         -1.98210        1.48280       -0.79790
C         -1.42230        2.35780        0.18670
C         -0.92400        1.79140        1.39720
N         -0.13870        2.28950        2.42610
C          0.54470        3.54230        2.62320
C         -0.13830        4.39460        3.69420
N         -1.44920        3.64900       -0.32240
C         -1.23740        4.93870        0.28630
C          0.04250        5.60590       -0.22330
C         -1.95320        3.59110       -1.59930
C         -2.27120        2.26730       -1.92110
N         -2.75780        2.18590       -3.19140
C         -3.06420        0.97310       -3.90730
C         -1.90000        0.53100       -4.79210
C         -2.72360        3.45640       -3.71150
C         -2.25830        4.38970       -2.72050
C         -2.21540        5.74960       -3.04830
C         -2.54310        6.14470       -4.31900
C         -2.91210        5.21760       -5.32200
C         -3.03910        3.86560       -4.98860
C         -3.08100        5.69980       -6.65640
C         -3.10230        5.00730       -7.82040
S         -2.95660        3.27110       -8.05450
C         -2.89580        3.46630       -9.78890
C         -2.70300        2.39590      -10.62470
C         -2.57750        1.10560      -10.07470
N         -2.48540        0.05740       -9.61660
C         -2.58200        2.47750      -12.02250
N         -2.45710        2.46810      -13.16420
N         -3.03910        4.76700      -10.14840
C         -3.07210        5.19350      -11.51020
C         -1.95670        5.80600      -12.05770
C         -1.99480        6.22070      -13.37640
C         -3.13750        6.02710      -14.13330
C         -4.25280        5.42850      -13.57260
C         -4.22760        5.01160      -12.25480
C         -3.15940        5.68960       -9.11220
O         -3.27750        6.87930       -9.29220
H          3.40790       -0.57020        8.19640
H          4.72260       -5.30800        4.37120
H          6.59790       -4.90070        9.05950
H          7.50600       -7.90050        7.67350
H          9.59490       -6.25020        7.57160
H         10.33710       -8.59330        6.64340
H          9.35520       -8.85990        4.18910
H          8.00860       -6.68030        3.60630
H          9.92400       -5.54900        5.04080
H          8.36010       -4.91010        5.59620
H          6.53930       -8.15630        5.26860
H          3.07050        1.41470        6.95330
H          1.89140        2.68010        5.22630
H          1.11710       -2.21530        5.78110
H         -1.53620       -2.31260        2.89620
H         -0.84180       -2.76360        4.47660
H          0.15230       -4.13030        2.65480
H          1.39150       -3.07990        3.35520
H          0.64800       -2.66410        1.80480
H         -3.16300       -3.27200       -1.89240
H         -2.69310       -3.94490       -0.30240
H         -5.14670       -4.22950       -0.70260
H         -4.84980       -3.14530        0.66200
H         -5.31540       -2.48210       -0.91020
H          0.62990        4.07380        1.68160
H          1.56080        3.30410        2.95720
H         -1.17500        4.60220        3.43690
H          0.38890        5.33780        3.81230
H         -0.13410        3.86880        4.64550
H         -1.23880        4.84120        1.36860
H         -2.09210        5.56970        0.01520
H         -0.03830        5.80530       -1.28810
H          0.20490        6.54550        0.29850
H          0.91250        4.96880       -0.07920
H         -3.27440        0.20130       -3.16280
H         -3.95720        1.14040       -4.51650
H         -2.17090       -0.36760       -5.33830
H         -1.02690        0.31860       -4.18000
H         -1.64280        1.30640       -5.51000
H         -1.92710        6.48720       -2.31460
H         -2.49110        7.19040       -4.58270
H         -3.39290        3.15130       -5.71370
H         -3.12910        6.77580       -6.78400
H         -1.07220        5.95000      -11.45540
H         -1.12710        6.69140      -13.81270
H         -3.15950        6.34490      -15.16440
H         -5.14500        5.28200      -14.16140
H         -5.09080        4.54210      -11.80610
