108

C         -0.20550        0.41690       -5.22890
C         -0.37310        1.57320       -5.94250
C         -1.10470        2.76950       -5.46230
O         -1.53310        2.98050       -4.34590
C         -1.31160        3.61270       -6.65670
C         -1.97520        4.83590       -6.70860
C         -2.01650        5.39820       -7.96210
C         -1.45320        4.78170       -9.08730
C         -0.80220        3.57170       -9.05200
C         -0.73740        2.98990       -7.78310
C         -0.12200        1.73690       -7.35720
C          0.64510        0.90840       -8.13740
C          0.89270        1.10530       -9.51060
N          1.12770        1.19950      -10.63090
C          1.32500       -0.23150       -7.66140
N          1.92760       -1.15550       -7.34000
C         -1.86110        5.90500      -10.00680
C         -0.76640        6.90960      -10.44380
C          0.27620        6.90850       -9.35350
C         -0.25230        7.49460       -8.28750
C         -1.66190        7.90250       -8.63780
C         -1.48590        8.23080      -10.12900
C         -2.48430        6.59480       -8.75240
C         -0.30070        0.22420       -3.83280
C         -0.78290       -0.96200       -3.24200
C         -0.76410       -0.74030       -1.87560
C         -0.24650        0.55520       -1.66100
N          0.02850        1.13600       -2.84770
C          0.87780        2.29500       -2.97970
C          2.27980        1.99850       -2.45320
C         -0.24420        0.77620       -0.27180
C          0.03130        1.92450        0.50320
C         -0.16520        1.87230        1.92430
N          0.07700        3.03150        2.51500
S          0.51790        4.10200        1.38490
N          0.41940        3.12460        0.09620
C         -0.50390        0.63800        2.51930
C         -0.55720        0.24650        3.86310
S         -0.35830        0.94230        5.43040
C         -0.49520       -0.65320        6.13680
C         -0.36370       -1.12010        7.45050
C         -0.27210       -0.23740        8.64880
C         -1.34610        0.84910        8.65490
C         -0.45490       -2.50890        7.49600
S         -0.80690       -3.21020        5.91450
C         -0.71120       -1.65640        5.17800
C         -0.75880       -1.13960        3.88070
N         -0.86880       -1.60760        2.59770
C         -0.72450       -0.53400        1.73860
C         -0.72410       -0.42750        0.32530
N         -1.06030       -1.33470       -0.67110
C         -2.03490       -2.40320       -0.62550
C         -1.47320       -3.72550       -1.14270
C         -0.77170       -3.02400        2.32810
C         -2.05770       -3.77430        2.67000
C         -0.34640       -3.40990        8.57250
C          0.49250       -3.28960        9.65020
C          1.72280       -2.46610        9.66140
O          2.10570       -1.68370        8.81650
C          2.46340       -2.88900       10.86780
C          3.68940       -2.44770       11.32710
C          4.20080       -3.00220       12.48970
C          3.48400       -3.98720       13.15960
Cl         4.14190       -4.67090       14.59780
C          2.25000       -4.44370       12.70590
C          1.73900       -3.88290       11.54810
C          0.49290       -4.13210       10.82470
C         -0.52750       -4.94960       11.23630
C         -1.76180       -5.08010       10.56560
N         -2.79490       -5.21310       10.08200
C         -0.48850       -5.74100       12.40250
N         -0.51510       -6.41450       13.33180
H         -0.04760       -0.49860       -5.78720
H         -2.40090        5.27290       -5.81890
H         -0.38040        3.10500       -9.92660
H         -2.52700        5.63540      -10.82410
H         -0.40100        6.76630      -11.45710
H          1.24050        6.44450       -9.44810
H          0.18230        7.61830       -7.31280
H         -2.11190        8.66490       -8.00710
H         -0.85640        9.10350      -10.29670
H         -2.42850        8.34920      -10.66170
H         -3.55710        6.77850       -8.75160
H         -1.13460       -1.81400       -3.78900
H          0.93570        2.57520       -4.02970
H          0.43170        3.11330       -2.41040
H          2.91460        2.86760       -2.59920
H          2.24580        1.77190       -1.39170
H          2.71550        1.15320       -2.98270
H          0.72020        0.22200        8.66480
H         -0.36960       -0.84520        9.54990
H         -1.28010        1.41910        9.57810
H         -1.22030        1.53370        7.82120
H         -2.33690        0.40360        8.59480
H         -2.40710       -2.50090        0.39120
H         -2.88120       -2.11340       -1.26150
H         -1.18460       -3.62980       -2.18500
H         -2.23160       -4.49940       -1.06170
H         -0.59630       -4.03950       -0.58170
H         -0.49310       -3.15860        1.28560
H          0.03890       -3.42690        2.94670
H         -2.23490       -3.75130        3.74170
H         -2.92320       -3.33710        2.17780
H         -1.96690       -4.81130        2.36010
H         -0.93600       -4.31520        8.48150
H          4.22770       -1.68500       10.78610
H          5.15240       -2.67830       12.88050
H          1.72870       -5.21400       13.24990
