104

C         -2.41750        2.30820       -5.51850
C         -3.25550        3.16590       -4.85190
C         -3.45660        3.23080       -3.40190
O         -2.87870        2.58550       -2.54200
C         -4.51380        4.22860       -3.17270
C         -5.06320        4.60260       -1.94890
C         -6.05200        5.55170       -2.04690
C         -6.45870        6.09530       -3.27250
C         -5.92120        5.73800       -4.48650
C         -4.91880        4.76720       -4.41090
C         -4.13640        4.13580       -5.47290
C         -4.22590        4.43980       -6.80790
C         -3.46110        3.85950       -7.84090
N         -2.88060        3.44380       -8.74170
C         -5.10120        5.40280       -7.35250
N         -5.78180        6.16740       -7.87290
C         -7.49790        6.97750       -2.62760
C         -8.97910        6.53710       -2.72980
C         -8.97010        5.03600       -2.87960
C         -8.58730        4.51600       -1.72100
C         -8.33120        5.65620       -0.76660
C         -9.38920        6.65920       -1.25350
C         -7.04780        6.36840       -1.26230
C         -1.52780        1.33810       -5.04160
C         -0.76060        0.52290       -5.89020
C         -0.73760        0.58620       -7.38250
C          0.22010        1.67930       -7.86480
C          0.04700       -0.34420       -5.16550
C         -0.07530       -0.21350       -3.77230
S         -1.22480        0.99580       -3.33730
C          0.76140       -1.11670       -3.10860
C          1.48680       -1.92500       -3.99240
S          1.18330       -1.58570       -5.66060
C          2.24190       -2.80800       -3.21150
C          3.04720       -3.90860       -3.58090
N          3.33640       -4.34960       -4.79470
S          4.23140       -5.69130       -4.65300
N          4.28560       -5.75910       -3.03640
C          3.60600       -4.73270       -2.55090
C          3.42930       -4.35100       -1.20190
C          3.96030       -4.88720       -0.02360
S          4.94080       -6.22070        0.48210
C          4.84590       -5.62310        2.12670
C          5.36740       -6.06360        3.32600
C          5.03070       -5.23590        4.40140
S          4.03370       -3.87890        3.88590
C          4.08340       -4.44290        2.25720
C          3.57540       -4.03660        1.02160
N          2.80100       -3.01780        0.53420
C          2.57140       -1.84740        1.35280
C          3.37740       -0.65090        0.85400
C          2.68390       -3.19020       -0.83330
C          1.98860       -2.47750       -1.84630
N          1.06800       -1.44430       -1.81600
C          0.21380       -0.98240       -0.74410
C         -0.62280       -2.12090       -0.16630
C          5.45940       -5.50330        5.70620
C          5.25650       -4.80570        6.87270
C          4.52220       -3.54560        6.99690
O          3.94430       -2.92640        6.12000
C          4.61950       -3.15430        8.41760
C          4.10490       -2.03370        9.03510
C          4.33830       -1.88880       10.39790
Cl         3.72130       -0.50680       11.22150
C          5.06220       -2.83940       11.10820
C          5.57460       -3.96320       10.47710
C          5.35440       -4.12700        9.11730
C          5.75680       -5.17690        8.18220
C          6.46830       -6.29990        8.51790
C          6.92000       -6.58840        9.82310
N          7.31740       -6.88550       10.85840
C          6.85120       -7.33200        7.63580
N          7.20140       -8.21470        6.98940
H         -2.43730        2.37150       -6.59780
H         -4.71710        4.16020       -1.02770
H         -6.24860        6.16600       -5.41890
H         -7.37180        8.04820       -2.77460
H         -9.56460        7.08880       -3.46020
H         -9.18100        4.52500       -3.80070
H         -8.41390        3.48330       -1.48100
H         -8.32840        5.40530        0.29090
H         -9.25670        7.66120       -0.84770
H        -10.40740        6.31950       -1.06990
H         -6.63260        7.04190       -0.51500
H         -0.39390       -0.37970       -7.75840
H         -1.73380        0.77470       -7.78470
H          1.22510        1.49210       -7.49380
H         -0.10450        2.65680       -7.51640
H          0.24420        1.69380       -8.95040
H          5.97250       -6.94410        3.44460
H          1.50700       -1.62040        1.40950
H          2.89870       -2.10580        2.36270
H          4.44070       -0.87440        0.90110
H          3.12750       -0.40590       -0.17580
H          3.17910        0.21450        1.48020
H         -0.45170       -0.23290       -1.17910
H          0.80020       -0.48100        0.02610
H         -1.24210       -1.74860        0.64510
H         -1.27260       -2.53060       -0.93610
H          0.00580       -2.92490        0.20980
H          6.04930       -6.40900        5.77680
H          3.54450       -1.30270        8.47420
H          5.22680       -2.69810       12.16490
H          6.13270       -4.68370       11.05160
