104

C         -6.02290        1.24190       -1.80930
C         -6.45950       -0.02540       -1.51790
C         -5.61990       -1.17060       -1.15620
O         -4.40480       -1.19420       -1.04080
C         -6.52970       -2.31070       -0.96530
C         -6.17930       -3.61310       -0.61820
C         -7.24920       -4.46790       -0.50540
C         -8.57040       -4.05810       -0.72870
C         -8.92830       -2.77700       -1.07670
C         -7.85570       -1.88840       -1.19020
C         -7.84150       -0.46560       -1.52850
C         -8.95320        0.29630       -1.78590
C         -8.95960        1.67170       -2.09750
N         -9.05630        2.78790       -2.35420
C        -10.27800       -0.18840       -1.76550
N        -11.38230       -0.50340       -1.76980
C         -9.12960       -5.42590       -0.42850
C         -9.79580       -5.64300        0.95270
C         -9.16130       -4.65110        1.89580
C         -7.91070       -5.03810        2.10890
C         -7.67700       -6.29880        1.31360
C         -9.07660       -6.92960        1.38860
C         -7.65760       -5.88210       -0.17830
C         -4.73570        1.79340       -1.80030
C         -4.48030        3.14080       -2.10490
C         -5.50650        4.16950       -2.45190
C         -6.13760        4.75770       -1.18690
C         -3.12900        3.44000       -1.98370
C         -2.33300        2.34840       -1.60020
S         -3.26420        0.91410       -1.38370
C         -0.99000        2.72180       -1.48590
C         -0.78090        4.07290       -1.78740
S         -2.22410        4.92570       -2.21300
C          0.59250        4.31080       -1.65700
C          1.35740        5.46550       -1.93540
N          0.94310        6.64810       -2.36150
S          2.23690        7.59500       -2.58430
N          3.37550        6.53240       -2.14220
C          2.78180        5.39890       -1.80430
C          3.36510        4.21340       -1.30340
C          4.69050        3.92390       -0.96360
S          6.24860        4.67600       -1.01240
C          6.92130        3.25560       -0.23770
C          8.19350        2.91180        0.16920
C          8.25080        1.64650        0.76380
S          6.66540        0.88030        0.80660
C          5.96520        2.25190        0.03290
C          4.69470        2.64440       -0.39110
N          3.42710        2.12670       -0.39490
C          3.13470        0.96760        0.41930
C          2.34080        1.34770        1.66660
C          2.58400        3.06810       -0.95690
C          1.19090        3.08520       -1.23410
N          0.19530        2.12640       -1.15140
C          0.27890        0.68220       -1.13820
C          1.05250        0.15780       -2.34530
C          9.44810        1.09850        1.23350
C          9.69400       -0.09610        1.86810
C          8.68800       -1.08010        2.25900
O          7.49870       -1.07450        1.99810
C          9.39970       -2.08680        3.07720
C          8.87640       -3.16490        3.76800
Cl         7.23290       -3.59950        3.62930
C          9.73370       -3.89580        4.60270
Cl         9.14240       -5.25820        5.44980
C         11.05410       -3.48550        4.77790
Cl        12.05190       -4.32910        5.88150
C         11.57690       -2.38380        4.07940
Cl        13.14910       -1.83500        4.48890
C         10.76090       -1.72920        3.16570
C         10.99550       -0.59870        2.26810
C         12.19910       -0.22690        1.72750
C         12.38420        0.87300        0.86100
N         12.62610        1.75600        0.16780
C         13.40000       -0.96610        1.80030
N         14.38800       -1.54150        1.70120
H         -6.78770        1.95440       -2.08610
H         -5.14770       -3.88560       -0.45870
H         -9.94990       -2.48200       -1.24730
H         -9.68180       -5.90350       -1.23550
H        -10.88210       -5.65810        0.93200
H         -9.65400       -3.76640        2.25430
H         -7.14930       -4.54080        2.68100
H         -6.83420       -6.91190        1.62210
H         -9.21610       -7.76020        0.69810
H         -9.34450       -7.24060        2.39720
H         -7.24800       -6.65910       -0.82090
H         -6.28880        3.74710       -3.08380
H         -5.01230        4.96910       -3.00760
H         -5.37460        5.21370       -0.56040
H         -6.64330        3.98460       -0.61330
H         -6.86700        5.51510       -1.45830
H          9.06370        3.53110        0.04890
H          4.09770        0.54870        0.72080
H          2.62420        0.20500       -0.16820
H          2.12360        0.45790        2.25110
H          2.92180        2.03090        2.28170
H          1.40480        1.83730        1.40740
H         -0.74820        0.31220       -1.18200
H          0.70540        0.32860       -0.19980
H          1.10970       -0.92640       -2.30450
H          0.54330        0.44190       -3.26330
H          2.06120        0.56370       -2.37810
H         10.29960        1.75070        1.08110
