136

C          0.01490       -6.42600        2.07490
C          1.13570       -7.20700        2.12590
C          2.52290       -6.69080        2.16600
O          2.88790       -5.54490        2.32710
C          3.38160       -7.84310        1.83080
C          4.76600       -7.83170        1.67700
C          5.29820       -9.04510        1.31220
C          4.51250      -10.18770        1.10990
C          3.14680      -10.21510        1.26440
C          2.58590       -8.98990        1.63740
C          1.19270       -8.63070        1.88060
C          0.13490       -9.49920        1.96970
C         -1.16850       -9.11340        2.34560
N         -2.24120       -8.86540        2.67290
C          0.22230      -10.88850        1.75200
N          0.22580      -12.02390        1.57980
C          5.70100      -11.03550        0.72910
C          5.89240      -11.31520       -0.77670
C          7.34210      -11.72940       -0.88690
C          8.08660      -10.64850       -0.69210
C          7.15260       -9.48550       -0.44710
C          5.98060       -9.89430       -1.34880
C          6.57730       -9.76240        0.95830
C         -0.06290       -5.05850        2.41880
C          0.61230       -4.33040        3.39570
C          1.42070       -4.92140        4.45510
C          1.02870       -6.11120        5.06660
C          1.79710       -6.66530        6.06950
C          2.97420       -6.05470        6.48840
C          3.78480       -6.63910        7.60810
C          3.33040       -6.06060        8.95020
C          3.35230       -4.86100        5.88630
C          2.58750       -4.29470        4.88680
C          0.31230       -2.96150        3.30250
S          0.86210       -1.56080        4.19240
C         -0.11180       -0.55490        3.17720
C         -0.40170        0.80840        2.98900
C         -0.07300        1.98110        3.70740
C         -0.62820        3.24310        3.28840
N         -0.28710        4.23440        4.09580
S          0.65460        3.64340        5.27140
N          0.66320        2.09550        4.80100
C         -1.36930        3.30670        2.08540
C         -1.86990        4.37530        1.31970
S         -1.98020        6.10040        1.37960
C         -2.66600        6.09840       -0.22960
C         -3.02580        7.11920       -1.12470
C         -2.88050        8.54320       -0.86490
C         -2.42030        9.40740       -1.85880
C         -2.28910       10.75720       -1.60240
C         -2.60970       11.28320       -0.35650
C         -2.42040       12.74360       -0.07110
C         -1.00430       13.00230        0.44880
C         -3.05100       10.41580        0.63710
C         -3.18150        9.06440        0.39350
C         -3.46020        6.59660       -2.34320
S         -3.45390        4.83530       -2.35380
C         -2.81130        4.81000       -0.75580
C         -2.35330        3.82930        0.12310
N         -2.19110        2.46590        0.11760
C         -1.60960        2.13080        1.32700
C         -1.26610        0.87400        1.86510
N         -1.56060       -0.40380        1.42960
C         -0.84130       -1.26880        2.21670
C         -0.60750       -2.64370        2.29480
S         -1.14540       -4.05070        1.45840
C         -2.79100       -0.82900        0.79220
C         -3.76550       -1.42110        1.81000
C         -2.00650        1.78050       -1.14840
C         -0.78280        2.31250       -1.89440
C         -3.97740        7.32560       -3.43440
C         -4.09870        6.92440       -4.73320
C         -5.07540        7.59000       -5.63220
O         -5.65350        8.63510       -5.43040
C         -5.22380        6.67620       -6.78280
C         -6.07700        6.75910       -7.84410
C         -6.05770        5.74190       -8.82620
C         -6.91260        5.77810       -9.94500
C         -6.88140        4.78170      -10.88280
C         -5.99390        3.70470      -10.74240
C         -5.15020        3.63940       -9.66720
C         -5.15390        4.64990       -8.68460
C         -4.27410        4.59440       -7.57890
C         -4.30440        5.59490       -6.64650
C         -3.49850        5.82500       -5.45300
C         -2.26360        5.27530       -5.21090
C         -1.71160        4.21430       -5.95170
N         -1.22680        3.32390       -6.49190
C         -1.38170        5.76550       -4.22730
N         -0.62300        6.17830       -3.47000
H         -0.88940       -6.84970        1.65130
H          5.33270       -6.92830        1.83930
H          2.55260      -11.09900        1.10100
H          5.87970      -11.91070        1.35070
H          5.15710      -11.98640       -1.21200
H          7.66690      -12.74250       -1.03520
H          9.15750      -10.57810       -0.64500
H          7.56510       -8.48930       -0.58240
H          5.08040       -9.30000       -1.20330
H          6.25220       -9.89140       -2.40310
H          7.34060       -9.78800        1.73370
H          0.10790       -6.59110        4.76570
H          1.47860       -7.58640        6.53720
H          3.66690       -7.72450        7.62520
H          4.84190       -6.41120        7.45800
H          3.91880       -6.47910        9.76340
H          3.44850       -4.97950        8.95520
H          2.28190       -6.29040        9.12530
H          4.26230       -4.37120        6.20190
H          2.91040       -3.38300        4.40960
H         -2.12630        9.00760       -2.81790
H         -1.92830       11.41390       -2.38080
H         -2.58070       13.32310       -0.98230
H         -3.14420       13.07280        0.67700
H         -0.86220       14.06080        0.65300
H         -0.26810       12.68780       -0.28740
H         -0.83000       12.44400        1.36580
H         -3.29880       10.80710        1.61330
H         -3.54050        8.40740        1.17150
H         -3.26410        0.03450        0.32710
H         -2.55350       -1.57670        0.02850
H         -4.69910       -1.67110        1.31390
H         -3.36260       -2.32430        2.25890
H         -3.97020       -0.69930        2.59790
H         -2.90750        1.93150       -1.75120
H         -1.86390        0.71730       -0.96990
H         -0.87950        3.37260       -2.11300
H         -0.66990        1.77920       -2.83420
H          0.11430        2.16380       -1.29730
H         -4.41060        8.29330       -3.19840
H         -6.75880        7.59140       -7.93700
H         -7.59440        6.60970      -10.04810
H         -7.54020        4.81810      -11.73760
H         -5.98110        2.92700      -11.49140
H         -4.46220        2.81400       -9.55590
H         -3.60160        3.75510       -7.49080
