
  xtb     02102218163D
 energy: -204.882136176155 gnorm: 0.000563736315 xtb: 6.4.1 (unknown)
122136  0     0  0            999 V2000
    5.1603    4.2989    1.4552 C   0  0  0  0  0  0  0  0  0  0  0  0
    4.7088    5.1607    2.4108 C   0  0  0  0  0  0  0  0  0  0  0  0
    3.4897    5.0080    3.2427 C   0  0  0  0  0  0  0  0  0  0  0  0
    2.5455    4.2606    3.0846 O   0  0  0  0  0  0  0  0  0  0  0  0
    3.6746    5.9185    4.3894 C   0  0  0  0  0  0  0  0  0  0  0  0
    2.8222    6.0574    5.4833 C   0  0  0  0  0  0  0  0  0  0  0  0
    3.2518    6.9717    6.4143 C   0  0  0  0  0  0  0  0  0  0  0  0
    4.4471    7.6899    6.2745 C   0  0  0  0  0  0  0  0  0  0  0  0
    5.2978    7.5613    5.2029 C   0  0  0  0  0  0  0  0  0  0  0  0
    4.8738    6.6411    4.2386 C   0  0  0  0  0  0  0  0  0  0  0  0
    5.4992    6.2367    2.9847 C   0  0  0  0  0  0  0  0  0  0  0  0
    6.5919    6.8284    2.4068 C   0  0  0  0  0  0  0  0  0  0  0  0
    7.1138    6.4943    1.1390 C   0  0  0  0  0  0  0  0  0  0  0  0
    7.5843    6.3027    0.1088 N   0  0  0  0  0  0  0  0  0  0  0  0
    7.3198    7.8904    2.9812 C   0  0  0  0  0  0  0  0  0  0  0  0
    7.9576    8.7515    3.3942 N   0  0  0  0  0  0  0  0  0  0  0  0
    4.2533    8.4217    7.5793 C   0  0  0  0  0  0  0  0  0  0  0  0
    3.7682    9.8836    7.4836 C   0  0  0  0  0  0  0  0  0  0  0  0
    3.2176   10.1725    8.8613 C   0  0  0  0  0  0  0  0  0  0  0  0
    2.0847    9.4946    8.9933 C   0  0  0  0  0  0  0  0  0  0  0  0
    1.8505    8.7361    7.7068 C   0  0  0  0  0  0  0  0  0  0  0  0
    2.4569    9.7251    6.7031 C   0  0  0  0  0  0  0  0  0  0  0  0
    2.9194    7.6231    7.7339 C   0  0  0  0  0  0  0  0  0  0  0  0
    4.4536    3.2342    0.8120 C   0  0  0  0  0  0  0  0  0  0  0  0
    5.1935    2.0983    0.4046 C   0  0  0  0  0  0  0  0  0  0  0  0
    4.5914    1.0016   -0.1515 C   0  0  0  0  0  0  0  0  0  0  0  0
    3.2063    1.0148   -0.3563 C   0  0  0  0  0  0  0  0  0  0  0  0
    2.2383    0.1191   -0.8532 C   0  0  0  0  0  0  0  0  0  0  0  0
    0.9934    0.7589   -0.7857 C   0  0  0  0  0  0  0  0  0  0  0  0
    1.1311    2.0215   -0.2981 N   0  0  0  0  0  0  0  0  0  0  0  0
    2.4632    2.1920   -0.0009 C   0  0  0  0  0  0  0  0  0  0  0  0
    3.0790    3.2868    0.5675 C   0  0  0  0  0  0  0  0  0  0  0  0
    0.0555    2.9201    0.0364 C   0  0  0  0  0  0  0  0  0  0  0  0
   -0.2635    2.8841    1.5298 C   0  0  0  0  0  0  0  0  0  0  0  0
    0.0331   -0.1396   -1.2733 C   0  0  0  0  0  0  0  0  0  0  0  0
   -1.3428   -0.0141   -1.5500 C   0  0  0  0  0  0  0  0  0  0  0  0
   -2.0453   -1.1001   -2.1355 C   0  0  0  0  0  0  0  0  0  0  0  0
   -3.3030   -0.7032   -2.3460 N   0  0  0  0  0  0  0  0  0  0  0  0
   -3.3285    0.5327   -1.9046 N   0  0  0  0  0  0  0  0  0  0  0  0
   -4.5087    1.3417   -1.9934 C   0  0  0  0  0  0  0  0  0  0  0  0
   -4.5323    2.1243   -3.3035 C   0  0  0  0  0  0  0  0  0  0  0  0
   -2.2010    1.0017   -1.4236 N   0  0  0  0  0  0  0  0  0  0  0  0
   -1.3905   -2.3336   -2.3254 C   0  0  0  0  0  0  0  0  0  0  0  0
   -0.0110   -2.4861   -1.9882 C   0  0  0  0  0  0  0  0  0  0  0  0
    0.7302   -1.3467   -1.5813 C   0  0  0  0  0  0  0  0  0  0  0  0
    2.0867   -1.1569   -1.3434 N   0  0  0  0  0  0  0  0  0  0  0  0
    3.2115   -1.8340   -1.9524 C   0  0  0  0  0  0  0  0  0  0  0  0
    3.0245   -2.0194   -3.4561 C   0  0  0  0  0  0  0  0  0  0  0  0
    0.3458   -3.8182   -2.1470 N   0  0  0  0  0  0  0  0  0  0  0  0
    1.4360   -4.5439   -1.5337 C   0  0  0  0  0  0  0  0  0  0  0  0
    1.5289   -4.2799   -0.0327 C   0  0  0  0  0  0  0  0  0  0  0  0
   -0.7689   -4.4909   -2.5897 C   0  0  0  0  0  0  0  0  0  0  0  0
   -1.8439   -3.5991   -2.7205 C   0  0  0  0  0  0  0  0  0  0  0  0
   -2.9538   -4.2497   -3.1631 N   0  0  0  0  0  0  0  0  0  0  0  0
   -4.2647   -3.6743   -3.3201 C   0  0  0  0  0  0  0  0  0  0  0  0
   -5.1411   -3.9350   -2.0964 C   0  0  0  0  0  0  0  0  0  0  0  0
   -2.6116   -5.5771   -3.2999 C   0  0  0  0  0  0  0  0  0  0  0  0
   -1.2267   -5.7695   -2.9568 C   0  0  0  0  0  0  0  0  0  0  0  0
   -0.6829   -7.0558   -3.0602 C   0  0  0  0  0  0  0  0  0  0  0  0
   -1.4727   -8.1007   -3.4594 C   0  0  0  0  0  0  0  0  0  0  0  0
   -2.8385   -7.9230   -3.7840 C   0  0  0  0  0  0  0  0  0  0  0  0
   -3.3951   -6.6305   -3.7050 C   0  0  0  0  0  0  0  0  0  0  0  0
   -3.7329   -8.9523   -4.1920 C   0  0  0  0  0  0  0  0  0  0  0  0
   -3.6467  -10.3057   -4.3864 C   0  0  0  0  0  0  0  0  0  0  0  0
   -2.4943  -11.2344   -4.2394 C   0  0  0  0  0  0  0  0  0  0  0  0
   -1.3493  -11.0086   -3.9075 O   0  0  0  0  0  0  0  0  0  0  0  0
   -3.0409  -12.5454   -4.5929 C   0  0  0  0  0  0  0  0  0  0  0  0
   -2.4197  -14.1352   -4.6890 S   0  0  0  0  0  0  0  0  0  0  0  0
   -3.9918  -14.6944   -5.1828 C   0  0  0  0  0  0  0  0  0  0  0  0
   -4.2597  -16.5134   -5.5432 Br  0  0  0  0  0  0  0  0  0  0  0  0
   -4.9397  -13.7130   -5.2688 C   0  0  0  0  0  0  0  0  0  0  0  0
   -4.3826  -12.4672   -4.9255 C   0  0  0  0  0  0  0  0  0  0  0  0
   -4.8068  -11.0837   -4.8090 C   0  0  0  0  0  0  0  0  0  0  0  0
   -6.0889  -10.6668   -5.0635 C   0  0  0  0  0  0  0  0  0  0  0  0
   -6.6017   -9.3576   -4.9701 C   0  0  0  0  0  0  0  0  0  0  0  0
   -7.1179   -8.3312   -4.9224 N   0  0  0  0  0  0  0  0  0  0  0  0
   -7.0910  -11.5743   -5.4685 C   0  0  0  0  0  0  0  0  0  0  0  0
   -7.9258  -12.2887   -5.7999 N   0  0  0  0  0  0  0  0  0  0  0  0
    6.2096    4.3686    1.1898 H   0  0  0  0  0  0  0  0  0  0  0  0
    1.9155    5.4771    5.5557 H   0  0  0  0  0  0  0  0  0  0  0  0
    6.2203    8.1106    5.1146 H   0  0  0  0  0  0  0  0  0  0  0  0
    5.0345    8.2803    8.3238 H   0  0  0  0  0  0  0  0  0  0  0  0
    4.5031   10.5820    7.0929 H   0  0  0  0  0  0  0  0  0  0  0  0
    3.7207   10.7756    9.5942 H   0  0  0  0  0  0  0  0  0  0  0  0
    1.4524    9.4182    9.8585 H   0  0  0  0  0  0  0  0  0  0  0  0
    0.8371    8.3903    7.5204 H   0  0  0  0  0  0  0  0  0  0  0  0
    1.8943   10.6558    6.6510 H   0  0  0  0  0  0  0  0  0  0  0  0
    2.5832    9.3195    5.7011 H   0  0  0  0  0  0  0  0  0  0  0  0
    2.8108    6.9492    8.5819 H   0  0  0  0  0  0  0  0  0  0  0  0
    6.2597    2.0921    0.5769 H   0  0  0  0  0  0  0  0  0  0  0  0
    5.1831    0.1377   -0.4164 H   0  0  0  0  0  0  0  0  0  0  0  0
    2.5206    4.1769    0.7983 H   0  0  0  0  0  0  0  0  0  0  0  0
   -0.8185    2.6055   -0.5401 H   0  0  0  0  0  0  0  0  0  0  0  0
    0.3381    3.9338   -0.2633 H   0  0  0  0  0  0  0  0  0  0  0  0
   -0.5545    1.8782    1.8232 H   0  0  0  0  0  0  0  0  0  0  0  0
    0.6008    3.1840    2.1170 H   0  0  0  0  0  0  0  0  0  0  0  0
   -1.0863    3.5603    1.7455 H   0  0  0  0  0  0  0  0  0  0  0  0
   -5.3690    0.6723   -1.9328 H   0  0  0  0  0  0  0  0  0  0  0  0
   -4.5057    2.0254   -1.1418 H   0  0  0  0  0  0  0  0  0  0  0  0
   -4.5194    1.4410   -4.1492 H   0  0  0  0  0  0  0  0  0  0  0  0
   -5.4320    2.7305   -3.3562 H   0  0  0  0  0  0  0  0  0  0  0  0
   -3.6646    2.7767   -3.3658 H   0  0  0  0  0  0  0  0  0  0  0  0
    4.0790   -1.1947   -1.7820 H   0  0  0  0  0  0  0  0  0  0  0  0
    3.4100   -2.7870   -1.4566 H   0  0  0  0  0  0  0  0  0  0  0  0
    3.8996   -2.5057   -3.8794 H   0  0  0  0  0  0  0  0  0  0  0  0
    2.1479   -2.6225   -3.6771 H   0  0  0  0  0  0  0  0  0  0  0  0
    2.9000   -1.0508   -3.9354 H   0  0  0  0  0  0  0  0  0  0  0  0
    2.3804   -4.3226   -2.0348 H   0  0  0  0  0  0  0  0  0  0  0  0
    1.2255   -5.6021   -1.6939 H   0  0  0  0  0  0  0  0  0  0  0  0
    2.3451   -4.8577    0.3934 H   0  0  0  0  0  0  0  0  0  0  0  0
    0.6027   -4.5781    0.4534 H   0  0  0  0  0  0  0  0  0  0  0  0
    1.6989   -3.2271    0.1759 H   0  0  0  0  0  0  0  0  0  0  0  0
   -4.7309   -4.0940   -4.2161 H   0  0  0  0  0  0  0  0  0  0  0  0
   -4.1352   -2.5973   -3.4491 H   0  0  0  0  0  0  0  0  0  0  0  0
   -4.6993   -3.4698   -1.2186 H   0  0  0  0  0  0  0  0  0  0  0  0
   -5.2413   -5.0023   -1.9135 H   0  0  0  0  0  0  0  0  0  0  0  0
   -6.1296   -3.5133   -2.2538 H   0  0  0  0  0  0  0  0  0  0  0  0
    0.3578   -7.2340   -2.8335 H   0  0  0  0  0  0  0  0  0  0  0  0
   -1.0460   -9.0850   -3.5300 H   0  0  0  0  0  0  0  0  0  0  0  0
   -4.4335   -6.4791   -3.9611 H   0  0  0  0  0  0  0  0  0  0  0  0
   -4.7242   -8.5595   -4.3886 H   0  0  0  0  0  0  0  0  0  0  0  0
   -5.9576  -13.8950   -5.5593 H   0  0  0  0  0  0  0  0  0  0  0  0
  1  2  2  0  0  0  0
  2  3  1  0  0  0  0
  3  4  2  0  0  0  0
  3  5  1  0  0  0  0
  5  6  2  0  0  0  0
  6  7  1  0  0  0  0
  7  8  2  0  0  0  0
  8  9  1  0  0  0  0
  9 10  2  0  0  0  0
 10 11  1  0  0  0  0
 11 12  2  0  0  0  0
 12 13  1  0  0  0  0
 13 14  3  0  0  0  0
 12 15  1  0  0  0  0
 15 16  3  0  0  0  0
  8 17  1  0  0  0  0
 17 18  1  0  0  0  0
 18 19  1  0  0  0  0
 19 20  2  0  0  0  0
 20 21  1  0  0  0  0
 21 22  1  0  0  0  0
 21 23  1  0  0  0  0
  1 24  1  0  0  0  0
 24 25  2  0  0  0  0
 25 26  1  0  0  0  0
 26 27  2  0  0  0  0
 27 28  1  0  0  0  0
 28 29  2  0  0  0  0
 29 30  1  0  0  0  0
 30 31  1  0  0  0  0
 31 32  2  0  0  0  0
 30 33  1  0  0  0  0
 33 34  1  0  0  0  0
 29 35  1  0  0  0  0
 35 36  1  0  0  0  0
 36 37  1  0  0  0  0
 37 38  2  0  0  0  0
 38 39  1  0  0  0  0
 39 40  1  0  0  0  0
 40 41  1  0  0  0  0
 39 42  1  0  0  0  0
 37 43  1  0  0  0  0
 43 44  2  0  0  0  0
 44 45  1  0  0  0  0
 45 46  1  0  0  0  0
 46 47  1  0  0  0  0
 47 48  1  0  0  0  0
 44 49  1  0  0  0  0
 49 50  1  0  0  0  0
 50 51  1  0  0  0  0
 49 52  1  0  0  0  0
 52 53  2  0  0  0  0
 53 54  1  0  0  0  0
 54 55  1  0  0  0  0
 55 56  1  0  0  0  0
 54 57  1  0  0  0  0
 57 58  2  0  0  0  0
 58 59  1  0  0  0  0
 59 60  2  0  0  0  0
 60 61  1  0  0  0  0
 61 62  2  0  0  0  0
 61 63  1  0  0  0  0
 63 64  2  0  0  0  0
 64 65  1  0  0  0  0
 65 66  2  0  0  0  0
 65 67  1  0  0  0  0
 67 68  1  0  0  0  0
 68 69  1  0  0  0  0
 69 70  1  0  0  0  0
 69 71  2  0  0  0  0
 71 72  1  0  0  0  0
 72 73  1  0  0  0  0
 73 74  2  0  0  0  0
 74 75  1  0  0  0  0
 75 76  3  0  0  0  0
 74 77  1  0  0  0  0
 77 78  3  0  0  0  0
 11  2  1  0  0  0  0
 23 17  1  0  0  0  0
 32 24  1  0  0  0  0
 45 35  2  0  0  0  0
 58 52  1  0  0  0  0
 73 64  1  0  0  0  0
 10  5  1  0  0  0  0
 22 18  1  0  0  0  0
 31 27  1  0  0  0  0
 42 36  2  0  0  0  0
 53 43  1  0  0  0  0
 62 57  1  0  0  0  0
 72 67  2  0  0  0  0
 23  7  1  0  0  0  0
 46 28  1  0  0  0  0
  1 79  1  0  0  0  0
  6 80  1  0  0  0  0
  9 81  1  0  0  0  0
 17 82  1  0  0  0  0
 18 83  1  0  0  0  0
 19 84  1  0  0  0  0
 20 85  1  0  0  0  0
 21 86  1  0  0  0  0
 22 87  1  0  0  0  0
 22 88  1  0  0  0  0
 23 89  1  0  0  0  0
 25 90  1  0  0  0  0
 26 91  1  0  0  0  0
 32 92  1  0  0  0  0
 33 93  1  0  0  0  0
 33 94  1  0  0  0  0
 34 95  1  0  0  0  0
 34 96  1  0  0  0  0
 34 97  1  0  0  0  0
 40 98  1  0  0  0  0
 40 99  1  0  0  0  0
 41100  1  0  0  0  0
 41101  1  0  0  0  0
 41102  1  0  0  0  0
 47103  1  0  0  0  0
 47104  1  0  0  0  0
 48105  1  0  0  0  0
 48106  1  0  0  0  0
 48107  1  0  0  0  0
 50108  1  0  0  0  0
 50109  1  0  0  0  0
 51110  1  0  0  0  0
 51111  1  0  0  0  0
 51112  1  0  0  0  0
 55113  1  0  0  0  0
 55114  1  0  0  0  0
 56115  1  0  0  0  0
 56116  1  0  0  0  0
 56117  1  0  0  0  0
 59118  1  0  0  0  0
 60119  1  0  0  0  0
 62120  1  0  0  0  0
 63121  1  0  0  0  0
 71122  1  0  0  0  0
M  END
