
  xtb     02012221193D
 energy: -267.821267434328 gnorm: 0.000262586333 xtb: 6.4.1 (unknown)
161178  0     0  0            999 V2000
   -7.0506   -3.2401    0.5788 C   0  0  0  0  0  0  0  0  0  0  0  0
   -7.5591   -4.0283    1.5790 C   0  0  0  0  0  0  0  0  0  0  0  0
   -7.0906   -4.0645    2.9689 C   0  0  0  0  0  0  0  0  0  0  0  0
   -6.3006   -3.3087    3.5080 O   0  0  0  0  0  0  0  0  0  0  0  0
   -7.7589   -5.2157    3.5998 C   0  0  0  0  0  0  0  0  0  0  0  0
   -7.5629   -5.6918    4.8942 C   0  0  0  0  0  0  0  0  0  0  0  0
   -8.2973   -6.8141    5.1931 C   0  0  0  0  0  0  0  0  0  0  0  0
   -9.1694   -7.4136    4.2751 C   0  0  0  0  0  0  0  0  0  0  0  0
   -9.3798   -6.9472    2.9989 C   0  0  0  0  0  0  0  0  0  0  0  0
   -8.6357   -5.8099    2.6704 C   0  0  0  0  0  0  0  0  0  0  0  0
   -8.5680   -5.0569    1.4184 C   0  0  0  0  0  0  0  0  0  0  0  0
   -9.3451   -5.2884    0.3122 C   0  0  0  0  0  0  0  0  0  0  0  0
   -9.3097   -4.5483   -0.8880 C   0  0  0  0  0  0  0  0  0  0  0  0
   -9.3516   -4.0002   -1.8971 N   0  0  0  0  0  0  0  0  0  0  0  0
  -10.3216   -6.3018    0.2195 C   0  0  0  0  0  0  0  0  0  0  0  0
  -11.1299   -7.1032    0.0670 N   0  0  0  0  0  0  0  0  0  0  0  0
   -9.5533   -8.5122    5.2351 C   0  0  0  0  0  0  0  0  0  0  0  0
   -8.9025   -9.8911    4.9950 C   0  0  0  0  0  0  0  0  0  0  0  0
   -9.0659  -10.6044    6.3177 C   0  0  0  0  0  0  0  0  0  0  0  0
   -8.2394  -10.0369    7.1869 C   0  0  0  0  0  0  0  0  0  0  0  0
   -7.5037   -8.9303    6.4662 C   0  0  0  0  0  0  0  0  0  0  0  0
   -7.4091   -9.5467    5.0644 C   0  0  0  0  0  0  0  0  0  0  0  0
   -8.5805   -7.8436    6.2587 C   0  0  0  0  0  0  0  0  0  0  0  0
   -6.0174   -2.2931    0.6022 C   0  0  0  0  0  0  0  0  0  0  0  0
   -5.1407   -1.7329    2.0184 S   0  0  0  0  0  0  0  0  0  0  0  0
   -4.1318   -0.7897    1.0146 C   0  0  0  0  0  0  0  0  0  0  0  0
   -2.9432   -0.0146    1.1864 C   0  0  0  0  0  0  0  0  0  0  0  0
   -2.4902    0.3644   -0.0734 C   0  0  0  0  0  0  0  0  0  0  0  0
   -3.4535   -0.0883   -1.1631 C   0  0  0  0  0  0  0  0  0  0  0  0
   -4.4418   -0.8888   -0.3426 C   0  0  0  0  0  0  0  0  0  0  0  0
   -5.5155   -1.7192   -0.5751 C   0  0  0  0  0  0  0  0  0  0  0  0
   -2.7378   -0.9871   -2.1581 C   0  0  0  0  0  0  0  0  0  0  0  0
   -2.1778   -2.1750   -1.6947 C   0  0  0  0  0  0  0  0  0  0  0  0
   -1.4987   -3.0165   -2.5458 C   0  0  0  0  0  0  0  0  0  0  0  0
   -1.3524   -2.6940   -3.8970 C   0  0  0  0  0  0  0  0  0  0  0  0
   -0.6668   -3.5901   -4.6510 O   0  0  0  0  0  0  0  0  0  0  0  0
   -0.4838   -3.3309   -6.0294 C   0  0  0  0  0  0  0  0  0  0  0  0
    0.2988   -4.4939   -6.6181 C   0  0  0  0  0  0  0  0  0  0  0  0
   -1.9025   -1.5060   -4.3633 C   0  0  0  0  0  0  0  0  0  0  0  0
   -2.5850   -0.6670   -3.4972 C   0  0  0  0  0  0  0  0  0  0  0  0
   -4.1978    1.0667   -1.8093 C   0  0  0  0  0  0  0  0  0  0  0  0
   -3.9636    2.3874   -1.4652 C   0  0  0  0  0  0  0  0  0  0  0  0
   -4.6787    3.4216   -2.0485 C   0  0  0  0  0  0  0  0  0  0  0  0
   -5.6611    3.1497   -2.9925 C   0  0  0  0  0  0  0  0  0  0  0  0
   -6.4427    4.0669   -3.6215 O   0  0  0  0  0  0  0  0  0  0  0  0
   -6.2281    5.4467   -3.4049 C   0  0  0  0  0  0  0  0  0  0  0  0
   -5.0207    5.9816   -4.1700 C   0  0  0  0  0  0  0  0  0  0  0  0
   -5.9078    1.8171   -3.3333 C   0  0  0  0  0  0  0  0  0  0  0  0
   -5.1916    0.7981   -2.7488 C   0  0  0  0  0  0  0  0  0  0  0  0
   -1.2387    0.9987   -0.2175 C   0  0  0  0  0  0  0  0  0  0  0  0
   -0.6651    1.3040   -1.4531 C   0  0  0  0  0  0  0  0  0  0  0  0
    0.6374    1.7737   -1.5579 C   0  0  0  0  0  0  0  0  0  0  0  0
    1.2472    1.9486   -2.8319 C   0  0  0  0  0  0  0  0  0  0  0  0
    2.5580    2.2853   -2.9499 C   0  0  0  0  0  0  0  0  0  0  0  0
    3.3094    2.4988   -1.7740 C   0  0  0  0  0  0  0  0  0  0  0  0
    4.7079    2.7356   -1.6117 C   0  0  0  0  0  0  0  0  0  0  0  0
    5.0198    2.8234   -0.2512 C   0  0  0  0  0  0  0  0  0  0  0  0
    3.7574    2.7316    0.5783 C   0  0  0  0  0  0  0  0  0  0  0  0
    3.5379    4.0891    1.2262 C   0  0  0  0  0  0  0  0  0  0  0  0
    4.4703    4.5643    2.1394 C   0  0  0  0  0  0  0  0  0  0  0  0
    4.3434    5.8112    2.7227 C   0  0  0  0  0  0  0  0  0  0  0  0
    3.2631    6.6257    2.3968 C   0  0  0  0  0  0  0  0  0  0  0  0
    3.0118    7.8597    2.9081 O   0  0  0  0  0  0  0  0  0  0  0  0
    3.9614    8.4814    3.7512 C   0  0  0  0  0  0  0  0  0  0  0  0
    5.1571    9.0356    2.9822 C   0  0  0  0  0  0  0  0  0  0  0  0
    2.3240    6.1503    1.4809 C   0  0  0  0  0  0  0  0  0  0  0  0
    2.4614    4.9057    0.9028 C   0  0  0  0  0  0  0  0  0  0  0  0
    3.8290    1.5868    1.5741 C   0  0  0  0  0  0  0  0  0  0  0  0
    4.1842    0.3274    1.1133 C   0  0  0  0  0  0  0  0  0  0  0  0
    4.2234   -0.7667    1.9592 C   0  0  0  0  0  0  0  0  0  0  0  0
    3.8992   -0.6170    3.3037 C   0  0  0  0  0  0  0  0  0  0  0  0
    3.8914   -1.6115    4.2262 O   0  0  0  0  0  0  0  0  0  0  0  0
    4.2153   -2.9281    3.8241 C   0  0  0  0  0  0  0  0  0  0  0  0
    4.1010   -3.8235    5.0477 C   0  0  0  0  0  0  0  0  0  0  0  0
    3.5439    0.6491    3.7714 C   0  0  0  0  0  0  0  0  0  0  0  0
    3.5080    1.7315    2.9195 C   0  0  0  0  0  0  0  0  0  0  0  0
    2.7332    2.4311   -0.5085 C   0  0  0  0  0  0  0  0  0  0  0  0
    1.3867    2.0379   -0.3606 C   0  0  0  0  0  0  0  0  0  0  0  0
    0.7719    1.8370    0.8764 C   0  0  0  0  0  0  0  0  0  0  0  0
   -0.4987    1.2859    0.9798 C   0  0  0  0  0  0  0  0  0  0  0  0
   -1.0480    0.9605    2.2514 C   0  0  0  0  0  0  0  0  0  0  0  0
   -2.2342    0.3071    2.3634 C   0  0  0  0  0  0  0  0  0  0  0  0
    6.3707    2.9509   -0.0327 C   0  0  0  0  0  0  0  0  0  0  0  0
    7.1147    2.9485   -1.2257 C   0  0  0  0  0  0  0  0  0  0  0  0
    6.0711    2.8041   -2.6349 S   0  0  0  0  0  0  0  0  0  0  0  0
    8.5096    3.0248   -1.2198 C   0  0  0  0  0  0  0  0  0  0  0  0
    9.4201    2.9628   -2.2494 C   0  0  0  0  0  0  0  0  0  0  0  0
    9.0943    2.7659   -3.6656 C   0  0  0  0  0  0  0  0  0  0  0  0
    7.9897    2.7084   -4.1709 O   0  0  0  0  0  0  0  0  0  0  0  0
   10.3926    2.6459   -4.3627 C   0  0  0  0  0  0  0  0  0  0  0  0
   10.6800    2.4189   -5.6955 C   0  0  0  0  0  0  0  0  0  0  0  0
    9.7035    2.2741   -6.5976 F   0  0  0  0  0  0  0  0  0  0  0  0
   12.0018    2.3340   -6.1164 C   0  0  0  0  0  0  0  0  0  0  0  0
   13.0223    2.4781   -5.1935 C   0  0  0  0  0  0  0  0  0  0  0  0
   12.7577    2.7085   -3.8484 C   0  0  0  0  0  0  0  0  0  0  0  0
   11.4393    2.7927   -3.4337 C   0  0  0  0  0  0  0  0  0  0  0  0
   10.8569    3.0174   -2.1076 C   0  0  0  0  0  0  0  0  0  0  0  0
   11.5776    3.2531   -0.9635 C   0  0  0  0  0  0  0  0  0  0  0  0
   11.0378    3.5049    0.3148 C   0  0  0  0  0  0  0  0  0  0  0  0
   10.6872    3.7246    1.3869 N   0  0  0  0  0  0  0  0  0  0  0  0
   12.9860    3.2923   -0.9023 C   0  0  0  0  0  0  0  0  0  0  0  0
   14.1262    3.3369   -0.7733 N   0  0  0  0  0  0  0  0  0  0  0  0
   -7.4572   -3.3931   -0.4139 H   0  0  0  0  0  0  0  0  0  0  0  0
   -6.8812   -5.1977    5.5687 H   0  0  0  0  0  0  0  0  0  0  0  0
  -10.0539   -7.4219    2.3060 H   0  0  0  0  0  0  0  0  0  0  0  0
  -10.6101   -8.5778    5.4861 H   0  0  0  0  0  0  0  0  0  0  0  0
   -9.2562  -10.4131    4.1101 H   0  0  0  0  0  0  0  0  0  0  0  0
   -9.7818  -11.3856    6.4936 H   0  0  0  0  0  0  0  0  0  0  0  0
   -8.1269  -10.2493    8.2339 H   0  0  0  0  0  0  0  0  0  0  0  0
   -6.5822   -8.5777    6.9217 H   0  0  0  0  0  0  0  0  0  0  0  0
   -7.0770   -8.8520    4.2951 H   0  0  0  0  0  0  0  0  0  0  0  0
   -6.7807  -10.4357    5.0475 H   0  0  0  0  0  0  0  0  0  0  0  0
   -8.9880   -7.4639    7.1937 H   0  0  0  0  0  0  0  0  0  0  0  0
   -5.9305   -1.9603   -1.5371 H   0  0  0  0  0  0  0  0  0  0  0  0
   -2.2759   -2.4405   -0.6521 H   0  0  0  0  0  0  0  0  0  0  0  0
   -1.0668   -3.9383   -2.1896 H   0  0  0  0  0  0  0  0  0  0  0  0
    0.0718   -2.3924   -6.1655 H   0  0  0  0  0  0  0  0  0  0  0  0
   -1.4586   -3.2386   -6.5283 H   0  0  0  0  0  0  0  0  0  0  0  0
   -0.2527   -5.4196   -6.4794 H   0  0  0  0  0  0  0  0  0  0  0  0
    0.4620   -4.3304   -7.6794 H   0  0  0  0  0  0  0  0  0  0  0  0
    1.2591   -4.5849   -6.1182 H   0  0  0  0  0  0  0  0  0  0  0  0
   -1.8095   -1.2175   -5.3985 H   0  0  0  0  0  0  0  0  0  0  0  0
   -3.0009    0.2503   -3.8882 H   0  0  0  0  0  0  0  0  0  0  0  0
   -3.2124    2.6341   -0.7306 H   0  0  0  0  0  0  0  0  0  0  0  0
   -4.4567    4.4324   -1.7444 H   0  0  0  0  0  0  0  0  0  0  0  0
   -7.1405    5.9229   -3.7750 H   0  0  0  0  0  0  0  0  0  0  0  0
   -6.1387    5.6618   -2.3329 H   0  0  0  0  0  0  0  0  0  0  0  0
   -4.1041    5.5009   -3.8369 H   0  0  0  0  0  0  0  0  0  0  0  0
   -5.1436    5.7873   -5.2326 H   0  0  0  0  0  0  0  0  0  0  0  0
   -4.9341    7.0535   -4.0147 H   0  0  0  0  0  0  0  0  0  0  0  0
   -6.6766    1.6093   -4.0605 H   0  0  0  0  0  0  0  0  0  0  0  0
   -5.3979   -0.2223   -3.0327 H   0  0  0  0  0  0  0  0  0  0  0  0
   -1.2278    1.1219   -2.3546 H   0  0  0  0  0  0  0  0  0  0  0  0
    0.6427    1.7664   -3.7084 H   0  0  0  0  0  0  0  0  0  0  0  0
    3.0408    2.3797   -3.9104 H   0  0  0  0  0  0  0  0  0  0  0  0
    5.3126    3.9475    2.4129 H   0  0  0  0  0  0  0  0  0  0  0  0
    5.0947    6.1293    3.4280 H   0  0  0  0  0  0  0  0  0  0  0  0
    3.4094    9.3014    4.2191 H   0  0  0  0  0  0  0  0  0  0  0  0
    4.2889    7.7937    4.5407 H   0  0  0  0  0  0  0  0  0  0  0  0
    4.8152    9.7416    2.2294 H   0  0  0  0  0  0  0  0  0  0  0  0
    5.8283    9.5466    3.6669 H   0  0  0  0  0  0  0  0  0  0  0  0
    5.7021    8.2387    2.4820 H   0  0  0  0  0  0  0  0  0  0  0  0
    1.4868    6.7835    1.2334 H   0  0  0  0  0  0  0  0  0  0  0  0
    1.7196    4.5752    0.1925 H   0  0  0  0  0  0  0  0  0  0  0  0
    4.4312    0.1916    0.0699 H   0  0  0  0  0  0  0  0  0  0  0  0
    4.5036   -1.7275    1.5574 H   0  0  0  0  0  0  0  0  0  0  0  0
    5.2385   -2.9597    3.4244 H   0  0  0  0  0  0  0  0  0  0  0  0
    3.5210   -3.2639    3.0411 H   0  0  0  0  0  0  0  0  0  0  0  0
    3.0893   -3.7841    5.4419 H   0  0  0  0  0  0  0  0  0  0  0  0
    4.3410   -4.8485    4.7803 H   0  0  0  0  0  0  0  0  0  0  0  0
    4.7866   -3.4853    5.8197 H   0  0  0  0  0  0  0  0  0  0  0  0
    3.2940    0.7574    4.8151 H   0  0  0  0  0  0  0  0  0  0  0  0
    3.2206    2.6969    3.3094 H   0  0  0  0  0  0  0  0  0  0  0  0
    1.3146    2.0656    1.7795 H   0  0  0  0  0  0  0  0  0  0  0  0
   -0.4714    1.2139    3.1289 H   0  0  0  0  0  0  0  0  0  0  0  0
   -2.6394    0.0177    3.3207 H   0  0  0  0  0  0  0  0  0  0  0  0
    6.8531    3.0182    0.9258 H   0  0  0  0  0  0  0  0  0  0  0  0
    8.9203    3.1234   -0.2220 H   0  0  0  0  0  0  0  0  0  0  0  0
   12.2111    2.1550   -7.1593 H   0  0  0  0  0  0  0  0  0  0  0  0
   14.0471    2.4093   -5.5242 H   0  0  0  0  0  0  0  0  0  0  0  0
   13.5747    2.8138   -3.1547 H   0  0  0  0  0  0  0  0  0  0  0  0
  1  2  2  0  0  0  0
  2  3  1  0  0  0  0
  3  4  2  0  0  0  0
  3  5  1  0  0  0  0
  5  6  2  0  0  0  0
  6  7  1  0  0  0  0
  7  8  2  0  0  0  0
  8  9  1  0  0  0  0
  9 10  2  0  0  0  0
 10 11  1  0  0  0  0
 11 12  2  0  0  0  0
 12 13  1  0  0  0  0
 13 14  3  0  0  0  0
 12 15  1  0  0  0  0
 15 16  3  0  0  0  0
  8 17  1  0  0  0  0
 17 18  1  0  0  0  0
 18 19  1  0  0  0  0
 19 20  2  0  0  0  0
 20 21  1  0  0  0  0
 21 22  1  0  0  0  0
 21 23  1  0  0  0  0
  1 24  1  0  0  0  0
 24 25  1  0  0  0  0
 25 26  1  0  0  0  0
 26 27  1  0  0  0  0
 27 28  2  0  0  0  0
 28 29  1  0  0  0  0
 29 30  1  0  0  0  0
 30 31  1  0  0  0  0
 29 32  1  0  0  0  0
 32 33  2  0  0  0  0
 33 34  1  0  0  0  0
 34 35  2  0  0  0  0
 35 36  1  0  0  0  0
 36 37  1  0  0  0  0
 37 38  1  0  0  0  0
 35 39  1  0  0  0  0
 39 40  2  0  0  0  0
 29 41  1  0  0  0  0
 41 42  2  0  0  0  0
 42 43  1  0  0  0  0
 43 44  2  0  0  0  0
 44 45  1  0  0  0  0
 45 46  1  0  0  0  0
 46 47  1  0  0  0  0
 44 48  1  0  0  0  0
 48 49  2  0  0  0  0
 28 50  1  0  0  0  0
 50 51  2  0  0  0  0
 51 52  1  0  0  0  0
 52 53  2  0  0  0  0
 53 54  1  0  0  0  0
 54 55  2  0  0  0  0
 55 56  1  0  0  0  0
 56 57  2  0  0  0  0
 57 58  1  0  0  0  0
 58 59  1  0  0  0  0
 59 60  2  0  0  0  0
 60 61  1  0  0  0  0
 61 62  2  0  0  0  0
 62 63  1  0  0  0  0
 63 64  1  0  0  0  0
 64 65  1  0  0  0  0
 62 66  1  0  0  0  0
 66 67  2  0  0  0  0
 58 68  1  0  0  0  0
 68 69  2  0  0  0  0
 69 70  1  0  0  0  0
 70 71  2  0  0  0  0
 71 72  1  0  0  0  0
 72 73  1  0  0  0  0
 73 74  1  0  0  0  0
 71 75  1  0  0  0  0
 75 76  2  0  0  0  0
 58 77  1  0  0  0  0
 77 78  2  0  0  0  0
 78 79  1  0  0  0  0
 79 80  2  0  0  0  0
 80 81  1  0  0  0  0
 81 82  2  0  0  0  0
 57 83  1  0  0  0  0
 83 84  2  0  0  0  0
 84 85  1  0  0  0  0
 84 86  1  0  0  0  0
 86 87  2  0  0  0  0
 87 88  1  0  0  0  0
 88 89  2  0  0  0  0
 88 90  1  0  0  0  0
 90 91  2  0  0  0  0
 91 92  1  0  0  0  0
 91 93  1  0  0  0  0
 93 94  2  0  0  0  0
 94 95  1  0  0  0  0
 95 96  2  0  0  0  0
 96 97  1  0  0  0  0
 97 98  2  0  0  0  0
 98 99  1  0  0  0  0
 99100  3  0  0  0  0
 98101  1  0  0  0  0
101102  3  0  0  0  0
 11  2  1  0  0  0  0
 23 17  1  0  0  0  0
 31 24  2  0  0  0  0
 40 32  1  0  0  0  0
 49 41  1  0  0  0  0
 80 50  1  0  0  0  0
 97 87  1  0  0  0  0
 10  5  1  0  0  0  0
 22 18  1  0  0  0  0
 30 26  2  0  0  0  0
 78 52  1  0  0  0  0
 96 90  1  0  0  0  0
 23  7  1  0  0  0  0
 82 27  1  0  0  0  0
 77 55  1  0  0  0  0
 85 56  1  0  0  0  0
 67 59  1  0  0  0  0
 76 68  1  0  0  0  0
  1103  1  0  0  0  0
  6104  1  0  0  0  0
  9105  1  0  0  0  0
 17106  1  0  0  0  0
 18107  1  0  0  0  0
 19108  1  0  0  0  0
 20109  1  0  0  0  0
 21110  1  0  0  0  0
 22111  1  0  0  0  0
 22112  1  0  0  0  0
 23113  1  0  0  0  0
 31114  1  0  0  0  0
 33115  1  0  0  0  0
 34116  1  0  0  0  0
 37117  1  0  0  0  0
 37118  1  0  0  0  0
 38119  1  0  0  0  0
 38120  1  0  0  0  0
 38121  1  0  0  0  0
 39122  1  0  0  0  0
 40123  1  0  0  0  0
 42124  1  0  0  0  0
 43125  1  0  0  0  0
 46126  1  0  0  0  0
 46127  1  0  0  0  0
 47128  1  0  0  0  0
 47129  1  0  0  0  0
 47130  1  0  0  0  0
 48131  1  0  0  0  0
 49132  1  0  0  0  0
 51133  1  0  0  0  0
 53134  1  0  0  0  0
 54135  1  0  0  0  0
 60136  1  0  0  0  0
 61137  1  0  0  0  0
 64138  1  0  0  0  0
 64139  1  0  0  0  0
 65140  1  0  0  0  0
 65141  1  0  0  0  0
 65142  1  0  0  0  0
 66143  1  0  0  0  0
 67144  1  0  0  0  0
 69145  1  0  0  0  0
 70146  1  0  0  0  0
 73147  1  0  0  0  0
 73148  1  0  0  0  0
 74149  1  0  0  0  0
 74150  1  0  0  0  0
 74151  1  0  0  0  0
 75152  1  0  0  0  0
 76153  1  0  0  0  0
 79154  1  0  0  0  0
 81155  1  0  0  0  0
 82156  1  0  0  0  0
 83157  1  0  0  0  0
 86158  1  0  0  0  0
 93159  1  0  0  0  0
 94160  1  0  0  0  0
 95161  1  0  0  0  0
M  END
