
  xtb     02022201513D
 energy: -235.965013011154 gnorm: 0.000352002505 xtb: 6.4.1 (unknown)
136153  0     0  0            999 V2000
    5.7990   -2.7769   -3.1909 C   0  0  0  0  0  0  0  0  0  0  0  0
    5.2605   -4.0300   -3.3362 C   0  0  0  0  0  0  0  0  0  0  0  0
    4.0282   -4.5167   -2.7123 C   0  0  0  0  0  0  0  0  0  0  0  0
    3.3151   -3.9295   -1.9139 O   0  0  0  0  0  0  0  0  0  0  0  0
    3.8030   -5.8719   -3.2388 C   0  0  0  0  0  0  0  0  0  0  0  0
    2.7394   -6.7202   -2.9388 C   0  0  0  0  0  0  0  0  0  0  0  0
    2.7849   -7.9258   -3.5959 C   0  0  0  0  0  0  0  0  0  0  0  0
    3.8127   -8.2624   -4.4865 C   0  0  0  0  0  0  0  0  0  0  0  0
    4.8723   -7.4378   -4.7838 C   0  0  0  0  0  0  0  0  0  0  0  0
    4.8472   -6.2047   -4.1251 C   0  0  0  0  0  0  0  0  0  0  0  0
    5.7871   -5.0844   -4.1795 C   0  0  0  0  0  0  0  0  0  0  0  0
    6.9592   -5.0647   -4.8918 C   0  0  0  0  0  0  0  0  0  0  0  0
    7.9008   -4.0137   -4.9105 C   0  0  0  0  0  0  0  0  0  0  0  0
    8.7301   -3.2210   -4.9784 N   0  0  0  0  0  0  0  0  0  0  0  0
    7.4112   -6.1211   -5.7100 C   0  0  0  0  0  0  0  0  0  0  0  0
    7.8390   -6.9347   -6.3984 N   0  0  0  0  0  0  0  0  0  0  0  0
    3.2135   -9.6129   -4.7922 C   0  0  0  0  0  0  0  0  0  0  0  0
    2.4640   -9.7477   -6.1349 C   0  0  0  0  0  0  0  0  0  0  0  0
    1.6025  -10.9754   -5.9456 C   0  0  0  0  0  0  0  0  0  0  0  0
    0.6316  -10.6605   -5.0978 C   0  0  0  0  0  0  0  0  0  0  0  0
    0.8202   -9.2143   -4.7002 C   0  0  0  0  0  0  0  0  0  0  0  0
    1.3955   -8.6542   -6.0073 C   0  0  0  0  0  0  0  0  0  0  0  0
    2.0700   -9.2392   -3.7951 C   0  0  0  0  0  0  0  0  0  0  0  0
    5.3538   -1.6779   -2.4465 C   0  0  0  0  0  0  0  0  0  0  0  0
    6.0295   -0.4450   -2.4712 C   0  0  0  0  0  0  0  0  0  0  0  0
    7.2012   -0.1858   -3.3211 C   0  0  0  0  0  0  0  0  0  0  0  0
    7.0192   -0.1338   -4.7003 C   0  0  0  0  0  0  0  0  0  0  0  0
    8.0862    0.1134   -5.5413 C   0  0  0  0  0  0  0  0  0  0  0  0
    9.3479    0.3049   -5.0065 C   0  0  0  0  0  0  0  0  0  0  0  0
    9.5322    0.2470   -3.6378 C   0  0  0  0  0  0  0  0  0  0  0  0
    8.4718    0.0051   -2.7753 C   0  0  0  0  0  0  0  0  0  0  0  0
    8.7182   -0.1402   -1.3006 C   0  0  0  0  0  0  0  0  0  0  0  0
    8.8426   -1.6188   -0.9257 C   0  0  0  0  0  0  0  0  0  0  0  0
    5.4080    0.4968   -1.6593 C   0  0  0  0  0  0  0  0  0  0  0  0
    5.7186    2.1941   -1.3363 S   0  0  0  0  0  0  0  0  0  0  0  0
    4.2866    2.2406   -0.3617 C   0  0  0  0  0  0  0  0  0  0  0  0
    3.5241    3.1616    0.3747 C   0  0  0  0  0  0  0  0  0  0  0  0
    3.7308    4.5179    0.7164 C   0  0  0  0  0  0  0  0  0  0  0  0
    2.7467    5.1962    1.5150 C   0  0  0  0  0  0  0  0  0  0  0  0
    3.0949    6.4418    1.7931 N   0  0  0  0  0  0  0  0  0  0  0  0
    4.5320    6.7405    1.1099 S   0  0  0  0  0  0  0  0  0  0  0  0
    4.7655    5.2907    0.4289 N   0  0  0  0  0  0  0  0  0  0  0  0
    1.5354    4.5335    1.8229 C   0  0  0  0  0  0  0  0  0  0  0  0
    0.3195    5.0018    2.3391 C   0  0  0  0  0  0  0  0  0  0  0  0
   -0.3621    6.4687    2.9576 S   0  0  0  0  0  0  0  0  0  0  0  0
   -1.9280    5.6801    3.0050 C   0  0  0  0  0  0  0  0  0  0  0  0
   -3.1918    6.1223    3.3674 C   0  0  0  0  0  0  0  0  0  0  0  0
   -3.4892    7.4946    3.8040 C   0  0  0  0  0  0  0  0  0  0  0  0
   -3.8514    7.7916    5.1197 C   0  0  0  0  0  0  0  0  0  0  0  0
   -3.8534    6.7401    6.1922 C   0  0  0  0  0  0  0  0  0  0  0  0
   -2.4469    6.5869    6.7753 C   0  0  0  0  0  0  0  0  0  0  0  0
   -4.1265    9.1123    5.4476 C   0  0  0  0  0  0  0  0  0  0  0  0
   -4.0477   10.1182    4.5031 C   0  0  0  0  0  0  0  0  0  0  0  0
   -3.6696    9.8194    3.2051 C   0  0  0  0  0  0  0  0  0  0  0  0
   -3.3882    8.5122    2.8597 C   0  0  0  0  0  0  0  0  0  0  0  0
   -4.1639    5.1176    3.1979 C   0  0  0  0  0  0  0  0  0  0  0  0
   -3.4636    3.6123    2.6070 S   0  0  0  0  0  0  0  0  0  0  0  0
   -1.8994    4.3372    2.5843 C   0  0  0  0  0  0  0  0  0  0  0  0
   -0.6083    3.9564    2.2145 C   0  0  0  0  0  0  0  0  0  0  0  0
    0.0005    2.8547    1.6754 N   0  0  0  0  0  0  0  0  0  0  0  0
    1.3185    3.1790    1.4365 C   0  0  0  0  0  0  0  0  0  0  0  0
    2.3784    2.4552    0.8402 C   0  0  0  0  0  0  0  0  0  0  0  0
    2.4844    1.1286    0.4675 N   0  0  0  0  0  0  0  0  0  0  0  0
    3.6264    1.0077   -0.2815 C   0  0  0  0  0  0  0  0  0  0  0  0
    4.2616    0.0034   -1.0136 C   0  0  0  0  0  0  0  0  0  0  0  0
    3.9437   -1.6476   -1.3923 S   0  0  0  0  0  0  0  0  0  0  0  0
    1.9627   -0.0357    1.1528 C   0  0  0  0  0  0  0  0  0  0  0  0
    3.0125   -0.6431    2.0831 C   0  0  0  0  0  0  0  0  0  0  0  0
   -0.7941    1.7599    1.1623 C   0  0  0  0  0  0  0  0  0  0  0  0
   -1.3172    0.8524    2.2755 C   0  0  0  0  0  0  0  0  0  0  0  0
   -5.5182    5.3469    3.4518 C   0  0  0  0  0  0  0  0  0  0  0  0
   -6.6063    4.5194    3.2966 C   0  0  0  0  0  0  0  0  0  0  0  0
   -6.5841    3.1707    2.7295 C   0  0  0  0  0  0  0  0  0  0  0  0
   -5.6077    2.5054    2.4208 O   0  0  0  0  0  0  0  0  0  0  0  0
   -7.9909    2.7613    2.5863 C   0  0  0  0  0  0  0  0  0  0  0  0
   -8.4971    1.6098    2.0583 C   0  0  0  0  0  0  0  0  0  0  0  0
   -9.8983    1.4399    1.9966 C   0  0  0  0  0  0  0  0  0  0  0  0
  -10.4770    0.2744    1.4551 C   0  0  0  0  0  0  0  0  0  0  0  0
  -11.8348    0.1252    1.3938 C   0  0  0  0  0  0  0  0  0  0  0  0
  -12.6516    1.1539    1.8812 C   0  0  0  0  0  0  0  0  0  0  0  0
  -13.9858    0.9898    1.8116 F   0  0  0  0  0  0  0  0  0  0  0  0
  -12.1419    2.3038    2.4175 C   0  0  0  0  0  0  0  0  0  0  0  0
  -10.7459    2.4744    2.4882 C   0  0  0  0  0  0  0  0  0  0  0  0
  -10.1895    3.6544    3.0372 C   0  0  0  0  0  0  0  0  0  0  0  0
   -8.8292    3.7968    3.0875 C   0  0  0  0  0  0  0  0  0  0  0  0
   -7.9787    4.8763    3.5868 C   0  0  0  0  0  0  0  0  0  0  0  0
   -8.4239    5.9852    4.2615 C   0  0  0  0  0  0  0  0  0  0  0  0
   -7.6084    6.9757    4.8460 C   0  0  0  0  0  0  0  0  0  0  0  0
   -7.0218    7.8092    5.3768 N   0  0  0  0  0  0  0  0  0  0  0  0
   -9.7846    6.2600    4.5089 C   0  0  0  0  0  0  0  0  0  0  0  0
  -10.8741    6.5424    4.7366 N   0  0  0  0  0  0  0  0  0  0  0  0
    6.7052   -2.5662   -3.7462 H   0  0  0  0  0  0  0  0  0  0  0  0
    1.9695   -6.4194   -2.2454 H   0  0  0  0  0  0  0  0  0  0  0  0
    5.6567   -7.7167   -5.4669 H   0  0  0  0  0  0  0  0  0  0  0  0
    3.8414  -10.4729   -4.5677 H   0  0  0  0  0  0  0  0  0  0  0  0
    3.1003   -9.7268   -7.0153 H   0  0  0  0  0  0  0  0  0  0  0  0
    1.8136  -11.9305   -6.3895 H   0  0  0  0  0  0  0  0  0  0  0  0
   -0.1302  -11.2999   -4.6918 H   0  0  0  0  0  0  0  0  0  0  0  0
   -0.0416   -8.7078   -4.2736 H   0  0  0  0  0  0  0  0  0  0  0  0
    0.6739   -8.6872   -6.8219 H   0  0  0  0  0  0  0  0  0  0  0  0
    1.7990   -7.6472   -5.9191 H   0  0  0  0  0  0  0  0  0  0  0  0
    1.9382   -9.8484   -2.9029 H   0  0  0  0  0  0  0  0  0  0  0  0
    6.0280   -0.2828   -5.1059 H   0  0  0  0  0  0  0  0  0  0  0  0
    7.9331    0.1503   -6.6091 H   0  0  0  0  0  0  0  0  0  0  0  0
   10.1891    0.4912   -5.6566 H   0  0  0  0  0  0  0  0  0  0  0  0
   10.5208    0.3855   -3.2244 H   0  0  0  0  0  0  0  0  0  0  0  0
    9.6433    0.3751   -1.0366 H   0  0  0  0  0  0  0  0  0  0  0  0
    7.9060    0.3115   -0.7290 H   0  0  0  0  0  0  0  0  0  0  0  0
    9.6277   -2.0905   -1.5123 H   0  0  0  0  0  0  0  0  0  0  0  0
    9.0834   -1.7240    0.1297 H   0  0  0  0  0  0  0  0  0  0  0  0
    7.9105   -2.1446   -1.1215 H   0  0  0  0  0  0  0  0  0  0  0  0
   -4.1824    5.7785    5.7954 H   0  0  0  0  0  0  0  0  0  0  0  0
   -4.5470    7.0340    6.9811 H   0  0  0  0  0  0  0  0  0  0  0  0
   -2.1029    7.5329    7.1867 H   0  0  0  0  0  0  0  0  0  0  0  0
   -2.4429    5.8408    7.5666 H   0  0  0  0  0  0  0  0  0  0  0  0
   -1.7465    6.2773    6.0022 H   0  0  0  0  0  0  0  0  0  0  0  0
   -4.4157    9.3484    6.4603 H   0  0  0  0  0  0  0  0  0  0  0  0
   -4.2766   11.1364    4.7794 H   0  0  0  0  0  0  0  0  0  0  0  0
   -3.5964   10.5998    2.4627 H   0  0  0  0  0  0  0  0  0  0  0  0
   -3.0988    8.2650    1.8483 H   0  0  0  0  0  0  0  0  0  0  0  0
    1.6630   -0.7751    0.4038 H   0  0  0  0  0  0  0  0  0  0  0  0
    1.1039    0.2544    1.7477 H   0  0  0  0  0  0  0  0  0  0  0  0
    3.8690   -1.0046    1.5217 H   0  0  0  0  0  0  0  0  0  0  0  0
    3.3529    0.0980    2.8037 H   0  0  0  0  0  0  0  0  0  0  0  0
    2.5772   -1.4807    2.6210 H   0  0  0  0  0  0  0  0  0  0  0  0
   -1.6546    2.1919    0.6393 H   0  0  0  0  0  0  0  0  0  0  0  0
   -0.2037    1.2077    0.4308 H   0  0  0  0  0  0  0  0  0  0  0  0
   -1.7775   -0.0298    1.8402 H   0  0  0  0  0  0  0  0  0  0  0  0
   -0.5220    0.5389    2.9486 H   0  0  0  0  0  0  0  0  0  0  0  0
   -2.0682    1.3738    2.8618 H   0  0  0  0  0  0  0  0  0  0  0  0
   -5.7170    6.3528    3.8044 H   0  0  0  0  0  0  0  0  0  0  0  0
   -7.8374    0.8391    1.6883 H   0  0  0  0  0  0  0  0  0  0  0  0
   -9.8264   -0.5041    1.0856 H   0  0  0  0  0  0  0  0  0  0  0  0
  -12.2937   -0.7594    0.9815 H   0  0  0  0  0  0  0  0  0  0  0  0
  -12.8016    3.0747    2.7842 H   0  0  0  0  0  0  0  0  0  0  0  0
  -10.8593    4.4182    3.3980 H   0  0  0  0  0  0  0  0  0  0  0  0
  1  2  2  0  0  0  0
  2  3  1  0  0  0  0
  3  4  2  0  0  0  0
  3  5  1  0  0  0  0
  5  6  2  0  0  0  0
  6  7  1  0  0  0  0
  7  8  2  0  0  0  0
  8  9  1  0  0  0  0
  9 10  2  0  0  0  0
 10 11  1  0  0  0  0
 11 12  2  0  0  0  0
 12 13  1  0  0  0  0
 13 14  3  0  0  0  0
 12 15  1  0  0  0  0
 15 16  3  0  0  0  0
  8 17  1  0  0  0  0
 17 18  1  0  0  0  0
 18 19  1  0  0  0  0
 19 20  2  0  0  0  0
 20 21  1  0  0  0  0
 21 22  1  0  0  0  0
 21 23  1  0  0  0  0
  1 24  1  0  0  0  0
 24 25  2  0  0  0  0
 25 26  1  0  0  0  0
 26 27  2  0  0  0  0
 27 28  1  0  0  0  0
 28 29  2  0  0  0  0
 29 30  1  0  0  0  0
 30 31  2  0  0  0  0
 31 32  1  0  0  0  0
 32 33  1  0  0  0  0
 25 34  1  0  0  0  0
 34 35  1  0  0  0  0
 35 36  1  0  0  0  0
 36 37  1  0  0  0  0
 37 38  1  0  0  0  0
 38 39  1  0  0  0  0
 39 40  2  0  0  0  0
 40 41  1  0  0  0  0
 41 42  1  0  0  0  0
 39 43  1  0  0  0  0
 43 44  1  0  0  0  0
 44 45  1  0  0  0  0
 45 46  1  0  0  0  0
 46 47  1  0  0  0  0
 47 48  1  0  0  0  0
 48 49  2  0  0  0  0
 49 50  1  0  0  0  0
 50 51  1  0  0  0  0
 49 52  1  0  0  0  0
 52 53  2  0  0  0  0
 53 54  1  0  0  0  0
 54 55  2  0  0  0  0
 47 56  2  0  0  0  0
 56 57  1  0  0  0  0
 57 58  1  0  0  0  0
 58 59  1  0  0  0  0
 59 60  1  0  0  0  0
 60 61  1  0  0  0  0
 61 62  1  0  0  0  0
 62 63  1  0  0  0  0
 63 64  1  0  0  0  0
 64 65  1  0  0  0  0
 65 66  1  0  0  0  0
 63 67  1  0  0  0  0
 67 68  1  0  0  0  0
 60 69  1  0  0  0  0
 69 70  1  0  0  0  0
 56 71  1  0  0  0  0
 71 72  2  0  0  0  0
 72 73  1  0  0  0  0
 73 74  2  0  0  0  0
 73 75  1  0  0  0  0
 75 76  2  0  0  0  0
 76 77  1  0  0  0  0
 77 78  2  0  0  0  0
 78 79  1  0  0  0  0
 79 80  2  0  0  0  0
 80 81  1  0  0  0  0
 80 82  1  0  0  0  0
 82 83  2  0  0  0  0
 83 84  1  0  0  0  0
 84 85  2  0  0  0  0
 85 86  1  0  0  0  0
 86 87  2  0  0  0  0
 87 88  1  0  0  0  0
 88 89  3  0  0  0  0
 87 90  1  0  0  0  0
 90 91  3  0  0  0  0
 11  2  1  0  0  0  0
 23 17  1  0  0  0  0
 66 24  1  0  0  0  0
 86 72  1  0  0  0  0
 10  5  1  0  0  0  0
 22 18  1  0  0  0  0
 31 26  1  0  0  0  0
 65 34  2  0  0  0  0
 85 75  1  0  0  0  0
 23  7  1  0  0  0  0
 64 36  2  0  0  0  0
 83 77  1  0  0  0  0
 62 37  2  0  0  0  0
 42 38  2  0  0  0  0
 61 43  2  0  0  0  0
 59 44  2  0  0  0  0
 58 46  2  0  0  0  0
 55 48  1  0  0  0  0
  1 92  1  0  0  0  0
  6 93  1  0  0  0  0
  9 94  1  0  0  0  0
 17 95  1  0  0  0  0
 18 96  1  0  0  0  0
 19 97  1  0  0  0  0
 20 98  1  0  0  0  0
 21 99  1  0  0  0  0
 22100  1  0  0  0  0
 22101  1  0  0  0  0
 23102  1  0  0  0  0
 27103  1  0  0  0  0
 28104  1  0  0  0  0
 29105  1  0  0  0  0
 30106  1  0  0  0  0
 32107  1  0  0  0  0
 32108  1  0  0  0  0
 33109  1  0  0  0  0
 33110  1  0  0  0  0
 33111  1  0  0  0  0
 50112  1  0  0  0  0
 50113  1  0  0  0  0
 51114  1  0  0  0  0
 51115  1  0  0  0  0
 51116  1  0  0  0  0
 52117  1  0  0  0  0
 53118  1  0  0  0  0
 54119  1  0  0  0  0
 55120  1  0  0  0  0
 67121  1  0  0  0  0
 67122  1  0  0  0  0
 68123  1  0  0  0  0
 68124  1  0  0  0  0
 68125  1  0  0  0  0
 69126  1  0  0  0  0
 69127  1  0  0  0  0
 70128  1  0  0  0  0
 70129  1  0  0  0  0
 70130  1  0  0  0  0
 71131  1  0  0  0  0
 76132  1  0  0  0  0
 78133  1  0  0  0  0
 79134  1  0  0  0  0
 82135  1  0  0  0  0
 84136  1  0  0  0  0
M  END
