
  xtb     02022202473D
 energy: -226.171609000775 gnorm: 0.000513447970 xtb: 6.4.1 (unknown)
130146  0     0  0            999 V2000
   -6.9397   -0.2217    0.7272 C   0  0  0  0  0  0  0  0  0  0  0  0
   -7.2982   -0.2752   -0.5846 C   0  0  0  0  0  0  0  0  0  0  0  0
   -8.6143   -0.8545   -0.9651 C   0  0  0  0  0  0  0  0  0  0  0  0
   -9.5526   -1.0653   -0.2300 O   0  0  0  0  0  0  0  0  0  0  0  0
   -8.5004   -1.1645   -2.4044 C   0  0  0  0  0  0  0  0  0  0  0  0
   -9.4314   -1.8250   -3.2028 C   0  0  0  0  0  0  0  0  0  0  0  0
   -9.0376   -1.9829   -4.5100 C   0  0  0  0  0  0  0  0  0  0  0  0
   -7.8000   -1.5334   -4.9907 C   0  0  0  0  0  0  0  0  0  0  0  0
   -6.8729   -0.8765   -4.2175 C   0  0  0  0  0  0  0  0  0  0  0  0
   -7.2631   -0.6903   -2.8897 C   0  0  0  0  0  0  0  0  0  0  0  0
   -6.5845    0.0170   -1.8074 C   0  0  0  0  0  0  0  0  0  0  0  0
   -5.6434    1.0006   -1.9726 C   0  0  0  0  0  0  0  0  0  0  0  0
   -5.2849    1.8932   -0.9418 C   0  0  0  0  0  0  0  0  0  0  0  0
   -5.0222    2.6721   -0.1400 N   0  0  0  0  0  0  0  0  0  0  0  0
   -5.0179    1.3036   -3.1969 C   0  0  0  0  0  0  0  0  0  0  0  0
   -4.4545    1.5773   -4.1595 N   0  0  0  0  0  0  0  0  0  0  0  0
   -8.0735   -2.0269   -6.3890 C   0  0  0  0  0  0  0  0  0  0  0  0
   -8.4689   -0.9754   -7.4549 C   0  0  0  0  0  0  0  0  0  0  0  0
   -9.1057    0.1712   -6.7090 C   0  0  0  0  0  0  0  0  0  0  0  0
  -10.2807   -0.2445   -6.2554 C   0  0  0  0  0  0  0  0  0  0  0  0
  -10.4595   -1.6794   -6.6861 C   0  0  0  0  0  0  0  0  0  0  0  0
   -9.7219   -1.6510   -8.0344 C   0  0  0  0  0  0  0  0  0  0  0  0
   -9.4561   -2.5189   -5.8562 C   0  0  0  0  0  0  0  0  0  0  0  0
   -5.6597   -0.1192    1.3131 C   0  0  0  0  0  0  0  0  0  0  0  0
   -5.4188    0.1211    2.6616 C   0  0  0  0  0  0  0  0  0  0  0  0
   -6.4605    0.3688    3.6675 C   0  0  0  0  0  0  0  0  0  0  0  0
   -6.6140   -0.5786    4.6760 C   0  0  0  0  0  0  0  0  0  0  0  0
   -7.5783   -0.4182    5.6516 C   0  0  0  0  0  0  0  0  0  0  0  0
   -8.3907    0.7023    5.6305 C   0  0  0  0  0  0  0  0  0  0  0  0
   -8.2235    1.6561    4.6432 C   0  0  0  0  0  0  0  0  0  0  0  0
   -7.2646    1.5119    3.6486 C   0  0  0  0  0  0  0  0  0  0  0  0
   -7.0434    2.6167    2.6568 C   0  0  0  0  0  0  0  0  0  0  0  0
   -5.8463    3.4728    3.0753 C   0  0  0  0  0  0  0  0  0  0  0  0
   -4.0531    0.0594    2.9613 C   0  0  0  0  0  0  0  0  0  0  0  0
   -3.1599    0.3177    4.4413 S   0  0  0  0  0  0  0  0  0  0  0  0
   -1.6949    0.0253    3.5701 C   0  0  0  0  0  0  0  0  0  0  0  0
   -0.3146   -0.0297    3.8050 C   0  0  0  0  0  0  0  0  0  0  0  0
    0.4157    0.0921    5.0071 C   0  0  0  0  0  0  0  0  0  0  0  0
    1.8356   -0.0881    4.9728 C   0  0  0  0  0  0  0  0  0  0  0  0
    2.3885    0.0101    6.1718 N   0  0  0  0  0  0  0  0  0  0  0  0
    1.2196    0.3098    7.2505 S   0  0  0  0  0  0  0  0  0  0  0  0
   -0.0362    0.3222    6.2301 N   0  0  0  0  0  0  0  0  0  0  0  0
    2.4649   -0.2956    3.7260 C   0  0  0  0  0  0  0  0  0  0  0  0
    3.8241   -0.3907    3.4000 C   0  0  0  0  0  0  0  0  0  0  0  0
    5.3639   -0.3626    4.1866 S   0  0  0  0  0  0  0  0  0  0  0  0
    6.1314   -0.4807    2.6195 C   0  0  0  0  0  0  0  0  0  0  0  0
    7.4708   -0.4946    2.2218 C   0  0  0  0  0  0  0  0  0  0  0  0
    8.6048   -0.4578    3.1539 C   0  0  0  0  0  0  0  0  0  0  0  0
    9.5053    0.6115    3.1880 C   0  0  0  0  0  0  0  0  0  0  0  0
    9.3025    1.8436    2.3544 C   0  0  0  0  0  0  0  0  0  0  0  0
    8.2417    2.7440    2.9912 C   0  0  0  0  0  0  0  0  0  0  0  0
   10.5528    0.5578    4.0985 C   0  0  0  0  0  0  0  0  0  0  0  0
   10.7149   -0.5184    4.9517 C   0  0  0  0  0  0  0  0  0  0  0  0
    9.8081   -1.5639    4.9236 C   0  0  0  0  0  0  0  0  0  0  0  0
    8.7544   -1.5281    4.0314 C   0  0  0  0  0  0  0  0  0  0  0  0
    7.5962   -0.5758    0.8354 C   0  0  0  0  0  0  0  0  0  0  0  0
    6.0265   -0.6574    0.0370 S   0  0  0  0  0  0  0  0  0  0  0  0
    5.2191   -0.5446    1.5556 C   0  0  0  0  0  0  0  0  0  0  0  0
    3.8988   -0.4902    2.0055 C   0  0  0  0  0  0  0  0  0  0  0  0
    2.6417   -0.4819    1.4635 N   0  0  0  0  0  0  0  0  0  0  0  0
    1.7328   -0.3627    2.5032 C   0  0  0  0  0  0  0  0  0  0  0  0
    0.3133   -0.3148    2.5563 C   0  0  0  0  0  0  0  0  0  0  0  0
   -0.6799   -0.4587    1.6003 N   0  0  0  0  0  0  0  0  0  0  0  0
   -1.8861   -0.2561    2.2125 C   0  0  0  0  0  0  0  0  0  0  0  0
   -3.2389   -0.2392    1.8609 C   0  0  0  0  0  0  0  0  0  0  0  0
   -4.1744   -0.4634    0.4291 S   0  0  0  0  0  0  0  0  0  0  0  0
   -0.6457   -1.0668    0.2895 C   0  0  0  0  0  0  0  0  0  0  0  0
   -0.1775   -2.5185    0.3605 C   0  0  0  0  0  0  0  0  0  0  0  0
    2.4944   -0.2180    0.0484 C   0  0  0  0  0  0  0  0  0  0  0  0
    2.0428    1.2171   -0.2091 C   0  0  0  0  0  0  0  0  0  0  0  0
    8.8118   -0.7393    0.1466 C   0  0  0  0  0  0  0  0  0  0  0  0
    9.0627   -0.7286   -1.1951 C   0  0  0  0  0  0  0  0  0  0  0  0
   10.2637   -1.4320   -1.7157 C   0  0  0  0  0  0  0  0  0  0  0  0
   11.2192   -1.8015   -1.0745 O   0  0  0  0  0  0  0  0  0  0  0  0
    9.9932   -1.6240   -3.1587 C   0  0  0  0  0  0  0  0  0  0  0  0
   10.7035   -2.3353   -4.1119 C   0  0  0  0  0  0  0  0  0  0  0  0
   12.1674   -3.1343   -3.7081 Cl  0  0  0  0  0  0  0  0  0  0  0  0
   10.2077   -2.3945   -5.4133 C   0  0  0  0  0  0  0  0  0  0  0  0
    9.0264   -1.7528   -5.7404 C   0  0  0  0  0  0  0  0  0  0  0  0
    8.3079   -1.0261   -4.7978 C   0  0  0  0  0  0  0  0  0  0  0  0
    8.7977   -0.9637   -3.5062 C   0  0  0  0  0  0  0  0  0  0  0  0
    8.2948   -0.2653   -2.3234 C   0  0  0  0  0  0  0  0  0  0  0  0
    7.4579    0.8215   -2.3408 C   0  0  0  0  0  0  0  0  0  0  0  0
    7.2852    1.6655   -1.2244 C   0  0  0  0  0  0  0  0  0  0  0  0
    7.1781    2.4042   -0.3520 N   0  0  0  0  0  0  0  0  0  0  0  0
    6.7631    1.2692   -3.4802 C   0  0  0  0  0  0  0  0  0  0  0  0
    6.1468    1.6566   -4.3681 N   0  0  0  0  0  0  0  0  0  0  0  0
   -7.7515   -0.3641    1.4359 H   0  0  0  0  0  0  0  0  0  0  0  0
  -10.3714   -2.1624   -2.7949 H   0  0  0  0  0  0  0  0  0  0  0  0
   -5.9208   -0.5378   -4.5926 H   0  0  0  0  0  0  0  0  0  0  0  0
   -7.3822   -2.7726   -6.7767 H   0  0  0  0  0  0  0  0  0  0  0  0
   -7.6738   -0.7141   -8.1479 H   0  0  0  0  0  0  0  0  0  0  0  0
   -8.6254    1.1178   -6.5441 H   0  0  0  0  0  0  0  0  0  0  0  0
  -10.9794    0.2861   -5.6354 H   0  0  0  0  0  0  0  0  0  0  0  0
  -11.4778   -2.0590   -6.6805 H   0  0  0  0  0  0  0  0  0  0  0  0
   -9.5305   -2.6413   -8.4457 H   0  0  0  0  0  0  0  0  0  0  0  0
  -10.2266   -1.0353   -8.7773 H   0  0  0  0  0  0  0  0  0  0  0  0
   -9.6712   -3.5849   -5.9012 H   0  0  0  0  0  0  0  0  0  0  0  0
   -5.9767   -1.4512    4.6797 H   0  0  0  0  0  0  0  0  0  0  0  0
   -7.6935   -1.1636    6.4238 H   0  0  0  0  0  0  0  0  0  0  0  0
   -9.1488    0.8371    6.3874 H   0  0  0  0  0  0  0  0  0  0  0  0
   -8.8488    2.5373    4.6409 H   0  0  0  0  0  0  0  0  0  0  0  0
   -6.8560    2.2193    1.6591 H   0  0  0  0  0  0  0  0  0  0  0  0
   -7.9353    3.2437    2.6072 H   0  0  0  0  0  0  0  0  0  0  0  0
   -5.6846    4.2640    2.3490 H   0  0  0  0  0  0  0  0  0  0  0  0
   -6.0168    3.9164    4.0539 H   0  0  0  0  0  0  0  0  0  0  0  0
   -4.9451    2.8667    3.1241 H   0  0  0  0  0  0  0  0  0  0  0  0
    8.9829    1.5902    1.3435 H   0  0  0  0  0  0  0  0  0  0  0  0
   10.2435    2.3915    2.2819 H   0  0  0  0  0  0  0  0  0  0  0  0
    7.2958    2.2145    3.0765 H   0  0  0  0  0  0  0  0  0  0  0  0
    8.0854    3.6249    2.3751 H   0  0  0  0  0  0  0  0  0  0  0  0
    8.5520    3.0560    3.9861 H   0  0  0  0  0  0  0  0  0  0  0  0
   11.2532    1.3797    4.1365 H   0  0  0  0  0  0  0  0  0  0  0  0
   11.5436   -0.5375    5.6436 H   0  0  0  0  0  0  0  0  0  0  0  0
    9.9200   -2.4035    5.5926 H   0  0  0  0  0  0  0  0  0  0  0  0
    8.0432   -2.3407    3.9963 H   0  0  0  0  0  0  0  0  0  0  0  0
   -1.6691   -1.0382   -0.0925 H   0  0  0  0  0  0  0  0  0  0  0  0
   -0.0361   -0.4758   -0.3935 H   0  0  0  0  0  0  0  0  0  0  0  0
   -0.1329   -2.9436   -0.6385 H   0  0  0  0  0  0  0  0  0  0  0  0
    0.8048   -2.5940    0.8212 H   0  0  0  0  0  0  0  0  0  0  0  0
   -0.8750   -3.1046    0.9547 H   0  0  0  0  0  0  0  0  0  0  0  0
    1.8246   -0.9440   -0.4108 H   0  0  0  0  0  0  0  0  0  0  0  0
    3.4803   -0.3675   -0.3986 H   0  0  0  0  0  0  0  0  0  0  0  0
    1.9253    1.3826   -1.2765 H   0  0  0  0  0  0  0  0  0  0  0  0
    2.7894    1.9131    0.1663 H   0  0  0  0  0  0  0  0  0  0  0  0
    1.0991    1.4303    0.2879 H   0  0  0  0  0  0  0  0  0  0  0  0
    9.6555   -1.0160    0.7734 H   0  0  0  0  0  0  0  0  0  0  0  0
   10.7546   -2.9474   -6.1603 H   0  0  0  0  0  0  0  0  0  0  0  0
    8.6545   -1.8170   -6.7516 H   0  0  0  0  0  0  0  0  0  0  0  0
    7.3877   -0.5373   -5.0738 H   0  0  0  0  0  0  0  0  0  0  0  0
  1  2  2  0  0  0  0
  2  3  1  0  0  0  0
  3  4  2  0  0  0  0
  3  5  1  0  0  0  0
  5  6  2  0  0  0  0
  6  7  1  0  0  0  0
  7  8  2  0  0  0  0
  8  9  1  0  0  0  0
  9 10  2  0  0  0  0
 10 11  1  0  0  0  0
 11 12  2  0  0  0  0
 12 13  1  0  0  0  0
 13 14  3  0  0  0  0
 12 15  1  0  0  0  0
 15 16  3  0  0  0  0
  8 17  1  0  0  0  0
 17 18  1  0  0  0  0
 18 19  1  0  0  0  0
 19 20  2  0  0  0  0
 20 21  1  0  0  0  0
 21 22  1  0  0  0  0
 21 23  1  0  0  0  0
  1 24  1  0  0  0  0
 24 25  2  0  0  0  0
 25 26  1  0  0  0  0
 26 27  2  0  0  0  0
 27 28  1  0  0  0  0
 28 29  2  0  0  0  0
 29 30  1  0  0  0  0
 30 31  2  0  0  0  0
 31 32  1  0  0  0  0
 32 33  1  0  0  0  0
 25 34  1  0  0  0  0
 34 35  1  0  0  0  0
 35 36  1  0  0  0  0
 36 37  1  0  0  0  0
 37 38  1  0  0  0  0
 38 39  1  0  0  0  0
 39 40  2  0  0  0  0
 40 41  1  0  0  0  0
 41 42  1  0  0  0  0
 39 43  1  0  0  0  0
 43 44  1  0  0  0  0
 44 45  1  0  0  0  0
 45 46  1  0  0  0  0
 46 47  1  0  0  0  0
 47 48  1  0  0  0  0
 48 49  2  0  0  0  0
 49 50  1  0  0  0  0
 50 51  1  0  0  0  0
 49 52  1  0  0  0  0
 52 53  2  0  0  0  0
 53 54  1  0  0  0  0
 54 55  2  0  0  0  0
 47 56  2  0  0  0  0
 56 57  1  0  0  0  0
 57 58  1  0  0  0  0
 58 59  1  0  0  0  0
 59 60  1  0  0  0  0
 60 61  1  0  0  0  0
 61 62  1  0  0  0  0
 62 63  1  0  0  0  0
 63 64  1  0  0  0  0
 64 65  1  0  0  0  0
 65 66  1  0  0  0  0
 63 67  1  0  0  0  0
 67 68  1  0  0  0  0
 60 69  1  0  0  0  0
 69 70  1  0  0  0  0
 56 71  1  0  0  0  0
 71 72  2  0  0  0  0
 72 73  1  0  0  0  0
 73 74  2  0  0  0  0
 73 75  1  0  0  0  0
 75 76  2  0  0  0  0
 76 77  1  0  0  0  0
 76 78  1  0  0  0  0
 78 79  2  0  0  0  0
 79 80  1  0  0  0  0
 80 81  2  0  0  0  0
 81 82  1  0  0  0  0
 82 83  2  0  0  0  0
 83 84  1  0  0  0  0
 84 85  3  0  0  0  0
 83 86  1  0  0  0  0
 86 87  3  0  0  0  0
 11  2  1  0  0  0  0
 23 17  1  0  0  0  0
 66 24  1  0  0  0  0
 82 72  1  0  0  0  0
 10  5  1  0  0  0  0
 22 18  1  0  0  0  0
 31 26  1  0  0  0  0
 65 34  2  0  0  0  0
 81 75  1  0  0  0  0
 23  7  1  0  0  0  0
 64 36  2  0  0  0  0
 62 37  2  0  0  0  0
 42 38  2  0  0  0  0
 61 43  2  0  0  0  0
 59 44  2  0  0  0  0
 58 46  2  0  0  0  0
 55 48  1  0  0  0  0
  1 88  1  0  0  0  0
  6 89  1  0  0  0  0
  9 90  1  0  0  0  0
 17 91  1  0  0  0  0
 18 92  1  0  0  0  0
 19 93  1  0  0  0  0
 20 94  1  0  0  0  0
 21 95  1  0  0  0  0
 22 96  1  0  0  0  0
 22 97  1  0  0  0  0
 23 98  1  0  0  0  0
 27 99  1  0  0  0  0
 28100  1  0  0  0  0
 29101  1  0  0  0  0
 30102  1  0  0  0  0
 32103  1  0  0  0  0
 32104  1  0  0  0  0
 33105  1  0  0  0  0
 33106  1  0  0  0  0
 33107  1  0  0  0  0
 50108  1  0  0  0  0
 50109  1  0  0  0  0
 51110  1  0  0  0  0
 51111  1  0  0  0  0
 51112  1  0  0  0  0
 52113  1  0  0  0  0
 53114  1  0  0  0  0
 54115  1  0  0  0  0
 55116  1  0  0  0  0
 67117  1  0  0  0  0
 67118  1  0  0  0  0
 68119  1  0  0  0  0
 68120  1  0  0  0  0
 68121  1  0  0  0  0
 69122  1  0  0  0  0
 69123  1  0  0  0  0
 70124  1  0  0  0  0
 70125  1  0  0  0  0
 70126  1  0  0  0  0
 71127  1  0  0  0  0
 78128  1  0  0  0  0
 79129  1  0  0  0  0
 80130  1  0  0  0  0
M  END
