
  xtb     02112201413D
 energy: -190.148526304152 gnorm: 0.000393350767 xtb: 6.4.1 (unknown)
107121  0     0  0            999 V2000
    2.0174   -2.2993   -5.3785 C   0  0  0  0  0  0  0  0  0  0  0  0
    2.3853   -1.0544   -5.8258 C   0  0  0  0  0  0  0  0  0  0  0  0
    2.1000    0.2231   -5.1689 C   0  0  0  0  0  0  0  0  0  0  0  0
    1.4667    0.4082   -4.1417 O   0  0  0  0  0  0  0  0  0  0  0  0
    2.7244    1.2667   -5.9977 C   0  0  0  0  0  0  0  0  0  0  0  0
    2.7228    2.6391   -5.7581 C   0  0  0  0  0  0  0  0  0  0  0  0
    3.3946    3.3720   -6.7066 C   0  0  0  0  0  0  0  0  0  0  0  0
    4.0177    2.7828   -7.8143 C   0  0  0  0  0  0  0  0  0  0  0  0
    4.0214    1.4308   -8.0648 C   0  0  0  0  0  0  0  0  0  0  0  0
    3.3472    0.6646   -7.1092 C   0  0  0  0  0  0  0  0  0  0  0  0
    3.1433   -0.7821   -7.0310 C   0  0  0  0  0  0  0  0  0  0  0  0
    3.6006   -1.6945   -7.9487 C   0  0  0  0  0  0  0  0  0  0  0  0
    4.3396   -1.3649   -9.1041 C   0  0  0  0  0  0  0  0  0  0  0  0
    4.9469   -1.1777  -10.0606 N   0  0  0  0  0  0  0  0  0  0  0  0
    3.4105   -3.0905   -7.8922 C   0  0  0  0  0  0  0  0  0  0  0  0
    3.3012   -4.2344   -7.9235 N   0  0  0  0  0  0  0  0  0  0  0  0
    4.5058    4.1075   -8.3456 C   0  0  0  0  0  0  0  0  0  0  0  0
    5.9959    4.4363   -8.1139 C   0  0  0  0  0  0  0  0  0  0  0  0
    6.0668    5.9357   -8.2924 C   0  0  0  0  0  0  0  0  0  0  0  0
    5.4758    6.4952   -7.2444 C   0  0  0  0  0  0  0  0  0  0  0  0
    4.9957    5.3832   -6.3396 C   0  0  0  0  0  0  0  0  0  0  0  0
    6.1005    4.3477   -6.5858 C   0  0  0  0  0  0  0  0  0  0  0  0
    3.8101    4.7649   -7.1106 C   0  0  0  0  0  0  0  0  0  0  0  0
    1.3271   -2.6916   -4.2265 C   0  0  0  0  0  0  0  0  0  0  0  0
    1.0809   -4.0353   -3.8988 C   0  0  0  0  0  0  0  0  0  0  0  0
    1.5189   -5.2250   -4.6890 C   0  0  0  0  0  0  0  0  0  0  0  0
    2.9584   -5.6084   -4.3383 C   0  0  0  0  0  0  0  0  0  0  0  0
    0.4210   -4.1553   -2.6824 C   0  0  0  0  0  0  0  0  0  0  0  0
   -0.1614   -5.6592   -1.6773 Se  0  0  0  0  0  2  0  0  0  0  0  0
   -0.7553   -4.3891   -0.4537 C   0  0  0  0  0  0  0  0  0  0  0  0
   -1.4156   -4.3387    0.7792 C   0  0  0  0  0  0  0  0  0  0  0  0
   -1.9739   -5.3780    1.5539 C   0  0  0  0  0  0  0  0  0  0  0  0
   -2.6885   -5.0404    2.7459 C   0  0  0  0  0  0  0  0  0  0  0  0
   -3.2006   -6.0999    3.3511 N   0  0  0  0  0  0  0  0  0  0  0  0
   -2.8117   -7.4164    2.4872 S   0  0  0  0  0  0  0  0  0  0  0  0
   -1.9743   -6.6787    1.3106 N   0  0  0  0  0  0  0  0  0  0  0  0
   -2.7115   -3.6923    3.1631 C   0  0  0  0  0  0  0  0  0  0  0  0
   -3.1912   -3.1259    4.3476 C   0  0  0  0  0  0  0  0  0  0  0  0
   -4.0662   -3.6578    5.9012 Se  0  0  0  0  0  2  0  0  0  0  0  0
   -3.8286   -1.8506    6.4387 C   0  0  0  0  0  0  0  0  0  0  0  0
   -4.1771   -1.1610    7.5905 C   0  0  0  0  0  0  0  0  0  0  0  0
   -4.8319   -1.8286    8.7551 C   0  0  0  0  0  0  0  0  0  0  0  0
   -3.7861   -2.2737    9.7802 C   0  0  0  0  0  0  0  0  0  0  0  0
   -3.7782    0.1871    7.5312 C   0  0  0  0  0  0  0  0  0  0  0  0
   -2.9684    0.5652    6.0115 S   0  0  0  0  0  0  0  0  0  0  0  0
   -3.1649   -1.0622    5.4806 C   0  0  0  0  0  0  0  0  0  0  0  0
   -2.8221   -1.7736    4.3263 C   0  0  0  0  0  0  0  0  0  0  0  0
   -2.1505   -1.4962    3.1652 N   0  0  0  0  0  0  0  0  0  0  0  0
   -2.0848   -2.6518    2.4157 C   0  0  0  0  0  0  0  0  0  0  0  0
   -1.5279   -2.9669    1.1465 C   0  0  0  0  0  0  0  0  0  0  0  0
   -0.9765   -2.2042    0.1302 N   0  0  0  0  0  0  0  0  0  0  0  0
   -0.5110   -3.0638   -0.8331 C   0  0  0  0  0  0  0  0  0  0  0  0
    0.1365   -2.9249   -2.0664 C   0  0  0  0  0  0  0  0  0  0  0  0
    0.6961   -1.5910   -3.0032 S   0  0  0  0  0  0  0  0  0  0  0  0
   -1.2747   -0.8446   -0.2681 C   0  0  0  0  0  0  0  0  0  0  0  0
   -2.6556   -0.7633   -0.9161 C   0  0  0  0  0  0  0  0  0  0  0  0
   -1.4527   -0.2388    3.0253 C   0  0  0  0  0  0  0  0  0  0  0  0
   -2.3788    0.8857    2.5630 C   0  0  0  0  0  0  0  0  0  0  0  0
   -4.0077    1.0982    8.5638 C   0  0  0  0  0  0  0  0  0  0  0  0
   -3.6992    2.4343    8.6791 C   0  0  0  0  0  0  0  0  0  0  0  0
   -3.0221    3.2606    7.6695 C   0  0  0  0  0  0  0  0  0  0  0  0
   -2.6140    2.9103    6.5749 O   0  0  0  0  0  0  0  0  0  0  0  0
   -2.9423    4.6055    8.2512 C   0  0  0  0  0  0  0  0  0  0  0  0
   -2.4703    5.8252    7.8921 C   0  0  0  0  0  0  0  0  0  0  0  0
   -2.7485    6.9793    9.1449 S   0  0  0  0  0  0  0  0  0  0  0  0
   -3.5076    5.8068   10.1591 C   0  0  0  0  0  0  0  0  0  0  0  0
   -3.5394    4.5896    9.5529 C   0  0  0  0  0  0  0  0  0  0  0  0
   -4.0145    3.2483    9.8378 C   0  0  0  0  0  0  0  0  0  0  0  0
   -4.6365    2.8843   11.0063 C   0  0  0  0  0  0  0  0  0  0  0  0
   -4.8542    3.8212   12.0367 C   0  0  0  0  0  0  0  0  0  0  0  0
   -5.0353    4.5714   12.8865 N   0  0  0  0  0  0  0  0  0  0  0  0
   -5.1186    1.6025   11.3282 C   0  0  0  0  0  0  0  0  0  0  0  0
   -5.5331    0.5795   11.6500 N   0  0  0  0  0  0  0  0  0  0  0  0
    2.3171   -3.1328   -5.9986 H   0  0  0  0  0  0  0  0  0  0  0  0
    2.2254    3.0497   -4.8933 H   0  0  0  0  0  0  0  0  0  0  0  0
    4.5021    0.9975   -8.9256 H   0  0  0  0  0  0  0  0  0  0  0  0
    4.1610    4.3755   -9.3423 H   0  0  0  0  0  0  0  0  0  0  0  0
    6.6899    3.8398   -8.6996 H   0  0  0  0  0  0  0  0  0  0  0  0
    6.4761    6.4178   -9.1606 H   0  0  0  0  0  0  0  0  0  0  0  0
    5.2928    7.5380   -7.0623 H   0  0  0  0  0  0  0  0  0  0  0  0
    4.7796    5.6504   -5.3086 H   0  0  0  0  0  0  0  0  0  0  0  0
    5.8819    3.3607   -6.1822 H   0  0  0  0  0  0  0  0  0  0  0  0
    7.0691    4.6842   -6.2196 H   0  0  0  0  0  0  0  0  0  0  0  0
    3.0000    5.4710   -7.2839 H   0  0  0  0  0  0  0  0  0  0  0  0
    1.4410   -5.0413   -5.7614 H   0  0  0  0  0  0  0  0  0  0  0  0
    0.8572   -6.0591   -4.4344 H   0  0  0  0  0  0  0  0  0  0  0  0
    3.6421   -4.7978   -4.5792 H   0  0  0  0  0  0  0  0  0  0  0  0
    3.0399   -5.8295   -3.2758 H   0  0  0  0  0  0  0  0  0  0  0  0
    3.2546   -6.4875   -4.9032 H   0  0  0  0  0  0  0  0  0  0  0  0
   -5.5567   -1.1706    9.2364 H   0  0  0  0  0  0  0  0  0  0  0  0
   -5.3627   -2.7105    8.3823 H   0  0  0  0  0  0  0  0  0  0  0  0
   -3.2392   -1.4178   10.1687 H   0  0  0  0  0  0  0  0  0  0  0  0
   -3.0782   -2.9608    9.3208 H   0  0  0  0  0  0  0  0  0  0  0  0
   -4.2736   -2.7757   10.6108 H   0  0  0  0  0  0  0  0  0  0  0  0
   -0.5112   -0.5486   -0.9916 H   0  0  0  0  0  0  0  0  0  0  0  0
   -1.2203   -0.1663    0.5750 H   0  0  0  0  0  0  0  0  0  0  0  0
   -3.4262   -1.0856   -0.2178 H   0  0  0  0  0  0  0  0  0  0  0  0
   -2.8602    0.2589   -1.2216 H   0  0  0  0  0  0  0  0  0  0  0  0
   -2.6991   -1.4022   -1.7949 H   0  0  0  0  0  0  0  0  0  0  0  0
   -0.6011   -0.3811    2.3582 H   0  0  0  0  0  0  0  0  0  0  0  0
   -1.0548    0.0261    4.0106 H   0  0  0  0  0  0  0  0  0  0  0  0
   -1.7968    1.7785    2.3524 H   0  0  0  0  0  0  0  0  0  0  0  0
   -3.0897    1.1243    3.3490 H   0  0  0  0  0  0  0  0  0  0  0  0
   -2.9362    0.6052    1.6731 H   0  0  0  0  0  0  0  0  0  0  0  0
   -4.5196    0.6637    9.4121 H   0  0  0  0  0  0  0  0  0  0  0  0
   -1.9827    6.1222    6.9855 H   0  0  0  0  0  0  0  0  0  0  0  0
   -3.8722    6.1029   11.1221 H   0  0  0  0  0  0  0  0  0  0  0  0
  1  2  2  0  0  0  0
  2  3  1  0  0  0  0
  3  4  2  0  0  0  0
  3  5  1  0  0  0  0
  5  6  2  0  0  0  0
  6  7  1  0  0  0  0
  7  8  2  0  0  0  0
  8  9  1  0  0  0  0
  9 10  2  0  0  0  0
 10 11  1  0  0  0  0
 11 12  2  0  0  0  0
 12 13  1  0  0  0  0
 13 14  3  0  0  0  0
 12 15  1  0  0  0  0
 15 16  3  0  0  0  0
  8 17  1  0  0  0  0
 17 18  1  0  0  0  0
 18 19  1  0  0  0  0
 19 20  2  0  0  0  0
 20 21  1  0  0  0  0
 21 22  1  0  0  0  0
 21 23  1  0  0  0  0
  1 24  1  0  0  0  0
 24 25  2  0  0  0  0
 25 26  1  0  0  0  0
 26 27  1  0  0  0  0
 25 28  1  0  0  0  0
 28 29  1  0  0  0  0
 29 30  1  0  0  0  0
 30 31  1  0  0  0  0
 31 32  1  0  0  0  0
 32 33  1  0  0  0  0
 33 34  2  0  0  0  0
 34 35  1  0  0  0  0
 35 36  1  0  0  0  0
 33 37  1  0  0  0  0
 37 38  1  0  0  0  0
 38 39  1  0  0  0  0
 39 40  1  0  0  0  0
 40 41  1  0  0  0  0
 41 42  1  0  0  0  0
 42 43  1  0  0  0  0
 41 44  2  0  0  0  0
 44 45  1  0  0  0  0
 45 46  1  0  0  0  0
 46 47  1  0  0  0  0
 47 48  1  0  0  0  0
 48 49  1  0  0  0  0
 49 50  1  0  0  0  0
 50 51  1  0  0  0  0
 51 52  1  0  0  0  0
 52 53  1  0  0  0  0
 53 54  1  0  0  0  0
 51 55  1  0  0  0  0
 55 56  1  0  0  0  0
 48 57  1  0  0  0  0
 57 58  1  0  0  0  0
 44 59  1  0  0  0  0
 59 60  2  0  0  0  0
 60 61  1  0  0  0  0
 61 62  2  0  0  0  0
 61 63  1  0  0  0  0
 63 64  2  0  0  0  0
 64 65  1  0  0  0  0
 65 66  1  0  0  0  0
 66 67  2  0  0  0  0
 67 68  1  0  0  0  0
 68 69  2  0  0  0  0
 69 70  1  0  0  0  0
 70 71  3  0  0  0  0
 69 72  1  0  0  0  0
 72 73  3  0  0  0  0
 11  2  1  0  0  0  0
 23 17  1  0  0  0  0
 54 24  1  0  0  0  0
 68 60  1  0  0  0  0
 10  5  1  0  0  0  0
 22 18  1  0  0  0  0
 53 28  2  0  0  0  0
 67 63  1  0  0  0  0
 23  7  1  0  0  0  0
 52 30  2  0  0  0  0
 50 31  2  0  0  0  0
 36 32  2  0  0  0  0
 49 37  2  0  0  0  0
 47 38  2  0  0  0  0
 46 40  2  0  0  0  0
  1 74  1  0  0  0  0
  6 75  1  0  0  0  0
  9 76  1  0  0  0  0
 17 77  1  0  0  0  0
 18 78  1  0  0  0  0
 19 79  1  0  0  0  0
 20 80  1  0  0  0  0
 21 81  1  0  0  0  0
 22 82  1  0  0  0  0
 22 83  1  0  0  0  0
 23 84  1  0  0  0  0
 26 85  1  0  0  0  0
 26 86  1  0  0  0  0
 27 87  1  0  0  0  0
 27 88  1  0  0  0  0
 27 89  1  0  0  0  0
 42 90  1  0  0  0  0
 42 91  1  0  0  0  0
 43 92  1  0  0  0  0
 43 93  1  0  0  0  0
 43 94  1  0  0  0  0
 55 95  1  0  0  0  0
 55 96  1  0  0  0  0
 56 97  1  0  0  0  0
 56 98  1  0  0  0  0
 56 99  1  0  0  0  0
 57100  1  0  0  0  0
 57101  1  0  0  0  0
 58102  1  0  0  0  0
 58103  1  0  0  0  0
 58104  1  0  0  0  0
 59105  1  0  0  0  0
 64106  1  0  0  0  0
 66107  1  0  0  0  0
M  END
