130

C          4.71440        4.12570        1.31530
C          5.69870        3.83480        0.40380
C          5.68290        2.73350       -0.56090
O          4.78590        1.92860       -0.75720
C          6.97260        2.78040       -1.26780
C          7.41530        1.91080       -2.26220
C          8.67260        2.19820       -2.73590
C          9.43430        3.27050       -2.25360
C          9.00930        4.13470       -1.27220
C          7.73010        3.86300       -0.77720
C          6.95320        4.54520        0.25850
C          7.36570        5.65480        0.95220
C          8.60460        6.30130        0.75800
N          9.58940        6.88360        0.65810
C          6.64480        6.33280        1.95750
N          6.15020        6.95510        2.78790
C         10.58910        2.96980       -3.17650
C         10.73280        3.87430       -4.41860
C         11.60950        3.07070       -5.35170
C         10.88780        2.05560       -5.80930
C          9.51100        2.15600       -5.19300
C          9.37310        3.68130       -5.10260
C          9.73910        1.77430       -3.71500
C          3.48320        3.50420        1.55370
C          2.61900        3.91120        2.58870
C          2.96220        4.90340        3.60210
C          4.17180        4.83710        4.29230
C          4.49770        5.80250        5.22190
C          3.63150        6.85540        5.49010
C          4.03810        7.95480        6.42400
C          4.75930        9.05190        5.63660
C          2.41070        6.89800        4.82680
C          2.07180        5.93270        3.90080
C          1.40350        3.23230        2.53820
S         -0.02260        3.27560        3.55730
C         -0.71040        2.01600        2.59020
C         -1.85640        1.21190        2.55330
C         -2.94200        1.11230        3.45200
C         -3.90790        0.07210        3.25700
N         -4.83190        0.05450        4.20440
S         -4.51670        1.25050        5.24950
N         -3.18670        1.83370        4.53430
C         -3.80480       -0.74840        2.11150
C         -4.64250       -1.76330        1.63370
S         -6.06520       -2.62290        2.11250
C         -5.97730       -3.53520        0.61720
C         -6.77950       -4.53080        0.07150
C         -7.97690       -5.06940        0.70520
C         -9.16260       -5.22610       -0.01260
C        -10.27240       -5.78350        0.58720
C        -10.23400       -6.19820        1.91320
C        -11.40800       -6.90000        2.52510
C        -11.26870       -8.40940        2.30980
C         -9.06280       -6.00440        2.63670
C         -7.94960       -5.44050        2.04850
C         -6.28840       -4.96440       -1.18120
S         -4.86360       -4.05420       -1.68300
C         -4.89590       -3.16710       -0.20420
C         -4.13440       -2.15860        0.38950
N         -3.00330       -1.44440        0.09620
C         -2.76400       -0.57930        1.14920
C         -1.71810        0.33920        1.43240
N         -0.49990        0.60070        0.83050
C          0.11100        1.60130        1.53510
C          1.32890        2.28900        1.50160
S          2.77600        2.23200        0.56230
C          0.27600       -0.18690       -0.10150
C          0.56970       -1.57900        0.45140
C         -2.51810       -1.41580       -1.26690
C         -2.78200       -0.06380       -1.92430
C         -6.81520       -6.06730       -1.85010
C         -6.48450       -6.62110       -3.06900
C         -5.48670       -6.10700       -4.00280
O         -4.75620       -5.13970       -3.86850
C         -5.52800       -7.00370       -5.17700
C         -4.78360       -6.93930       -6.33550
C         -4.99840       -7.90470       -7.31300
Cl        -4.09040       -7.85850       -8.77170
C         -5.94980       -8.90450       -7.10230
Br        -6.24350      -10.21700       -8.43290
C         -6.69890       -8.96820       -5.93270
C         -6.48650       -8.00790       -4.95840
C         -7.09820       -7.79720       -3.64460
C         -8.07030       -8.59540       -3.09550
C         -8.68130       -8.42880       -1.83540
N         -9.24160       -8.38480       -0.83280
C         -8.60860       -9.73140       -3.73630
N         -9.08840      -10.66450       -4.20240
H          4.89710        4.96850        1.97080
H          6.79650        1.09380       -2.59920
H          9.61250        4.95040       -0.91110
H         11.54030        2.75680       -2.69260
H         11.04730        4.89230       -4.20600
H         12.64640        3.28440       -5.53340
H         11.20140        1.25180       -6.44940
H          8.71270        1.60870       -5.68720
H          8.52540        4.01600       -4.50760
H          9.33640        4.15000       -6.08460
H         10.12410        0.76380       -3.59070
H          4.84580        4.01150        4.11200
H          5.44210        5.74310        5.74220
H          4.70770        7.56220        7.19160
H          3.15920        8.37610        6.91640
H          5.11240        9.83250        6.30640
H          5.60820        8.63300        5.10220
H          4.08660        9.49600        4.90670
H          1.72020        7.70290        5.03350
H          1.12780        5.98740        3.37910
H         -9.21600       -4.88640       -1.03740
H        -11.18030       -5.90730        0.01600
H        -11.45920       -6.68710        3.59490
H        -12.33260       -6.55330        2.06000
H        -10.38400       -8.78320        2.81980
H        -12.14090       -8.93110        2.69660
H        -11.16580       -8.62900        1.25030
H         -9.02050       -6.30870        3.67260
H         -7.03960       -5.31560        2.61640
H         -0.22080       -0.23310       -1.07060
H          1.21840        0.34560       -0.24900
H          1.13920       -2.15190       -0.27520
H          1.15690       -1.49820        1.36310
H         -0.34710       -2.11570        0.68460
H         -1.46250       -1.68400       -1.30700
H         -3.06620       -2.19110       -1.80740
H         -2.30470        0.74470       -1.37530
H         -3.85140        0.13180       -1.95400
H         -2.40420       -0.06920       -2.94300
H         -7.60610       -6.56270       -1.30010
H         -4.05360       -6.15840       -6.47820
H         -7.42260       -9.75810       -5.81430
