98

C          3.46290       -4.95970       -1.16590
C          4.68720       -4.34910       -1.29310
C          4.93070       -2.91680       -1.18230
O          4.10920       -2.04430       -0.91820
C          6.35840       -2.70340       -1.44650
C          7.03740       -1.48680       -1.47570
C          8.37610       -1.60270       -1.76230
C          8.99370       -2.83720       -2.00280
C          8.33400       -4.04410       -1.97930
C          6.97020       -3.95110       -1.68790
C          5.95210       -4.99790       -1.58330
C          6.18170       -6.34140       -1.72830
C          7.44350       -6.91250       -1.99860
N          8.43510       -7.45020       -2.21280
C          5.21050       -7.35970       -1.62630
N          4.48930       -8.25150       -1.55760
C         10.34740       -2.20810       -2.21960
C         11.35390       -2.31770       -1.05460
C         12.36560       -1.23340       -1.34860
C         11.78100       -0.06390       -1.12260
C         10.36410       -0.33790       -0.67200
C         10.57910       -1.65190        0.09010
C          9.65820       -0.83140       -1.95290
C          2.19620       -4.41640       -0.91040
C          1.06330       -5.23310       -0.85210
C         -0.12640       -4.57240       -0.61000
S         -1.76640       -5.18090       -0.45330
C         -2.31010       -3.56180       -0.18250
C         -3.49170       -2.86510        0.10440
C         -4.79990       -3.33000        0.36490
C         -5.80870       -2.38550        0.74580
N         -6.96940       -2.96390        1.01110
S         -6.80750       -4.56010        0.79640
N         -5.25040       -4.57460        0.35630
C         -5.49250       -1.00880        0.73360
C         -6.30400        0.11970        0.91250
C         -5.50990        1.23930        0.63340
N         -4.24050        0.84210        0.31390
C         -3.31980        1.81320       -0.22530
C         -2.65100        2.63640        0.87580
C         -4.18970       -0.53700        0.39050
C         -3.14940       -1.48140        0.19210
N         -1.78350       -1.35830       -0.00370
C         -1.28090       -2.61550       -0.22280
C         -0.02250       -3.17470       -0.45470
Se         1.74230       -2.59420       -0.62100
C         -0.84950       -0.34930        0.44480
C         -0.52650       -0.52510        1.92710
C         -6.22360        2.43660        0.71230
C         -7.56310        2.20950        1.07890
S         -7.93770        0.51470        1.31000
C         -8.36180        3.34290        1.18520
C         -7.70680        4.54090        0.94840
Se        -5.89460        4.24950        0.46250
C         -8.33450        5.80400        0.91520
C         -7.78250        7.05140        0.88150
C         -8.58090        8.18450        0.32630
O         -9.77270        8.19350        0.11120
C         -7.59020        9.22960        0.04950
C         -6.30310        8.80880        0.52410
C         -5.33120        9.73080        0.30200
S         -5.97470       11.12010       -0.49850
C         -7.59350       10.46160       -0.52680
C         -8.73320       11.20740       -1.10470
C         -6.44230        7.51850        1.16950
C         -5.55980        7.01630        2.09630
C         -5.85830        5.94490        2.95890
N         -6.08910        5.09920        3.70190
C         -4.30610        7.61660        2.31810
N         -3.26960        8.08110        2.48680
H          3.44270       -6.03650       -1.29120
H          6.52020       -0.55870       -1.28920
H          8.82540       -4.98230       -2.17430
H         10.80190       -2.38430       -3.19260
H         11.74310       -3.31730       -0.88220
H         13.35160       -1.42090       -1.73120
H         12.18100        0.92080       -1.27860
H          9.85220        0.46640       -0.15070
H         11.19380       -1.51630        0.97840
H          9.65770       -2.16460        0.36000
H          9.65200       -0.08910       -2.74880
H          1.12810       -6.29950       -0.98960
H         -2.59910        1.30880       -0.87070
H         -3.90230        2.49450       -0.86110
H         -2.18300        2.00150        1.62360
H         -3.39460        3.25160        1.38230
H         -1.90010        3.29360        0.44590
H         -1.22930        0.64880        0.26650
H          0.06600       -0.47740       -0.14740
H         -0.08100       -1.50170        2.10450
H          0.17880        0.23780        2.24400
H         -1.43120       -0.44330        2.52700
H         -9.40100        3.30690        1.46340
H         -9.41540        5.78200        0.80570
H         -4.28600        9.69440        0.53620
H         -9.63190       10.59940       -1.02950
H         -8.88930       12.14440       -0.57080
H         -8.54600       11.44770       -2.15070
