111

C          4.46390       -0.51720        3.57880
C          5.23060        0.52550        4.03730
C          5.19520        1.95250        3.65910
O          4.39470        2.53980        2.95610
C          6.37230        2.57140        4.30120
C          6.78120        3.89760        4.18570
C          7.92570        4.19390        4.88600
C          8.61750        3.23750        5.64040
C          8.22510        1.92600        5.76190
C          7.05700        1.60680        5.06400
C          6.33690        0.34040        4.95850
C          6.64100       -0.79400        5.67180
C          5.92730       -2.00930        5.64740
N          5.40390       -3.03240        5.69750
C          7.71520       -0.90380        6.57870
N          8.56520       -1.07990        7.33110
C          9.66710        4.22630        6.08060
C          9.56680        4.78610        7.52110
C          8.11060        4.71620        7.90870
C          7.45770        5.62420        7.19560
C          8.46080        6.32350        6.31190
C          9.69650        6.28870        7.22530
C          8.89640        5.29310        5.24060
C          3.33880       -0.56760        2.74290
C          2.55100        0.46610        2.19400
C          1.55400       -0.15960        1.47130
C          1.72570       -1.55610        1.60140
N          2.79860       -1.80100        2.37550
C          3.33020       -3.11660        2.64420
C          4.51420       -3.43930        1.73450
C          0.66330       -2.16940        0.91230
C          0.23780       -3.51260        0.82080
C         -0.98580       -3.81380        0.13260
N         -1.29230       -5.10000        0.18030
S         -0.14530       -5.87610        1.01340
N          0.79310       -4.59450        1.34920
C         -1.66130       -2.77570       -0.54550
C         -2.75740       -2.79790       -1.41740
S         -3.90360       -3.92900       -2.04690
C         -4.56890       -2.64820       -3.04380
C         -5.60620       -2.62840       -3.96500
C         -6.39300       -3.84660       -4.32260
C         -5.81610       -4.51860       -5.57180
C         -5.75830       -1.35270       -4.53770
S         -4.59400       -0.19140       -3.89520
C         -3.92130       -1.41090       -2.87940
C         -2.89190       -1.50450       -1.93900
N         -1.94880       -0.67460       -1.38960
C         -1.18330       -1.43290       -0.51980
C         -0.09690       -1.10940        0.32950
N          0.44360        0.10750        0.70540
C         -0.19120        1.40230        0.81210
C          0.55210        2.46930        0.01180
C         -1.58680        0.53600       -2.09700
C         -0.36340        0.30650       -2.98100
C         -6.72990       -1.06650       -5.50040
C         -7.01760        0.09430       -6.17720
C         -6.31930        1.37370       -6.03680
O         -5.37910        1.63220       -5.30230
C         -6.97890        2.30730       -6.96390
C         -6.68560        3.62970       -7.19080
C         -7.46510        4.32010       -8.12440
C         -7.37800        5.67890       -8.53920
C         -8.30680        6.00010       -9.46610
S         -9.34250        4.68320       -9.89540
C         -8.50960        3.63610       -8.78960
C         -8.80560        2.29700       -8.56050
C         -8.02800        1.62950       -7.63430
C         -8.07170        0.24990       -7.15920
C         -8.96640       -0.70250       -7.58240
C         -9.03120       -2.03610       -7.13110
N         -9.15610       -3.13520       -6.81780
C         -9.96810       -0.47410       -8.54800
N        -10.80350       -0.36040       -9.32760
H          4.78880       -1.49110        3.91600
H          6.22030        4.59970        3.58860
H          8.77420        1.20300        6.34120
H         10.69190        3.99560        5.79610
H         10.27140        4.35040        8.22440
H          7.70840        3.99630        8.59720
H          6.40070        5.81460        7.16920
H          8.15980        7.28920        5.91390
H          9.57970        6.90510        8.11550
H         10.62170        6.55190        6.71430
H          9.41790        5.75750        4.40560
H          2.73720        1.50980        2.33570
H          2.52340       -3.82920        2.45330
H          3.62490       -3.19480        3.69420
H          4.20310       -3.41590        0.69250
H          4.88790       -4.43260        1.96420
H          5.32210       -2.72360        1.87120
H         -6.33850       -4.54540       -3.48540
H         -7.44190       -3.60180       -4.49560
H         -6.39130       -5.40870       -5.80920
H         -4.78050       -4.80490       -5.40310
H         -5.85660       -3.84530       -6.42480
H         -0.17720        1.69010        1.87060
H         -1.23670        1.31540        0.51420
H          0.63030        2.19900       -1.03760
H          1.55720        2.59150        0.40570
H          0.03120        3.41970        0.09310
H         -1.40620        1.35680       -1.40790
H         -2.44530        0.80410       -2.71750
H          0.49630        0.01680       -2.38010
H         -0.56270       -0.48360       -3.70130
H         -0.12470        1.21650       -3.52440
H         -7.35110       -1.91770       -5.74260
H         -5.88020        4.11680       -6.66310
H         -6.65030        6.36910       -8.15200
H         -8.46110        6.94910       -9.94180
H         -9.61240        1.82340       -9.09410
