
  xtb     02012221143D
 energy: -192.901278391130 gnorm: 0.000395207722 xtb: 6.4.1 (unknown)
107120  0     0  0            999 V2000
   -3.0067   -1.3753    4.2433 C   0  0  0  0  0  0  0  0  0  0  0  0
   -4.1703   -2.0987    4.2556 C   0  0  0  0  0  0  0  0  0  0  0  0
   -5.0529   -2.3775    3.1132 C   0  0  0  0  0  0  0  0  0  0  0  0
   -5.0485   -1.8451    2.0197 O   0  0  0  0  0  0  0  0  0  0  0  0
   -5.9542   -3.4598    3.5485 C   0  0  0  0  0  0  0  0  0  0  0  0
   -6.8849   -4.1379    2.7649 C   0  0  0  0  0  0  0  0  0  0  0  0
   -7.5486   -5.1408    3.4301 C   0  0  0  0  0  0  0  0  0  0  0  0
   -7.3069   -5.4453    4.7763 C   0  0  0  0  0  0  0  0  0  0  0  0
   -6.3959   -4.7796    5.5619 C   0  0  0  0  0  0  0  0  0  0  0  0
   -5.7076   -3.7556    4.9038 C   0  0  0  0  0  0  0  0  0  0  0  0
   -4.6543   -2.8659    5.3879 C   0  0  0  0  0  0  0  0  0  0  0  0
   -4.2443   -2.7579    6.6927 C   0  0  0  0  0  0  0  0  0  0  0  0
   -4.7743   -3.5121    7.7600 C   0  0  0  0  0  0  0  0  0  0  0  0
   -5.1561   -4.0885    8.6769 N   0  0  0  0  0  0  0  0  0  0  0  0
   -3.2675   -1.8606    7.1708 C   0  0  0  0  0  0  0  0  0  0  0  0
   -2.4929   -1.1532    7.6409 N   0  0  0  0  0  0  0  0  0  0  0  0
   -8.3095   -6.5726    4.7844 C   0  0  0  0  0  0  0  0  0  0  0  0
   -9.6716   -6.2852    5.4501 C   0  0  0  0  0  0  0  0  0  0  0  0
  -10.5788   -7.3581    4.8920 C   0  0  0  0  0  0  0  0  0  0  0  0
  -10.8079   -7.0700    3.6173 C   0  0  0  0  0  0  0  0  0  0  0  0
  -10.0596   -5.7973    3.2920 C   0  0  0  0  0  0  0  0  0  0  0  0
  -10.1634   -5.0771    4.6425 C   0  0  0  0  0  0  0  0  0  0  0  0
   -8.5791   -6.2326    3.2833 C   0  0  0  0  0  0  0  0  0  0  0  0
   -2.3756   -0.6587    3.2130 C   0  0  0  0  0  0  0  0  0  0  0  0
   -3.1228   -0.3379    1.6475 S   0  0  0  0  0  0  0  0  0  0  0  0
   -1.7054    0.4794    1.1673 C   0  0  0  0  0  0  0  0  0  0  0  0
   -1.2327    1.1770    0.0494 C   0  0  0  0  0  0  0  0  0  0  0  0
   -1.9179    1.6224   -1.1013 C   0  0  0  0  0  0  0  0  0  0  0  0
   -1.2295    2.4785   -2.0194 C   0  0  0  0  0  0  0  0  0  0  0  0
   -2.0036    2.8875   -3.0126 N   0  0  0  0  0  0  0  0  0  0  0  0
   -3.4743    2.2406   -2.8099 S   0  0  0  0  0  0  0  0  0  0  0  0
   -3.1791    1.4202   -1.4483 N   0  0  0  0  0  0  0  0  0  0  0  0
    0.1462    2.7214   -1.8153 C   0  0  0  0  0  0  0  0  0  0  0  0
    1.0792    3.3561   -2.6452 C   0  0  0  0  0  0  0  0  0  0  0  0
    1.1367    4.1537   -4.1763 S   0  0  0  0  0  0  0  0  0  0  0  0
    2.8826    4.1799   -4.0678 C   0  0  0  0  0  0  0  0  0  0  0  0
    3.8770    4.5614   -4.9714 C   0  0  0  0  0  0  0  0  0  0  0  0
    3.5868    5.1788   -6.2988 C   0  0  0  0  0  0  0  0  0  0  0  0
    3.4681    6.6993   -6.1620 C   0  0  0  0  0  0  0  0  0  0  0  0
    5.1459    4.2629   -4.4849 C   0  0  0  0  0  0  0  0  0  0  0  0
    5.0895    3.5984   -2.8504 S   0  0  0  0  0  0  0  0  0  0  0  0
    3.3673    3.6255   -2.8739 C   0  0  0  0  0  0  0  0  0  0  0  0
    2.3348    3.1641   -2.0587 C   0  0  0  0  0  0  0  0  0  0  0  0
    2.2125    2.4781   -0.8774 N   0  0  0  0  0  0  0  0  0  0  0  0
    0.8633    2.1861   -0.7022 C   0  0  0  0  0  0  0  0  0  0  0  0
    0.1232    1.5199    0.3141 C   0  0  0  0  0  0  0  0  0  0  0  0
    0.4260    1.1037    1.5982 N   0  0  0  0  0  0  0  0  0  0  0  0
   -0.6812    0.4731    2.1319 C   0  0  0  0  0  0  0  0  0  0  0  0
   -1.0717   -0.1342    3.3308 C   0  0  0  0  0  0  0  0  0  0  0  0
   -0.3116   -0.1600    4.6233 C   0  0  0  0  0  0  0  0  0  0  0  0
   -0.7486    0.9993    5.5252 C   0  0  0  0  0  0  0  0  0  0  0  0
    1.6114    1.3858    2.3676 C   0  0  0  0  0  0  0  0  0  0  0  0
    2.5423    0.1727    2.4537 C   0  0  0  0  0  0  0  0  0  0  0  0
    3.4005    1.7819   -0.4247 C   0  0  0  0  0  0  0  0  0  0  0  0
    3.5875    0.4693   -1.1838 C   0  0  0  0  0  0  0  0  0  0  0  0
    6.3773    4.4548   -5.1420 C   0  0  0  0  0  0  0  0  0  0  0  0
    7.5661    3.8226   -4.9080 C   0  0  0  0  0  0  0  0  0  0  0  0
    8.8362    4.4428   -5.3557 C   0  0  0  0  0  0  0  0  0  0  0  0
    8.9655    5.3862   -6.1018 O   0  0  0  0  0  0  0  0  0  0  0  0
    9.8994    3.6917   -4.6478 C   0  0  0  0  0  0  0  0  0  0  0  0
   11.2600    3.9186   -4.6350 C   0  0  0  0  0  0  0  0  0  0  0  0
   12.0621    3.0780   -3.8719 C   0  0  0  0  0  0  0  0  0  0  0  0
   13.7610    3.3279   -3.8326 Cl  0  0  0  0  0  0  0  0  0  0  0  0
   11.4930    2.0316   -3.1383 C   0  0  0  0  0  0  0  0  0  0  0  0
   12.4961    1.0090   -2.1907 Cl  0  0  0  0  0  0  0  0  0  0  0  0
   10.1223    1.7983   -3.1615 C   0  0  0  0  0  0  0  0  0  0  0  0
    9.3225    2.6338   -3.9216 C   0  0  0  0  0  0  0  0  0  0  0  0
    7.8860    2.6110   -4.1879 C   0  0  0  0  0  0  0  0  0  0  0  0
    7.0757    1.5147   -4.0308 C   0  0  0  0  0  0  0  0  0  0  0  0
    5.7970    1.3978   -4.6148 C   0  0  0  0  0  0  0  0  0  0  0  0
    4.7777    1.2299   -5.1166 N   0  0  0  0  0  0  0  0  0  0  0  0
    7.4397    0.3535   -3.3230 C   0  0  0  0  0  0  0  0  0  0  0  0
    7.6531   -0.5984   -2.7171 N   0  0  0  0  0  0  0  0  0  0  0  0
   -2.4464   -1.3985    5.1678 H   0  0  0  0  0  0  0  0  0  0  0  0
   -7.0318   -3.8764    1.7288 H   0  0  0  0  0  0  0  0  0  0  0  0
   -6.2124   -5.0350    6.5921 H   0  0  0  0  0  0  0  0  0  0  0  0
   -7.9135   -7.5556    5.0326 H   0  0  0  0  0  0  0  0  0  0  0  0
   -9.6377   -6.1858    6.5315 H   0  0  0  0  0  0  0  0  0  0  0  0
  -10.9035   -8.2180    5.4480 H   0  0  0  0  0  0  0  0  0  0  0  0
  -11.3621   -7.6411    2.8957 H   0  0  0  0  0  0  0  0  0  0  0  0
  -10.3800   -5.2536    2.4074 H   0  0  0  0  0  0  0  0  0  0  0  0
   -9.5266   -4.1984    4.7266 H   0  0  0  0  0  0  0  0  0  0  0  0
  -11.1895   -4.8083    4.8878 H   0  0  0  0  0  0  0  0  0  0  0  0
   -8.3624   -6.9891    2.5312 H   0  0  0  0  0  0  0  0  0  0  0  0
    2.6418    4.7766   -6.6685 H   0  0  0  0  0  0  0  0  0  0  0  0
    4.3712    4.9290   -7.0129 H   0  0  0  0  0  0  0  0  0  0  0  0
    2.6704    6.9553   -5.4689 H   0  0  0  0  0  0  0  0  0  0  0  0
    4.3983    7.1254   -5.7928 H   0  0  0  0  0  0  0  0  0  0  0  0
    3.2431    7.1419   -7.1284 H   0  0  0  0  0  0  0  0  0  0  0  0
    0.7578   -0.0841    4.4432 H   0  0  0  0  0  0  0  0  0  0  0  0
   -0.4777   -1.1012    5.1490 H   0  0  0  0  0  0  0  0  0  0  0  0
   -0.1689    0.9928    6.4442 H   0  0  0  0  0  0  0  0  0  0  0  0
   -0.6036    1.9545    5.0238 H   0  0  0  0  0  0  0  0  0  0  0  0
   -1.7989    0.9067    5.7868 H   0  0  0  0  0  0  0  0  0  0  0  0
    2.1104    2.2510    1.9270 H   0  0  0  0  0  0  0  0  0  0  0  0
    1.2998    1.6800    3.3738 H   0  0  0  0  0  0  0  0  0  0  0  0
    3.4646    0.4443    2.9612 H   0  0  0  0  0  0  0  0  0  0  0  0
    2.0688   -0.6335    3.0076 H   0  0  0  0  0  0  0  0  0  0  0  0
    2.7803   -0.2165    1.4679 H   0  0  0  0  0  0  0  0  0  0  0  0
    3.3732    1.6009    0.6424 H   0  0  0  0  0  0  0  0  0  0  0  0
    4.2460    2.4454   -0.6272 H   0  0  0  0  0  0  0  0  0  0  0  0
    4.4965   -0.0255   -0.8525 H   0  0  0  0  0  0  0  0  0  0  0  0
    3.6685    0.6546   -2.2527 H   0  0  0  0  0  0  0  0  0  0  0  0
    2.7411   -0.1940   -1.0166 H   0  0  0  0  0  0  0  0  0  0  0  0
    6.4137    5.2454   -5.8844 H   0  0  0  0  0  0  0  0  0  0  0  0
   11.6894    4.7263   -5.2062 H   0  0  0  0  0  0  0  0  0  0  0  0
    9.7138    0.9839   -2.5854 H   0  0  0  0  0  0  0  0  0  0  0  0
  1  2  2  0  0  0  0
  2  3  1  0  0  0  0
  3  4  2  0  0  0  0
  3  5  1  0  0  0  0
  5  6  2  0  0  0  0
  6  7  1  0  0  0  0
  7  8  2  0  0  0  0
  8  9  1  0  0  0  0
  9 10  2  0  0  0  0
 10 11  1  0  0  0  0
 11 12  2  0  0  0  0
 12 13  1  0  0  0  0
 13 14  3  0  0  0  0
 12 15  1  0  0  0  0
 15 16  3  0  0  0  0
  8 17  1  0  0  0  0
 17 18  1  0  0  0  0
 18 19  1  0  0  0  0
 19 20  2  0  0  0  0
 20 21  1  0  0  0  0
 21 22  1  0  0  0  0
 21 23  1  0  0  0  0
  1 24  1  0  0  0  0
 24 25  1  0  0  0  0
 25 26  1  0  0  0  0
 26 27  1  0  0  0  0
 27 28  1  0  0  0  0
 28 29  1  0  0  0  0
 29 30  2  0  0  0  0
 30 31  1  0  0  0  0
 31 32  1  0  0  0  0
 29 33  1  0  0  0  0
 33 34  1  0  0  0  0
 34 35  1  0  0  0  0
 35 36  1  0  0  0  0
 36 37  1  0  0  0  0
 37 38  1  0  0  0  0
 38 39  1  0  0  0  0
 37 40  2  0  0  0  0
 40 41  1  0  0  0  0
 41 42  1  0  0  0  0
 42 43  1  0  0  0  0
 43 44  1  0  0  0  0
 44 45  1  0  0  0  0
 45 46  1  0  0  0  0
 46 47  1  0  0  0  0
 47 48  1  0  0  0  0
 48 49  1  0  0  0  0
 49 50  1  0  0  0  0
 50 51  1  0  0  0  0
 47 52  1  0  0  0  0
 52 53  1  0  0  0  0
 44 54  1  0  0  0  0
 54 55  1  0  0  0  0
 40 56  1  0  0  0  0
 56 57  2  0  0  0  0
 57 58  1  0  0  0  0
 58 59  2  0  0  0  0
 58 60  1  0  0  0  0
 60 61  2  0  0  0  0
 61 62  1  0  0  0  0
 62 63  1  0  0  0  0
 62 64  2  0  0  0  0
 64 65  1  0  0  0  0
 64 66  1  0  0  0  0
 66 67  2  0  0  0  0
 67 68  1  0  0  0  0
 68 69  2  0  0  0  0
 69 70  1  0  0  0  0
 70 71  3  0  0  0  0
 69 72  1  0  0  0  0
 72 73  3  0  0  0  0
 11  2  1  0  0  0  0
 23 17  1  0  0  0  0
 49 24  2  0  0  0  0
 68 57  1  0  0  0  0
 10  5  1  0  0  0  0
 22 18  1  0  0  0  0
 48 26  2  0  0  0  0
 67 60  1  0  0  0  0
 23  7  1  0  0  0  0
 46 27  2  0  0  0  0
 32 28  2  0  0  0  0
 45 33  2  0  0  0  0
 43 34  2  0  0  0  0
 42 36  2  0  0  0  0
  1 74  1  0  0  0  0
  6 75  1  0  0  0  0
  9 76  1  0  0  0  0
 17 77  1  0  0  0  0
 18 78  1  0  0  0  0
 19 79  1  0  0  0  0
 20 80  1  0  0  0  0
 21 81  1  0  0  0  0
 22 82  1  0  0  0  0
 22 83  1  0  0  0  0
 23 84  1  0  0  0  0
 38 85  1  0  0  0  0
 38 86  1  0  0  0  0
 39 87  1  0  0  0  0
 39 88  1  0  0  0  0
 39 89  1  0  0  0  0
 50 90  1  0  0  0  0
 50 91  1  0  0  0  0
 51 92  1  0  0  0  0
 51 93  1  0  0  0  0
 51 94  1  0  0  0  0
 52 95  1  0  0  0  0
 52 96  1  0  0  0  0
 53 97  1  0  0  0  0
 53 98  1  0  0  0  0
 53 99  1  0  0  0  0
 54100  1  0  0  0  0
 54101  1  0  0  0  0
 55102  1  0  0  0  0
 55103  1  0  0  0  0
 55104  1  0  0  0  0
 56105  1  0  0  0  0
 61106  1  0  0  0  0
 66107  1  0  0  0  0
M  END
