
  xtb     02112203383D
 energy: -185.981899507749 gnorm: 0.000276460897 xtb: 6.4.1 (unknown)
100114  0     0  0            999 V2000
   -2.0617    3.7086   -2.7423 C   0  0  0  0  0  0  0  0  0  0  0  0
   -1.7022    4.6072   -3.7036 C   0  0  0  0  0  0  0  0  0  0  0  0
   -0.3052    4.8084   -4.1626 C   0  0  0  0  0  0  0  0  0  0  0  0
    0.6928    4.2559   -3.7505 O   0  0  0  0  0  0  0  0  0  0  0  0
   -0.3948    5.7025   -5.3301 C   0  0  0  0  0  0  0  0  0  0  0  0
    0.6672    6.1833   -6.0922 C   0  0  0  0  0  0  0  0  0  0  0  0
    0.2872    7.0070   -7.1238 C   0  0  0  0  0  0  0  0  0  0  0  0
   -1.0537    7.3155   -7.3913 C   0  0  0  0  0  0  0  0  0  0  0  0
   -2.1118    6.8359   -6.6567 C   0  0  0  0  0  0  0  0  0  0  0  0
   -1.7462    6.0074   -5.5914 C   0  0  0  0  0  0  0  0  0  0  0  0
   -2.5777    5.3397   -4.5939 C   0  0  0  0  0  0  0  0  0  0  0  0
   -3.9383    5.4575   -4.4680 C   0  0  0  0  0  0  0  0  0  0  0  0
   -4.7605    6.2032   -5.3371 C   0  0  0  0  0  0  0  0  0  0  0  0
   -5.4862    6.7881   -6.0078 N   0  0  0  0  0  0  0  0  0  0  0  0
   -4.7005    4.8671   -3.4386 C   0  0  0  0  0  0  0  0  0  0  0  0
   -5.3806    4.4344   -2.6204 N   0  0  0  0  0  0  0  0  0  0  0  0
   -0.6990    8.1999   -8.5603 C   0  0  0  0  0  0  0  0  0  0  0  0
   -0.7515    9.7326   -8.3437 C   0  0  0  0  0  0  0  0  0  0  0  0
   -0.5150    9.9662   -6.8721 C   0  0  0  0  0  0  0  0  0  0  0  0
    0.7534    9.6764   -6.6150 C   0  0  0  0  0  0  0  0  0  0  0  0
    1.3978    9.2420   -7.9082 C   0  0  0  0  0  0  0  0  0  0  0  0
    0.6258   10.1220   -8.9042 C   0  0  0  0  0  0  0  0  0  0  0  0
    0.7946    7.8590   -8.2593 C   0  0  0  0  0  0  0  0  0  0  0  0
   -1.2036    3.1831   -1.7436 C   0  0  0  0  0  0  0  0  0  0  0  0
   -0.2386    3.8060   -0.9649 C   0  0  0  0  0  0  0  0  0  0  0  0
    0.0711    5.2688   -0.9521 C   0  0  0  0  0  0  0  0  0  0  0  0
    1.5510    5.5569   -1.2022 C   0  0  0  0  0  0  0  0  0  0  0  0
    0.3092    2.9110   -0.0342 C   0  0  0  0  0  0  0  0  0  0  0  0
   -0.2215    1.6150   -0.0851 C   0  0  0  0  0  0  0  0  0  0  0  0
   -1.4631    1.5032   -1.2745 S   0  0  0  0  0  0  0  0  0  0  0  0
    0.3788    0.7698    0.8543 C   0  0  0  0  0  0  0  0  0  0  0  0
    1.3370    1.4400    1.6224 C   0  0  0  0  0  0  0  0  0  0  0  0
    1.5342    3.1024    1.1988 S   0  0  0  0  0  0  0  0  0  0  0  0
    1.8190    0.5246    2.5675 C   0  0  0  0  0  0  0  0  0  0  0  0
    2.6898    0.7031    3.6646 C   0  0  0  0  0  0  0  0  0  0  0  0
    3.3382    1.7955    4.0367 N   0  0  0  0  0  0  0  0  0  0  0  0
    4.1291    1.4776    5.4129 S   0  0  0  0  0  0  0  0  0  0  0  0
    3.6763   -0.0667    5.5858 N   0  0  0  0  0  0  0  0  0  0  0  0
    2.8906   -0.3892    4.5705 C   0  0  0  0  0  0  0  0  0  0  0  0
    2.3098   -1.6406    4.2677 C   0  0  0  0  0  0  0  0  0  0  0  0
    2.4444   -2.8871    4.8926 C   0  0  0  0  0  0  0  0  0  0  0  0
    3.2068   -3.5741    6.2852 S   0  0  0  0  0  0  0  0  0  0  0  0
    2.6223   -5.1482    5.7867 C   0  0  0  0  0  0  0  0  0  0  0  0
    2.7461   -6.4174    6.3202 C   0  0  0  0  0  0  0  0  0  0  0  0
    2.0975   -7.3872    5.5572 C   0  0  0  0  0  0  0  0  0  0  0  0
    1.3193   -6.6898    4.1402 S   0  0  0  0  0  0  0  0  0  0  0  0
    1.8718   -5.1212    4.5935 C   0  0  0  0  0  0  0  0  0  0  0  0
    1.7713   -3.8192    4.0946 C   0  0  0  0  0  0  0  0  0  0  0  0
    1.1971   -3.1910    3.0182 N   0  0  0  0  0  0  0  0  0  0  0  0
    0.8889   -3.9910    1.8512 C   0  0  0  0  0  0  0  0  0  0  0  0
    2.0913   -4.0681    0.9128 C   0  0  0  0  0  0  0  0  0  0  0  0
    1.5072   -1.8434    3.1063 C   0  0  0  0  0  0  0  0  0  0  0  0
    1.1602   -0.7145    2.3177 C   0  0  0  0  0  0  0  0  0  0  0  0
    0.2659   -0.5271    1.2797 N   0  0  0  0  0  0  0  0  0  0  0  0
   -0.8762   -1.3135    0.8715 C   0  0  0  0  0  0  0  0  0  0  0  0
   -0.6907   -1.9239   -0.5166 C   0  0  0  0  0  0  0  0  0  0  0  0
    2.0735   -8.7471    5.8947 C   0  0  0  0  0  0  0  0  0  0  0  0
    1.4730   -9.8008    5.2625 C   0  0  0  0  0  0  0  0  0  0  0  0
    0.6783   -9.8065    4.0407 C   0  0  0  0  0  0  0  0  0  0  0  0
    0.4005   -8.8643    3.3203 O   0  0  0  0  0  0  0  0  0  0  0  0
    0.2622  -11.2182    3.8342 C   0  0  0  0  0  0  0  0  0  0  0  0
   -0.5102  -11.7629    2.8281 C   0  0  0  0  0  0  0  0  0  0  0  0
   -0.7617  -13.1307    2.8607 C   0  0  0  0  0  0  0  0  0  0  0  0
   -1.7208  -13.8419    1.6246 Cl  0  0  0  0  0  0  0  0  0  0  0  0
   -0.2442  -13.9300    3.8853 C   0  0  0  0  0  0  0  0  0  0  0  0
   -0.5703  -15.6169    3.9001 Cl  0  0  0  0  0  0  0  0  0  0  0  0
    0.5338  -13.3750    4.8970 C   0  0  0  0  0  0  0  0  0  0  0  0
    0.7795  -12.0177    4.8606 C   0  0  0  0  0  0  0  0  0  0  0  0
    1.5628  -11.1704    5.8003 C   0  0  0  0  0  0  0  0  0  0  0  0
    2.1483  -11.5304    6.7966 O   0  0  0  0  0  0  0  0  0  0  0  0
   -3.0723    3.3169   -2.7400 H   0  0  0  0  0  0  0  0  0  0  0  0
    1.6851    5.9157   -5.8549 H   0  0  0  0  0  0  0  0  0  0  0  0
   -3.1382    7.0740   -6.8811 H   0  0  0  0  0  0  0  0  0  0  0  0
   -1.1059    7.9026   -9.5247 H   0  0  0  0  0  0  0  0  0  0  0  0
   -1.6232   10.2192   -8.7727 H   0  0  0  0  0  0  0  0  0  0  0  0
   -1.2850   10.2542   -6.1805 H   0  0  0  0  0  0  0  0  0  0  0  0
    1.2555    9.6738   -5.6651 H   0  0  0  0  0  0  0  0  0  0  0  0
    2.4834    9.2823   -7.9409 H   0  0  0  0  0  0  0  0  0  0  0  0
    0.7699    9.8300   -9.9435 H   0  0  0  0  0  0  0  0  0  0  0  0
    0.8440   11.1822   -8.7861 H   0  0  0  0  0  0  0  0  0  0  0  0
    1.3650    7.3410   -9.0278 H   0  0  0  0  0  0  0  0  0  0  0  0
   -0.2020    5.6546    0.0358 H   0  0  0  0  0  0  0  0  0  0  0  0
   -0.5389    5.7822   -1.6963 H   0  0  0  0  0  0  0  0  0  0  0  0
    1.7148    6.6311   -1.2345 H   0  0  0  0  0  0  0  0  0  0  0  0
    2.1632    5.1353   -0.4096 H   0  0  0  0  0  0  0  0  0  0  0  0
    1.8593    5.1238   -2.1493 H   0  0  0  0  0  0  0  0  0  0  0  0
    3.2786   -6.6520    7.2237 H   0  0  0  0  0  0  0  0  0  0  0  0
    0.0236   -3.6032    1.3235 H   0  0  0  0  0  0  0  0  0  0  0  0
    0.6403   -4.9917    2.2133 H   0  0  0  0  0  0  0  0  0  0  0  0
    2.3748   -3.0752    0.5688 H   0  0  0  0  0  0  0  0  0  0  0  0
    1.8499   -4.6861    0.0525 H   0  0  0  0  0  0  0  0  0  0  0  0
    2.9422   -4.5089    1.4268 H   0  0  0  0  0  0  0  0  0  0  0  0
   -1.7423   -0.6426    0.8417 H   0  0  0  0  0  0  0  0  0  0  0  0
   -1.0759   -2.0675    1.6338 H   0  0  0  0  0  0  0  0  0  0  0  0
   -0.6432   -1.1359   -1.2633 H   0  0  0  0  0  0  0  0  0  0  0  0
    0.2246   -2.5055   -0.5792 H   0  0  0  0  0  0  0  0  0  0  0  0
   -1.5352   -2.5657   -0.7514 H   0  0  0  0  0  0  0  0  0  0  0  0
    2.6114   -9.0043    6.8030 H   0  0  0  0  0  0  0  0  0  0  0  0
   -0.9097  -11.1471    2.0378 H   0  0  0  0  0  0  0  0  0  0  0  0
    0.9328  -13.9907    5.6877 H   0  0  0  0  0  0  0  0  0  0  0  0
  1  2  2  0  0  0  0
  2  3  1  0  0  0  0
  3  4  2  0  0  0  0
  3  5  1  0  0  0  0
  5  6  2  0  0  0  0
  6  7  1  0  0  0  0
  7  8  2  0  0  0  0
  8  9  1  0  0  0  0
  9 10  2  0  0  0  0
 10 11  1  0  0  0  0
 11 12  2  0  0  0  0
 12 13  1  0  0  0  0
 13 14  3  0  0  0  0
 12 15  1  0  0  0  0
 15 16  3  0  0  0  0
  8 17  1  0  0  0  0
 17 18  1  0  0  0  0
 18 19  1  0  0  0  0
 19 20  2  0  0  0  0
 20 21  1  0  0  0  0
 21 22  1  0  0  0  0
 21 23  1  0  0  0  0
  1 24  1  0  0  0  0
 24 25  2  0  0  0  0
 25 26  1  0  0  0  0
 26 27  1  0  0  0  0
 25 28  1  0  0  0  0
 28 29  2  0  0  0  0
 29 30  1  0  0  0  0
 29 31  1  0  0  0  0
 31 32  2  0  0  0  0
 32 33  1  0  0  0  0
 32 34  1  0  0  0  0
 34 35  1  0  0  0  0
 35 36  2  0  0  0  0
 36 37  1  0  0  0  0
 37 38  1  0  0  0  0
 38 39  2  0  0  0  0
 39 40  1  0  0  0  0
 40 41  1  0  0  0  0
 41 42  1  0  0  0  0
 42 43  1  0  0  0  0
 43 44  1  0  0  0  0
 44 45  2  0  0  0  0
 45 46  1  0  0  0  0
 46 47  1  0  0  0  0
 47 48  1  0  0  0  0
 48 49  1  0  0  0  0
 49 50  1  0  0  0  0
 50 51  1  0  0  0  0
 49 52  1  0  0  0  0
 52 53  1  0  0  0  0
 53 54  1  0  0  0  0
 54 55  1  0  0  0  0
 55 56  1  0  0  0  0
 45 57  1  0  0  0  0
 57 58  2  0  0  0  0
 58 59  1  0  0  0  0
 59 60  2  0  0  0  0
 59 61  1  0  0  0  0
 61 62  2  0  0  0  0
 62 63  1  0  0  0  0
 63 64  1  0  0  0  0
 63 65  2  0  0  0  0
 65 66  1  0  0  0  0
 65 67  1  0  0  0  0
 67 68  2  0  0  0  0
 68 69  1  0  0  0  0
 69 70  2  0  0  0  0
 11  2  1  0  0  0  0
 23 17  1  0  0  0  0
 30 24  1  0  0  0  0
 54 31  1  0  0  0  0
 69 58  1  0  0  0  0
 10  5  1  0  0  0  0
 22 18  1  0  0  0  0
 33 28  1  0  0  0  0
 53 34  2  0  0  0  0
 68 61  1  0  0  0  0
 23  7  1  0  0  0  0
 39 35  1  0  0  0  0
 52 40  2  0  0  0  0
 48 41  2  0  0  0  0
 47 43  2  0  0  0  0
  1 71  1  0  0  0  0
  6 72  1  0  0  0  0
  9 73  1  0  0  0  0
 17 74  1  0  0  0  0
 18 75  1  0  0  0  0
 19 76  1  0  0  0  0
 20 77  1  0  0  0  0
 21 78  1  0  0  0  0
 22 79  1  0  0  0  0
 22 80  1  0  0  0  0
 23 81  1  0  0  0  0
 26 82  1  0  0  0  0
 26 83  1  0  0  0  0
 27 84  1  0  0  0  0
 27 85  1  0  0  0  0
 27 86  1  0  0  0  0
 44 87  1  0  0  0  0
 50 88  1  0  0  0  0
 50 89  1  0  0  0  0
 51 90  1  0  0  0  0
 51 91  1  0  0  0  0
 51 92  1  0  0  0  0
 55 93  1  0  0  0  0
 55 94  1  0  0  0  0
 56 95  1  0  0  0  0
 56 96  1  0  0  0  0
 56 97  1  0  0  0  0
 57 98  1  0  0  0  0
 62 99  1  0  0  0  0
 67100  1  0  0  0  0
M  END
