
  xtb     02102223383D
 energy: -174.222457595616 gnorm: 0.000204928984 xtb: 6.4.1 (unknown)
103115  0     0  0            999 V2000
   -2.4358   -3.5764    3.3616 C   0  0  0  0  0  0  0  0  0  0  0  0
   -3.5368   -2.9330    3.8407 C   0  0  0  0  0  0  0  0  0  0  0  0
   -4.3506   -3.5097    4.9382 C   0  0  0  0  0  0  0  0  0  0  0  0
   -4.2733   -4.6329    5.3869 O   0  0  0  0  0  0  0  0  0  0  0  0
   -5.2206   -2.4083    5.4010 C   0  0  0  0  0  0  0  0  0  0  0  0
   -6.0865   -2.4174    6.4919 C   0  0  0  0  0  0  0  0  0  0  0  0
   -6.7488   -1.2297    6.6933 C   0  0  0  0  0  0  0  0  0  0  0  0
   -6.5666   -0.1103    5.8703 C   0  0  0  0  0  0  0  0  0  0  0  0
   -5.7213   -0.0872    4.7870 C   0  0  0  0  0  0  0  0  0  0  0  0
   -5.0396   -1.2859    4.5655 C   0  0  0  0  0  0  0  0  0  0  0  0
   -4.0987   -1.6422    3.5055 C   0  0  0  0  0  0  0  0  0  0  0  0
   -3.9778   -0.9909    2.3023 C   0  0  0  0  0  0  0  0  0  0  0  0
   -4.6064    0.2331    1.9989 C   0  0  0  0  0  0  0  0  0  0  0  0
   -5.0764    1.2365    1.6966 N   0  0  0  0  0  0  0  0  0  0  0  0
   -3.3011   -1.5022    1.1771 C   0  0  0  0  0  0  0  0  0  0  0  0
   -2.8448   -1.8836    0.1940 N   0  0  0  0  0  0  0  0  0  0  0  0
   -7.5326    0.7320    6.6640 C   0  0  0  0  0  0  0  0  0  0  0  0
   -6.9434    1.7847    7.6348 C   0  0  0  0  0  0  0  0  0  0  0  0
   -5.5778    1.2828    8.0333 C   0  0  0  0  0  0  0  0  0  0  0  0
   -5.7477    0.2241    8.8140 C   0  0  0  0  0  0  0  0  0  0  0  0
   -7.2313   -0.0087    8.9580 C   0  0  0  0  0  0  0  0  0  0  0  0
   -7.7391    1.4412    8.9040 C   0  0  0  0  0  0  0  0  0  0  0  0
   -7.7349   -0.5139    7.5829 C   0  0  0  0  0  0  0  0  0  0  0  0
   -1.3793   -3.0158    2.5994 C   0  0  0  0  0  0  0  0  0  0  0  0
   -0.7411   -3.6345    1.5152 C   0  0  0  0  0  0  0  0  0  0  0  0
    0.0786   -2.6614    0.9548 C   0  0  0  0  0  0  0  0  0  0  0  0
   -0.0191   -1.5072    1.7485 C   0  0  0  0  0  0  0  0  0  0  0  0
   -0.9276   -1.7108    2.7330 N   0  0  0  0  0  0  0  0  0  0  0  0
   -1.0161   -0.8847    3.9156 C   0  0  0  0  0  0  0  0  0  0  0  0
   -0.2364   -1.4989    5.0759 C   0  0  0  0  0  0  0  0  0  0  0  0
    0.7816   -0.5225    1.1494 C   0  0  0  0  0  0  0  0  0  0  0  0
    0.9836    0.8348    1.4764 C   0  0  0  0  0  0  0  0  0  0  0  0
    1.7613    1.6530    0.5946 C   0  0  0  0  0  0  0  0  0  0  0  0
    1.8367    2.9112    0.9982 N   0  0  0  0  0  0  0  0  0  0  0  0
    1.0013    3.0624    2.3734 S   0  0  0  0  0  0  0  0  0  0  0  0
    0.5105    1.5193    2.5097 N   0  0  0  0  0  0  0  0  0  0  0  0
    2.3576    1.0553   -0.5344 C   0  0  0  0  0  0  0  0  0  0  0  0
    3.1915    1.6028   -1.5180 C   0  0  0  0  0  0  0  0  0  0  0  0
    3.8700    3.1289   -1.9571 S   0  0  0  0  0  0  0  0  0  0  0  0
    4.6539    2.3683   -3.3240 C   0  0  0  0  0  0  0  0  0  0  0  0
    5.4355    2.8744   -4.3770 C   0  0  0  0  0  0  0  0  0  0  0  0
    5.9542    4.2708   -4.4463 C   0  0  0  0  0  0  0  0  0  0  0  0
    6.5422    4.7502   -3.1211 C   0  0  0  0  0  0  0  0  0  0  0  0
    5.7542    1.8753   -5.2827 C   0  0  0  0  0  0  0  0  0  0  0  0
    5.1653    0.2909   -4.7743 S   0  0  0  0  0  0  0  0  0  0  0  0
    4.3957    0.9944   -3.4010 C   0  0  0  0  0  0  0  0  0  0  0  0
    3.5592    0.5569   -2.3680 C   0  0  0  0  0  0  0  0  0  0  0  0
    2.9722   -0.6092   -1.9559 N   0  0  0  0  0  0  0  0  0  0  0  0
    2.2110   -0.3322   -0.8308 C   0  0  0  0  0  0  0  0  0  0  0  0
    1.3475   -1.1176   -0.0213 C   0  0  0  0  0  0  0  0  0  0  0  0
    0.9099   -2.4339   -0.1140 N   0  0  0  0  0  0  0  0  0  0  0  0
    0.7499   -3.2762   -1.2805 C   0  0  0  0  0  0  0  0  0  0  0  0
   -0.0972   -2.5875   -2.3472 C   0  0  0  0  0  0  0  0  0  0  0  0
    3.4455   -1.8686   -2.4825 C   0  0  0  0  0  0  0  0  0  0  0  0
    4.2229   -2.6585   -1.4326 C   0  0  0  0  0  0  0  0  0  0  0  0
    6.4845    1.9097   -6.4976 C   0  0  0  0  0  0  0  0  0  0  0  0
    6.4701    2.8933   -7.4355 C   0  0  0  0  0  0  0  0  0  0  0  0
    7.5638    2.8674   -8.8099 S   0  0  0  0  0  0  0  0  0  0  0  0
    6.8281    4.3088   -9.4970 C   0  0  0  0  0  0  0  0  0  0  0  0
    7.3360    5.0301  -10.8694 S   0  0  0  0  0  0  0  0  0  0  0  0
    5.7963    4.7210   -8.7207 N   0  0  0  0  0  0  0  0  0  0  0  0
    4.9636    5.8509   -9.0863 C   0  0  0  0  0  0  0  0  0  0  0  0
    3.8825    5.4433  -10.0790 C   0  0  0  0  0  0  0  0  0  0  0  0
    5.5137    3.9879   -7.5765 C   0  0  0  0  0  0  0  0  0  0  0  0
    4.5626    4.2311   -6.8647 O   0  0  0  0  0  0  0  0  0  0  0  0
   -2.3584   -4.6321    3.5993 H   0  0  0  0  0  0  0  0  0  0  0  0
   -6.2016   -3.3005    7.1008 H   0  0  0  0  0  0  0  0  0  0  0  0
   -5.5819    0.7818    4.1653 H   0  0  0  0  0  0  0  0  0  0  0  0
   -8.3953    1.1080    6.1176 H   0  0  0  0  0  0  0  0  0  0  0  0
   -6.9923    2.8086    7.2740 H   0  0  0  0  0  0  0  0  0  0  0  0
   -4.6569    1.7012    7.6711 H   0  0  0  0  0  0  0  0  0  0  0  0
   -4.9969   -0.4193    9.2342 H   0  0  0  0  0  0  0  0  0  0  0  0
   -7.5418   -0.6166    9.8038 H   0  0  0  0  0  0  0  0  0  0  0  0
   -8.8176    1.5187    8.7739 H   0  0  0  0  0  0  0  0  0  0  0  0
   -7.4296    2.0285    9.7673 H   0  0  0  0  0  0  0  0  0  0  0  0
   -8.7309   -0.9486    7.6403 H   0  0  0  0  0  0  0  0  0  0  0  0
   -0.9497   -4.6279    1.1709 H   0  0  0  0  0  0  0  0  0  0  0  0
   -2.0588   -0.7476    4.2101 H   0  0  0  0  0  0  0  0  0  0  0  0
   -0.5944    0.0889    3.6496 H   0  0  0  0  0  0  0  0  0  0  0  0
   -0.6577   -2.4637    5.3526 H   0  0  0  0  0  0  0  0  0  0  0  0
   -0.2806   -0.8394    5.9379 H   0  0  0  0  0  0  0  0  0  0  0  0
    0.8056   -1.6399    4.7982 H   0  0  0  0  0  0  0  0  0  0  0  0
    5.1343    4.9282   -4.7497 H   0  0  0  0  0  0  0  0  0  0  0  0
    6.7206    4.3241   -5.2221 H   0  0  0  0  0  0  0  0  0  0  0  0
    5.7768    4.8269   -2.3545 H   0  0  0  0  0  0  0  0  0  0  0  0
    6.9897    5.7316   -3.2560 H   0  0  0  0  0  0  0  0  0  0  0  0
    7.3130    4.0640   -2.7765 H   0  0  0  0  0  0  0  0  0  0  0  0
    1.7161   -3.5975   -1.6689 H   0  0  0  0  0  0  0  0  0  0  0  0
    0.2286   -4.1707   -0.9337 H   0  0  0  0  0  0  0  0  0  0  0  0
   -1.0691   -2.3350   -1.9291 H   0  0  0  0  0  0  0  0  0  0  0  0
    0.3747   -1.6705   -2.6928 H   0  0  0  0  0  0  0  0  0  0  0  0
   -0.2414   -3.2508   -3.1960 H   0  0  0  0  0  0  0  0  0  0  0  0
    4.1104   -1.6264   -3.3154 H   0  0  0  0  0  0  0  0  0  0  0  0
    2.6174   -2.4472   -2.8934 H   0  0  0  0  0  0  0  0  0  0  0  0
    4.5523   -3.6061   -1.8501 H   0  0  0  0  0  0  0  0  0  0  0  0
    3.6122   -2.8523   -0.5541 H   0  0  0  0  0  0  0  0  0  0  0  0
    5.0991   -2.0953   -1.1193 H   0  0  0  0  0  0  0  0  0  0  0  0
    7.0849    1.0330   -6.7131 H   0  0  0  0  0  0  0  0  0  0  0  0
    5.6089    6.6195   -9.5179 H   0  0  0  0  0  0  0  0  0  0  0  0
    4.5114    6.2142   -8.1606 H   0  0  0  0  0  0  0  0  0  0  0  0
    4.3326    5.0683  -10.9951 H   0  0  0  0  0  0  0  0  0  0  0  0
    3.2499    4.6702   -9.6491 H   0  0  0  0  0  0  0  0  0  0  0  0
    3.2676    6.3053  -10.3201 H   0  0  0  0  0  0  0  0  0  0  0  0
  1  2  2  0  0  0  0
  2  3  1  0  0  0  0
  3  4  2  0  0  0  0
  3  5  1  0  0  0  0
  5  6  2  0  0  0  0
  6  7  1  0  0  0  0
  7  8  2  0  0  0  0
  8  9  1  0  0  0  0
  9 10  2  0  0  0  0
 10 11  1  0  0  0  0
 11 12  2  0  0  0  0
 12 13  1  0  0  0  0
 13 14  3  0  0  0  0
 12 15  1  0  0  0  0
 15 16  3  0  0  0  0
  8 17  1  0  0  0  0
 17 18  1  0  0  0  0
 18 19  1  0  0  0  0
 19 20  2  0  0  0  0
 20 21  1  0  0  0  0
 21 22  1  0  0  0  0
 21 23  1  0  0  0  0
  1 24  1  0  0  0  0
 24 25  2  0  0  0  0
 25 26  1  0  0  0  0
 26 27  2  0  0  0  0
 27 28  1  0  0  0  0
 28 29  1  0  0  0  0
 29 30  1  0  0  0  0
 27 31  1  0  0  0  0
 31 32  1  0  0  0  0
 32 33  1  0  0  0  0
 33 34  2  0  0  0  0
 34 35  1  0  0  0  0
 35 36  1  0  0  0  0
 33 37  1  0  0  0  0
 37 38  1  0  0  0  0
 38 39  1  0  0  0  0
 39 40  1  0  0  0  0
 40 41  1  0  0  0  0
 41 42  1  0  0  0  0
 42 43  1  0  0  0  0
 41 44  2  0  0  0  0
 44 45  1  0  0  0  0
 45 46  1  0  0  0  0
 46 47  1  0  0  0  0
 47 48  1  0  0  0  0
 48 49  1  0  0  0  0
 49 50  1  0  0  0  0
 50 51  1  0  0  0  0
 51 52  1  0  0  0  0
 52 53  1  0  0  0  0
 48 54  1  0  0  0  0
 54 55  1  0  0  0  0
 44 56  1  0  0  0  0
 56 57  2  0  0  0  0
 57 58  1  0  0  0  0
 58 59  1  0  0  0  0
 59 60  2  0  0  0  0
 59 61  1  0  0  0  0
 61 62  1  0  0  0  0
 62 63  1  0  0  0  0
 61 64  1  0  0  0  0
 64 65  2  0  0  0  0
 11  2  1  0  0  0  0
 23 17  1  0  0  0  0
 28 24  1  0  0  0  0
 50 31  2  0  0  0  0
 64 57  1  0  0  0  0
 10  5  1  0  0  0  0
 22 18  1  0  0  0  0
 51 26  1  0  0  0  0
 23  7  1  0  0  0  0
 36 32  2  0  0  0  0
 49 37  2  0  0  0  0
 47 38  2  0  0  0  0
 46 40  2  0  0  0  0
  1 66  1  0  0  0  0
  6 67  1  0  0  0  0
  9 68  1  0  0  0  0
 17 69  1  0  0  0  0
 18 70  1  0  0  0  0
 19 71  1  0  0  0  0
 20 72  1  0  0  0  0
 21 73  1  0  0  0  0
 22 74  1  0  0  0  0
 22 75  1  0  0  0  0
 23 76  1  0  0  0  0
 25 77  1  0  0  0  0
 29 78  1  0  0  0  0
 29 79  1  0  0  0  0
 30 80  1  0  0  0  0
 30 81  1  0  0  0  0
 30 82  1  0  0  0  0
 42 83  1  0  0  0  0
 42 84  1  0  0  0  0
 43 85  1  0  0  0  0
 43 86  1  0  0  0  0
 43 87  1  0  0  0  0
 52 88  1  0  0  0  0
 52 89  1  0  0  0  0
 53 90  1  0  0  0  0
 53 91  1  0  0  0  0
 53 92  1  0  0  0  0
 54 93  1  0  0  0  0
 54 94  1  0  0  0  0
 55 95  1  0  0  0  0
 55 96  1  0  0  0  0
 55 97  1  0  0  0  0
 56 98  1  0  0  0  0
 62 99  1  0  0  0  0
 62100  1  0  0  0  0
 63101  1  0  0  0  0
 63102  1  0  0  0  0
 63103  1  0  0  0  0
M  END
