116

C         -6.17830       -2.05980        2.98160
C         -6.72750       -2.38100        1.76460
C         -6.00700       -2.51790        0.49680
O         -4.81190       -2.36800        0.29820
C         -7.01000       -2.87990       -0.51680
C         -6.78350       -3.11360       -1.87050
C         -7.91940       -3.41520       -2.58210
C         -9.18680       -3.48130       -1.98880
C         -9.42120       -3.26120       -0.65170
C         -8.27920       -2.95010        0.09140
C         -8.13060       -2.64620        1.51510
C         -9.15730       -2.60660        2.42510
C        -10.50990       -2.86010        2.11610
N        -11.62930       -3.05220        1.94600
C         -9.03460       -2.30410        3.79680
N         -9.02570       -2.06760        4.92180
C         -9.86740       -3.81090       -3.29370
C        -10.63630       -2.67430       -4.01230
C         -9.98910       -1.38000       -3.58590
C         -8.78930       -1.32240       -4.14830
C         -8.60320       -2.57760       -4.96450
C        -10.04950       -2.81730       -5.42590
C         -8.45420       -3.74160       -3.95380
C         -4.86660       -1.72260        3.33330
C         -4.48530       -1.39050        4.64610
C         -5.36730       -1.44720        5.85040
C         -5.46750       -2.87790        6.38650
C         -3.14440       -1.03380        4.70830
S         -2.11100       -0.49780        6.02350
C         -0.81010       -0.31640        4.89650
C          0.53590        0.08860        4.87280
C          1.46780        0.41360        5.89140
C          2.84670        0.65760        5.52600
N          3.65630        0.87580        6.54250
Se         2.72820        0.80010        8.03940
N          1.22420        0.45780        7.18570
C          3.19090        0.71890        4.15130
C          4.36600        1.08880        3.47410
S          6.00870        1.50760        3.82150
C          6.28120        1.76220        2.10540
C          7.39550        2.15560        1.37520
C          8.72450        2.42020        2.00400
C          9.61760        1.17840        1.93430
C          7.11170        2.21260       -0.00100
S          5.43940        1.77570       -0.35760
C          5.14070        1.52860        1.31980
C          4.05520        1.14230        2.10710
N          2.74160        0.79990        1.90790
C          2.21160        0.50540        3.14550
C          0.93870        0.02260        3.51260
N         -0.08980       -0.47840        2.74470
C         -1.15910       -0.66710        3.58350
C         -2.48650       -1.08030        3.46810
S         -3.52350       -1.59610        2.19510
C          0.03580       -1.25110        1.52450
C         -0.03310       -2.75030        1.81260
C          2.02440        1.29730        0.75020
C          2.06240        2.82400        0.69390
C          8.06070        2.58380       -0.96050
C          7.97020        2.67490       -2.32740
C          6.79140        2.36440       -3.14360
O          5.68970        2.01020       -2.75610
C          7.19770        2.56810       -4.54160
C          6.46170        2.39880       -5.69580
C          7.05630        2.65070       -6.92800
C          6.27000        2.47060       -8.18700
C          8.39330        3.07300       -6.97840
C          9.04490        3.34610       -8.29640
C          9.12800        3.24220       -5.80730
C          8.53640        2.99170       -4.58120
C          9.04380        3.08090       -3.21390
C         10.30530        3.49340       -2.86530
C         10.80630        3.60400       -1.55240
N         11.28990        3.72390       -0.51640
C         11.29290        3.88080       -3.79460
N         12.14300        4.20670       -4.49460
H         -6.86130       -2.04430        3.81960
H         -5.78950       -3.05050       -2.28500
H        -10.40320       -3.32130       -0.21340
H        -10.40140       -4.75840       -3.32830
H        -11.71680       -2.72640       -3.91050
H        -10.43340       -0.68780       -2.89490
H         -8.03060       -0.57250       -4.02080
H         -7.83250       -2.54270       -5.73030
H        -10.20770       -3.80190       -5.86390
H        -10.40620       -2.04870       -6.10980
H         -8.06320       -4.64590       -4.41620
H         -6.36780       -1.07640        5.62200
H         -4.93320       -0.80710        6.62100
H         -5.89510       -3.54070        5.63780
H         -4.48230       -3.25010        6.65820
H         -6.10340       -2.89710        7.26680
H          8.55960        2.68160        3.05120
H          9.22930        3.25670        1.51840
H          9.79850        0.89150        0.90110
H         10.57360        1.38610        2.40620
H          9.14640        0.34440        2.44930
H          0.99820       -1.03450        1.06420
H         -0.77430       -0.96980        0.84460
H          0.13340       -3.30170        0.89170
H          0.73250       -3.03120        2.53290
H         -1.00640       -3.02750        2.20650
H          0.98460        0.98280        0.80950
H          2.48700        0.88330       -0.15080
H          3.07950        3.18490        0.57260
H          1.64560        3.24510        1.60650
H          1.47340        3.16800       -0.15150
H          9.02280        2.83240       -0.53380
H          5.43420        2.07280       -5.63180
H          5.26070        2.13440       -7.96550
H          6.21120        3.40790       -8.73940
H          6.74720        1.73670       -8.83570
H         10.07250        3.67090       -8.15890
H          9.04290        2.45030       -8.91680
H          8.50380        4.12160       -8.83760
H         10.15370        3.56690       -5.87580
