
  xtb     02022220103D
 energy: -200.661389514057 gnorm: 0.000940986818 xtb: 6.4.1 (unknown)
110123  0     0  0            999 V2000
   -3.7993   -4.8549   -0.5863 C   0  0  0  0  0  0  0  0  0  0  0  0
   -5.1313   -5.1281   -0.7617 C   0  0  0  0  0  0  0  0  0  0  0  0
   -6.2400   -4.1640   -0.7726 C   0  0  0  0  0  0  0  0  0  0  0  0
   -6.1883   -2.9665   -0.5634 O   0  0  0  0  0  0  0  0  0  0  0  0
   -7.4530   -4.9329   -1.1001 C   0  0  0  0  0  0  0  0  0  0  0  0
   -8.7408   -4.4285   -1.2656 C   0  0  0  0  0  0  0  0  0  0  0  0
   -9.6768   -5.3827   -1.5841 C   0  0  0  0  0  0  0  0  0  0  0  0
   -9.3547   -6.7390   -1.7261 C   0  0  0  0  0  0  0  0  0  0  0  0
   -8.0876   -7.2482   -1.5684 C   0  0  0  0  0  0  0  0  0  0  0  0
   -7.1179   -6.2936   -1.2443 C   0  0  0  0  0  0  0  0  0  0  0  0
   -5.6809   -6.4458   -1.0211 C   0  0  0  0  0  0  0  0  0  0  0  0
   -5.0021   -7.6389   -1.0518 C   0  0  0  0  0  0  0  0  0  0  0  0
   -5.5993   -8.8939   -1.2938 C   0  0  0  0  0  0  0  0  0  0  0  0
   -6.0067   -9.9532   -1.4697 N   0  0  0  0  0  0  0  0  0  0  0  0
   -3.6183   -7.8139   -0.8475 C   0  0  0  0  0  0  0  0  0  0  0  0
   -2.5034   -8.0522   -0.6964 N   0  0  0  0  0  0  0  0  0  0  0  0
  -10.7771   -7.1258   -2.0463 C   0  0  0  0  0  0  0  0  0  0  0  0
  -11.5851   -7.7861   -0.9090 C   0  0  0  0  0  0  0  0  0  0  0  0
  -13.0234   -7.6108   -1.3398 C   0  0  0  0  0  0  0  0  0  0  0  0
  -13.3296   -6.3263   -1.2105 C   0  0  0  0  0  0  0  0  0  0  0  0
  -12.1037   -5.6118   -0.6891 C   0  0  0  0  0  0  0  0  0  0  0  0
  -11.5070   -6.7184    0.1900 C   0  0  0  0  0  0  0  0  0  0  0  0
  -11.1357   -5.6129   -1.8911 C   0  0  0  0  0  0  0  0  0  0  0  0
   -3.1179   -3.6505   -0.3497 C   0  0  0  0  0  0  0  0  0  0  0  0
   -3.9226   -2.0937   -0.1442 S   0  0  0  0  0  0  0  0  0  0  0  0
   -2.3962   -1.3669    0.0809 C   0  0  0  0  0  0  0  0  0  0  0  0
   -1.8810   -0.0952    0.3489 C   0  0  0  0  0  0  0  0  0  0  0  0
   -2.5729    1.1063    0.6088 C   0  0  0  0  0  0  0  0  0  0  0  0
   -1.8139    2.2695    0.9397 C   0  0  0  0  0  0  0  0  0  0  0  0
   -2.5761    3.3222    1.1935 N   0  0  0  0  0  0  0  0  0  0  0  0
   -4.1249    2.8772    1.0260 S   0  0  0  0  0  0  0  0  0  0  0  0
   -3.8774    1.3301    0.6250 N   0  0  0  0  0  0  0  0  0  0  0  0
   -0.4055    2.1817    0.9257 C   0  0  0  0  0  0  0  0  0  0  0  0
    0.5382    3.1913    1.1239 C   0  0  0  0  0  0  0  0  0  0  0  0
    0.5869    4.8795    1.4900 S   0  0  0  0  0  0  0  0  0  0  0  0
    2.3342    4.8222    1.3393 C   0  0  0  0  0  0  0  0  0  0  0  0
    3.3088    5.7992    1.4562 C   0  0  0  0  0  0  0  0  0  0  0  0
    2.9884    7.2306    1.7354 C   0  0  0  0  0  0  0  0  0  0  0  0
    2.8670    8.0229    0.4304 C   0  0  0  0  0  0  0  0  0  0  0  0
    4.5943    5.2755    1.2082 C   0  0  0  0  0  0  0  0  0  0  0  0
    4.5482    3.5450    0.8545 S   0  0  0  0  0  0  0  0  0  0  0  0
    2.8337    3.5426    1.0258 C   0  0  0  0  0  0  0  0  0  0  0  0
    1.7955    2.6155    0.9136 C   0  0  0  0  0  0  0  0  0  0  0  0
    1.6565    1.2897    0.6035 N   0  0  0  0  0  0  0  0  0  0  0  0
    0.3060    0.9752    0.6191 C   0  0  0  0  0  0  0  0  0  0  0  0
   -0.4602   -0.2071    0.3855 C   0  0  0  0  0  0  0  0  0  0  0  0
   -0.1453   -1.5424    0.1857 N   0  0  0  0  0  0  0  0  0  0  0  0
   -1.3114   -2.2554   -0.0103 C   0  0  0  0  0  0  0  0  0  0  0  0
   -1.7123   -3.5757   -0.2470 C   0  0  0  0  0  0  0  0  0  0  0  0
   -0.8384   -4.7933   -0.3084 C   0  0  0  0  0  0  0  0  0  0  0  0
   -0.7351   -5.4581    1.0682 C   0  0  0  0  0  0  0  0  0  0  0  0
    1.1446   -2.1823    0.1602 C   0  0  0  0  0  0  0  0  0  0  0  0
    1.6745   -2.3255   -1.2689 C   0  0  0  0  0  0  0  0  0  0  0  0
    2.8726    0.5585    0.3233 C   0  0  0  0  0  0  0  0  0  0  0  0
    3.5584    0.0913    1.6073 C   0  0  0  0  0  0  0  0  0  0  0  0
    5.7453    6.0601    1.2257 C   0  0  0  0  0  0  0  0  0  0  0  0
    7.0600    5.7471    0.9524 C   0  0  0  0  0  0  0  0  0  0  0  0
    7.5696    4.4352    0.5614 C   0  0  0  0  0  0  0  0  0  0  0  0
    6.9537    3.3885    0.4592 O   0  0  0  0  0  0  0  0  0  0  0  0
    9.0156    4.6184    0.3092 C   0  0  0  0  0  0  0  0  0  0  0  0
    9.9415    3.6873   -0.1092 C   0  0  0  0  0  0  0  0  0  0  0  0
   11.2541    4.1179   -0.2870 C   0  0  0  0  0  0  0  0  0  0  0  0
   12.2703    3.1202   -0.7697 C   0  0  0  0  0  0  0  0  0  0  0  0
   12.0676    2.7857   -2.0588 F   0  0  0  0  0  0  0  0  0  0  0  0
   12.2211    1.9704   -0.0760 F   0  0  0  0  0  0  0  0  0  0  0  0
   13.5309    3.5625   -0.6880 F   0  0  0  0  0  0  0  0  0  0  0  0
   11.6142    5.4388   -0.0519 C   0  0  0  0  0  0  0  0  0  0  0  0
   10.6745    6.3690    0.3730 C   0  0  0  0  0  0  0  0  0  0  0  0
    9.3640    5.9575    0.5546 C   0  0  0  0  0  0  0  0  0  0  0  0
    8.1616    6.6835    0.9762 C   0  0  0  0  0  0  0  0  0  0  0  0
    8.1313    8.0093    1.3301 C   0  0  0  0  0  0  0  0  0  0  0  0
    6.9908    8.7256    1.7487 C   0  0  0  0  0  0  0  0  0  0  0  0
    6.1123    9.3781    2.0996 N   0  0  0  0  0  0  0  0  0  0  0  0
    9.2603    8.8552    1.3315 C   0  0  0  0  0  0  0  0  0  0  0  0
   10.1340    9.5996    1.3545 N   0  0  0  0  0  0  0  0  0  0  0  0
   -3.1499   -5.7160   -0.6490 H   0  0  0  0  0  0  0  0  0  0  0  0
   -8.9410   -3.3749   -1.1497 H   0  0  0  0  0  0  0  0  0  0  0  0
   -7.8585   -8.2932   -1.6915 H   0  0  0  0  0  0  0  0  0  0  0  0
  -10.9339   -7.6029   -3.0118 H   0  0  0  0  0  0  0  0  0  0  0  0
  -11.2696   -8.7937   -0.6526 H   0  0  0  0  0  0  0  0  0  0  0  0
  -13.6322   -8.4030   -1.7345 H   0  0  0  0  0  0  0  0  0  0  0  0
  -14.2453   -5.8310   -1.4757 H   0  0  0  0  0  0  0  0  0  0  0  0
  -12.2617   -4.6386   -0.2323 H   0  0  0  0  0  0  0  0  0  0  0  0
  -12.1434   -6.9564    1.0407 H   0  0  0  0  0  0  0  0  0  0  0  0
  -10.4965   -6.5122    0.5379 H   0  0  0  0  0  0  0  0  0  0  0  0
  -11.5283   -5.0798   -2.7550 H   0  0  0  0  0  0  0  0  0  0  0  0
    2.0335    7.2686    2.2633 H   0  0  0  0  0  0  0  0  0  0  0  0
    3.7485    7.6891    2.3693 H   0  0  0  0  0  0  0  0  0  0  0  0
    2.6162    9.0565    0.6504 H   0  0  0  0  0  0  0  0  0  0  0  0
    2.0866    7.5994   -0.1975 H   0  0  0  0  0  0  0  0  0  0  0  0
    3.8045    8.0054   -0.1205 H   0  0  0  0  0  0  0  0  0  0  0  0
    0.1580   -4.5342   -0.6600 H   0  0  0  0  0  0  0  0  0  0  0  0
   -1.2394   -5.5179   -1.0178 H   0  0  0  0  0  0  0  0  0  0  0  0
   -0.1048   -6.3409    1.0068 H   0  0  0  0  0  0  0  0  0  0  0  0
   -0.3136   -4.7735    1.8022 H   0  0  0  0  0  0  0  0  0  0  0  0
   -1.7181   -5.7644    1.4161 H   0  0  0  0  0  0  0  0  0  0  0  0
    1.0359   -3.1702    0.6125 H   0  0  0  0  0  0  0  0  0  0  0  0
    1.8315   -1.6237    0.7896 H   0  0  0  0  0  0  0  0  0  0  0  0
    1.6896   -1.3656   -1.7816 H   0  0  0  0  0  0  0  0  0  0  0  0
    1.0342   -2.9868   -1.8476 H   0  0  0  0  0  0  0  0  0  0  0  0
    2.6801   -2.7384   -1.2574 H   0  0  0  0  0  0  0  0  0  0  0  0
    2.6771   -0.2630   -0.3571 H   0  0  0  0  0  0  0  0  0  0  0  0
    3.5457    1.2524   -0.1904 H   0  0  0  0  0  0  0  0  0  0  0  0
    3.8799    0.9510    2.1890 H   0  0  0  0  0  0  0  0  0  0  0  0
    2.8911   -0.5050    2.2268 H   0  0  0  0  0  0  0  0  0  0  0  0
    4.4352   -0.5001    1.3603 H   0  0  0  0  0  0  0  0  0  0  0  0
    5.5536    7.0932    1.4804 H   0  0  0  0  0  0  0  0  0  0  0  0
    9.6538    2.6631   -0.2900 H   0  0  0  0  0  0  0  0  0  0  0  0
   12.6381    5.7462   -0.1996 H   0  0  0  0  0  0  0  0  0  0  0  0
   10.9802    7.3869    0.5485 H   0  0  0  0  0  0  0  0  0  0  0  0
  1  2  2  0  0  0  0
  2  3  1  0  0  0  0
  3  4  2  0  0  0  0
  3  5  1  0  0  0  0
  5  6  2  0  0  0  0
  6  7  1  0  0  0  0
  7  8  2  0  0  0  0
  8  9  1  0  0  0  0
  9 10  2  0  0  0  0
 10 11  1  0  0  0  0
 11 12  2  0  0  0  0
 12 13  1  0  0  0  0
 13 14  3  0  0  0  0
 12 15  1  0  0  0  0
 15 16  3  0  0  0  0
  8 17  1  0  0  0  0
 17 18  1  0  0  0  0
 18 19  1  0  0  0  0
 19 20  2  0  0  0  0
 20 21  1  0  0  0  0
 21 22  1  0  0  0  0
 21 23  1  0  0  0  0
  1 24  1  0  0  0  0
 24 25  1  0  0  0  0
 25 26  1  0  0  0  0
 26 27  1  0  0  0  0
 27 28  1  0  0  0  0
 28 29  1  0  0  0  0
 29 30  2  0  0  0  0
 30 31  1  0  0  0  0
 31 32  1  0  0  0  0
 29 33  1  0  0  0  0
 33 34  1  0  0  0  0
 34 35  1  0  0  0  0
 35 36  1  0  0  0  0
 36 37  1  0  0  0  0
 37 38  1  0  0  0  0
 38 39  1  0  0  0  0
 37 40  2  0  0  0  0
 40 41  1  0  0  0  0
 41 42  1  0  0  0  0
 42 43  1  0  0  0  0
 43 44  1  0  0  0  0
 44 45  1  0  0  0  0
 45 46  1  0  0  0  0
 46 47  1  0  0  0  0
 47 48  1  0  0  0  0
 48 49  1  0  0  0  0
 49 50  1  0  0  0  0
 50 51  1  0  0  0  0
 47 52  1  0  0  0  0
 52 53  1  0  0  0  0
 44 54  1  0  0  0  0
 54 55  1  0  0  0  0
 40 56  1  0  0  0  0
 56 57  2  0  0  0  0
 57 58  1  0  0  0  0
 58 59  2  0  0  0  0
 58 60  1  0  0  0  0
 60 61  2  0  0  0  0
 61 62  1  0  0  0  0
 62 63  1  0  0  0  0
 63 64  1  0  0  0  0
 63 65  1  0  0  0  0
 63 66  1  0  0  0  0
 62 67  2  0  0  0  0
 67 68  1  0  0  0  0
 68 69  2  0  0  0  0
 69 70  1  0  0  0  0
 70 71  2  0  0  0  0
 71 72  1  0  0  0  0
 72 73  3  0  0  0  0
 71 74  1  0  0  0  0
 74 75  3  0  0  0  0
 11  2  1  0  0  0  0
 23 17  1  0  0  0  0
 49 24  2  0  0  0  0
 70 57  1  0  0  0  0
 10  5  1  0  0  0  0
 22 18  1  0  0  0  0
 48 26  2  0  0  0  0
 69 60  1  0  0  0  0
 23  7  1  0  0  0  0
 46 27  2  0  0  0  0
 32 28  2  0  0  0  0
 45 33  2  0  0  0  0
 43 34  2  0  0  0  0
 42 36  2  0  0  0  0
  1 76  1  0  0  0  0
  6 77  1  0  0  0  0
  9 78  1  0  0  0  0
 17 79  1  0  0  0  0
 18 80  1  0  0  0  0
 19 81  1  0  0  0  0
 20 82  1  0  0  0  0
 21 83  1  0  0  0  0
 22 84  1  0  0  0  0
 22 85  1  0  0  0  0
 23 86  1  0  0  0  0
 38 87  1  0  0  0  0
 38 88  1  0  0  0  0
 39 89  1  0  0  0  0
 39 90  1  0  0  0  0
 39 91  1  0  0  0  0
 50 92  1  0  0  0  0
 50 93  1  0  0  0  0
 51 94  1  0  0  0  0
 51 95  1  0  0  0  0
 51 96  1  0  0  0  0
 52 97  1  0  0  0  0
 52 98  1  0  0  0  0
 53 99  1  0  0  0  0
 53100  1  0  0  0  0
 53101  1  0  0  0  0
 54102  1  0  0  0  0
 54103  1  0  0  0  0
 55104  1  0  0  0  0
 55105  1  0  0  0  0
 55106  1  0  0  0  0
 56107  1  0  0  0  0
 61108  1  0  0  0  0
 67109  1  0  0  0  0
 68110  1  0  0  0  0
M  END
