
  xtb     02022206443D
 energy: -257.369966399361 gnorm: 0.000419216104 xtb: 6.4.1 (unknown)
139155  0     0  0            999 V2000
    0.2502   -6.6523    0.9102 C   0  0  0  0  0  0  0  0  0  0  0  0
    1.3433   -7.2424    0.3289 C   0  0  0  0  0  0  0  0  0  0  0  0
    2.4441   -6.5538   -0.3516 C   0  0  0  0  0  0  0  0  0  0  0  0
    2.5314   -5.3641   -0.6078 O   0  0  0  0  0  0  0  0  0  0  0  0
    3.4512   -7.5824   -0.6579 C   0  0  0  0  0  0  0  0  0  0  0  0
    4.6934   -7.3874   -1.2565 C   0  0  0  0  0  0  0  0  0  0  0  0
    5.4327   -8.5371   -1.3965 C   0  0  0  0  0  0  0  0  0  0  0  0
    4.9711   -9.7892   -0.9693 C   0  0  0  0  0  0  0  0  0  0  0  0
    3.7477   -9.9946   -0.3764 C   0  0  0  0  0  0  0  0  0  0  0  0
    2.9770   -8.8383   -0.2280 C   0  0  0  0  0  0  0  0  0  0  0  0
    1.6472   -8.6602    0.3532 C   0  0  0  0  0  0  0  0  0  0  0  0
    0.8356   -9.6728    0.7983 C   0  0  0  0  0  0  0  0  0  0  0  0
   -0.4671   -9.5170    1.3153 C   0  0  0  0  0  0  0  0  0  0  0  0
   -1.5353   -9.4798    1.7380 N   0  0  0  0  0  0  0  0  0  0  0  0
    1.1801  -11.0405    0.7789 C   0  0  0  0  0  0  0  0  0  0  0  0
    1.3854  -12.1702    0.7964 N   0  0  0  0  0  0  0  0  0  0  0  0
    6.2251  -10.4945   -1.4206 C   0  0  0  0  0  0  0  0  0  0  0  0
    6.1625  -11.3047   -2.7389 C   0  0  0  0  0  0  0  0  0  0  0  0
    5.0793  -10.6750   -3.5791 C   0  0  0  0  0  0  0  0  0  0  0  0
    5.5177   -9.4904   -3.9837 C   0  0  0  0  0  0  0  0  0  0  0  0
    6.9053   -9.2973   -3.4236 C   0  0  0  0  0  0  0  0  0  0  0  0
    7.4102  -10.7489   -3.4441 C   0  0  0  0  0  0  0  0  0  0  0  0
    6.7398   -9.0993   -1.8964 C   0  0  0  0  0  0  0  0  0  0  0  0
   -0.1483   -5.3106    0.9633 C   0  0  0  0  0  0  0  0  0  0  0  0
   -1.2911   -4.8804    1.6582 C   0  0  0  0  0  0  0  0  0  0  0  0
   -2.2554   -5.7548    2.3912 C   0  0  0  0  0  0  0  0  0  0  0  0
   -3.2914   -6.3458    1.4312 C   0  0  0  0  0  0  0  0  0  0  0  0
   -1.4658   -3.5070    1.5437 C   0  0  0  0  0  0  0  0  0  0  0  0
   -2.6697   -2.4101    2.1953 S   0  0  0  0  0  0  0  0  0  0  0  0
   -1.8482   -1.1015    1.4229 C   0  0  0  0  0  0  0  0  0  0  0  0
   -1.9545    0.2942    1.3094 C   0  0  0  0  0  0  0  0  0  0  0  0
   -2.7912    1.2244    1.9786 C   0  0  0  0  0  0  0  0  0  0  0  0
   -3.6791    0.8198    2.8826 N   0  0  0  0  0  0  0  0  0  0  0  0
   -4.3878    1.7275    3.5357 C   0  0  0  0  0  0  0  0  0  0  0  0
   -5.1886    1.1997    4.6136 C   0  0  0  0  0  0  0  0  0  0  0  0
   -5.6975   -0.4564    4.4927 S   0  0  0  0  0  0  0  0  0  0  0  0
   -6.4249   -0.4094    6.0590 C   0  0  0  0  0  0  0  0  0  0  0  0
   -7.1150   -1.5898    6.6503 C   0  0  0  0  0  0  0  0  0  0  0  0
   -6.1741   -2.7888    6.7674 C   0  0  0  0  0  0  0  0  0  0  0  0
   -6.2351    0.8233    6.6173 C   0  0  0  0  0  0  0  0  0  0  0  0
   -5.5367    1.7452    5.8194 C   0  0  0  0  0  0  0  0  0  0  0  0
   -6.6887    1.1405    7.8450 F   0  0  0  0  0  0  0  0  0  0  0  0
   -4.2925    3.1067    3.1862 C   0  0  0  0  0  0  0  0  0  0  0  0
   -5.1946    4.1446    3.6333 C   0  0  0  0  0  0  0  0  0  0  0  0
   -4.9010    5.4810    3.6777 C   0  0  0  0  0  0  0  0  0  0  0  0
   -6.0133    6.2478    4.0643 C   0  0  0  0  0  0  0  0  0  0  0  0
   -5.9544    7.5848    4.1997 F   0  0  0  0  0  0  0  0  0  0  0  0
   -7.1607    5.5410    4.2857 C   0  0  0  0  0  0  0  0  0  0  0  0
   -8.4869    6.0465    4.7359 C   0  0  0  0  0  0  0  0  0  0  0  0
   -8.7873    5.6124    6.1720 C   0  0  0  0  0  0  0  0  0  0  0  0
   -6.8639    3.8568    4.0264 S   0  0  0  0  0  0  0  0  0  0  0  0
   -3.3544    3.5171    2.3458 N   0  0  0  0  0  0  0  0  0  0  0  0
   -2.5722    2.6116    1.7630 C   0  0  0  0  0  0  0  0  0  0  0  0
   -1.5873    2.9994    0.8173 C   0  0  0  0  0  0  0  0  0  0  0  0
   -1.2393    4.2605    0.3097 C   0  0  0  0  0  0  0  0  0  0  0  0
   -1.6174    5.9223    0.5879 S   0  0  0  0  0  0  0  0  0  0  0  0
   -0.5464    6.3552   -0.7315 C   0  0  0  0  0  0  0  0  0  0  0  0
   -0.1963    7.5745   -1.2888 C   0  0  0  0  0  0  0  0  0  0  0  0
   -0.7043    8.8805   -0.7724 C   0  0  0  0  0  0  0  0  0  0  0  0
    0.3023    9.5149    0.1920 C   0  0  0  0  0  0  0  0  0  0  0  0
    0.7116    7.4089   -2.3540 C   0  0  0  0  0  0  0  0  0  0  0  0
    1.1037    5.7097   -2.6385 S   0  0  0  0  0  0  0  0  0  0  0  0
    0.0637    5.2447   -1.3476 C   0  0  0  0  0  0  0  0  0  0  0  0
   -0.3340    4.0526   -0.7421 C   0  0  0  0  0  0  0  0  0  0  0  0
   -0.0884    2.7078   -0.8898 N   0  0  0  0  0  0  0  0  0  0  0  0
    0.3210    2.1757   -2.1747 C   0  0  0  0  0  0  0  0  0  0  0  0
   -0.6889    2.5296   -3.2657 C   0  0  0  0  0  0  0  0  0  0  0  0
   -0.8231    2.0555    0.0787 C   0  0  0  0  0  0  0  0  0  0  0  0
   -0.8959    0.6999    0.4526 C   0  0  0  0  0  0  0  0  0  0  0  0
   -0.1291   -0.3956    0.1124 N   0  0  0  0  0  0  0  0  0  0  0  0
   -0.7138   -1.4924    0.6974 C   0  0  0  0  0  0  0  0  0  0  0  0
   -0.4832   -2.8687    0.7681 C   0  0  0  0  0  0  0  0  0  0  0  0
    0.6960   -3.9761    0.1751 S   0  0  0  0  0  0  0  0  0  0  0  0
    1.2840   -0.4018   -0.2098 C   0  0  0  0  0  0  0  0  0  0  0  0
    2.1307   -0.6985    1.0274 C   0  0  0  0  0  0  0  0  0  0  0  0
    1.2060    8.4803   -3.0971 C   0  0  0  0  0  0  0  0  0  0  0  0
    2.0879    8.5211   -4.1532 C   0  0  0  0  0  0  0  0  0  0  0  0
    2.7954    7.3858   -4.7357 C   0  0  0  0  0  0  0  0  0  0  0  0
    2.6672    6.2066   -4.4629 O   0  0  0  0  0  0  0  0  0  0  0  0
    3.7394    7.9587   -5.7229 C   0  0  0  0  0  0  0  0  0  0  0  0
    4.7042    7.3115   -6.4731 C   0  0  0  0  0  0  0  0  0  0  0  0
    4.8411    5.6110   -6.4735 Cl  0  0  0  0  0  0  0  0  0  0  0  0
    5.5843    8.0924   -7.2358 C   0  0  0  0  0  0  0  0  0  0  0  0
    6.7695    7.3372   -8.2100 Cl  0  0  0  0  0  0  0  0  0  0  0  0
    5.5240    9.4827   -7.1649 C   0  0  0  0  0  0  0  0  0  0  0  0
    6.6755   10.4145   -8.0207 Cl  0  0  0  0  0  0  0  0  0  0  0  0
    4.5467   10.1337   -6.3933 C   0  0  0  0  0  0  0  0  0  0  0  0
    4.6565   11.8358   -6.2134 Cl  0  0  0  0  0  0  0  0  0  0  0  0
    3.6010    9.3619   -5.7309 C   0  0  0  0  0  0  0  0  0  0  0  0
    2.4544    9.7124   -4.8937 C   0  0  0  0  0  0  0  0  0  0  0  0
    1.7245   10.8727   -4.9613 C   0  0  0  0  0  0  0  0  0  0  0  0
    1.8303   11.8540   -5.9705 C   0  0  0  0  0  0  0  0  0  0  0  0
    1.7562   12.6449   -6.7988 N   0  0  0  0  0  0  0  0  0  0  0  0
    0.6279   11.1811   -4.1277 C   0  0  0  0  0  0  0  0  0  0  0  0
   -0.2574   11.5162   -3.4765 N   0  0  0  0  0  0  0  0  0  0  0  0
   -0.4228   -7.3167    1.4350 H   0  0  0  0  0  0  0  0  0  0  0  0
    5.0112   -6.4039   -1.5659 H   0  0  0  0  0  0  0  0  0  0  0  0
    3.4126  -10.9638   -0.0472 H   0  0  0  0  0  0  0  0  0  0  0  0
    6.7883  -11.0087   -0.6443 H   0  0  0  0  0  0  0  0  0  0  0  0
    6.1003  -12.3811   -2.6041 H   0  0  0  0  0  0  0  0  0  0  0  0
    4.1138  -11.1174   -3.7404 H   0  0  0  0  0  0  0  0  0  0  0  0
    4.9916   -8.7448   -4.5507 H   0  0  0  0  0  0  0  0  0  0  0  0
    7.5206   -8.5463   -3.9122 H   0  0  0  0  0  0  0  0  0  0  0  0
    8.3298  -10.8967   -2.8794 H   0  0  0  0  0  0  0  0  0  0  0  0
    7.5319  -11.1382   -4.4538 H   0  0  0  0  0  0  0  0  0  0  0  0
    7.6390   -8.7017   -1.4295 H   0  0  0  0  0  0  0  0  0  0  0  0
   -2.7681   -5.1433    3.1367 H   0  0  0  0  0  0  0  0  0  0  0  0
   -1.7387   -6.5639    2.9091 H   0  0  0  0  0  0  0  0  0  0  0  0
   -2.8109   -6.9741    0.6854 H   0  0  0  0  0  0  0  0  0  0  0  0
   -4.0002   -6.9549    1.9846 H   0  0  0  0  0  0  0  0  0  0  0  0
   -3.8327   -5.5509    0.9235 H   0  0  0  0  0  0  0  0  0  0  0  0
   -7.4920   -1.3109    7.6365 H   0  0  0  0  0  0  0  0  0  0  0  0
   -7.9676   -1.8637    6.0230 H   0  0  0  0  0  0  0  0  0  0  0  0
   -5.8017   -3.0702    5.7852 H   0  0  0  0  0  0  0  0  0  0  0  0
   -6.6992   -3.6364    7.1996 H   0  0  0  0  0  0  0  0  0  0  0  0
   -5.3259   -2.5449    7.4027 H   0  0  0  0  0  0  0  0  0  0  0  0
   -5.2884    2.7381    6.1446 H   0  0  0  0  0  0  0  0  0  0  0  0
   -3.9321    5.8841    3.4519 H   0  0  0  0  0  0  0  0  0  0  0  0
   -8.4799    7.1366    4.6714 H   0  0  0  0  0  0  0  0  0  0  0  0
   -9.2680    5.6653    4.0737 H   0  0  0  0  0  0  0  0  0  0  0  0
   -9.7585    5.9895    6.4808 H   0  0  0  0  0  0  0  0  0  0  0  0
   -8.0324    6.0009    6.8516 H   0  0  0  0  0  0  0  0  0  0  0  0
   -8.7944    4.5271    6.2449 H   0  0  0  0  0  0  0  0  0  0  0  0
   -1.6379    8.6949   -0.2379 H   0  0  0  0  0  0  0  0  0  0  0  0
   -0.9119    9.5710   -1.5915 H   0  0  0  0  0  0  0  0  0  0  0  0
    1.2497    9.7060   -0.3067 H   0  0  0  0  0  0  0  0  0  0  0  0
   -0.0892   10.4572    0.5645 H   0  0  0  0  0  0  0  0  0  0  0  0
    0.4835    8.8546    1.0368 H   0  0  0  0  0  0  0  0  0  0  0  0
    0.3863    1.0916   -2.1082 H   0  0  0  0  0  0  0  0  0  0  0  0
    1.3008    2.5914   -2.4290 H   0  0  0  0  0  0  0  0  0  0  0  0
   -0.7422    3.6039   -3.4155 H   0  0  0  0  0  0  0  0  0  0  0  0
   -1.6773    2.1617   -2.9977 H   0  0  0  0  0  0  0  0  0  0  0  0
   -0.3854    2.0680   -4.2009 H   0  0  0  0  0  0  0  0  0  0  0  0
    1.4652   -1.1652   -0.9725 H   0  0  0  0  0  0  0  0  0  0  0  0
    1.5683    0.5765   -0.5922 H   0  0  0  0  0  0  0  0  0  0  0  0
    3.1833   -0.6275    0.7690 H   0  0  0  0  0  0  0  0  0  0  0  0
    1.9130    0.0211    1.8141 H   0  0  0  0  0  0  0  0  0  0  0  0
    1.9370   -1.6991    1.4020 H   0  0  0  0  0  0  0  0  0  0  0  0
    0.8348    9.4391   -2.7627 H   0  0  0  0  0  0  0  0  0  0  0  0
  1  2  2  0  0  0  0
  2  3  1  0  0  0  0
  3  4  2  0  0  0  0
  3  5  1  0  0  0  0
  5  6  2  0  0  0  0
  6  7  1  0  0  0  0
  7  8  2  0  0  0  0
  8  9  1  0  0  0  0
  9 10  2  0  0  0  0
 10 11  1  0  0  0  0
 11 12  2  0  0  0  0
 12 13  1  0  0  0  0
 13 14  3  0  0  0  0
 12 15  1  0  0  0  0
 15 16  3  0  0  0  0
  8 17  1  0  0  0  0
 17 18  1  0  0  0  0
 18 19  1  0  0  0  0
 19 20  2  0  0  0  0
 20 21  1  0  0  0  0
 21 22  1  0  0  0  0
 21 23  1  0  0  0  0
  1 24  1  0  0  0  0
 24 25  2  0  0  0  0
 25 26  1  0  0  0  0
 26 27  1  0  0  0  0
 25 28  1  0  0  0  0
 28 29  1  0  0  0  0
 29 30  1  0  0  0  0
 30 31  1  0  0  0  0
 31 32  2  0  0  0  0
 32 33  1  0  0  0  0
 33 34  2  0  0  0  0
 34 35  1  0  0  0  0
 35 36  1  0  0  0  0
 36 37  1  0  0  0  0
 37 38  1  0  0  0  0
 38 39  1  0  0  0  0
 37 40  2  0  0  0  0
 40 41  1  0  0  0  0
 40 42  1  0  0  0  0
 34 43  1  0  0  0  0
 43 44  1  0  0  0  0
 44 45  2  0  0  0  0
 45 46  1  0  0  0  0
 46 47  1  0  0  0  0
 46 48  2  0  0  0  0
 48 49  1  0  0  0  0
 49 50  1  0  0  0  0
 48 51  1  0  0  0  0
 43 52  2  0  0  0  0
 52 53  1  0  0  0  0
 53 54  2  0  0  0  0
 54 55  1  0  0  0  0
 55 56  1  0  0  0  0
 56 57  1  0  0  0  0
 57 58  1  0  0  0  0
 58 59  1  0  0  0  0
 59 60  1  0  0  0  0
 58 61  2  0  0  0  0
 61 62  1  0  0  0  0
 62 63  1  0  0  0  0
 63 64  1  0  0  0  0
 64 65  1  0  0  0  0
 65 66  1  0  0  0  0
 66 67  1  0  0  0  0
 65 68  1  0  0  0  0
 68 69  2  0  0  0  0
 69 70  1  0  0  0  0
 70 71  1  0  0  0  0
 71 72  1  0  0  0  0
 72 73  1  0  0  0  0
 70 74  1  0  0  0  0
 74 75  1  0  0  0  0
 61 76  1  0  0  0  0
 76 77  2  0  0  0  0
 77 78  1  0  0  0  0
 78 79  2  0  0  0  0
 78 80  1  0  0  0  0
 80 81  2  0  0  0  0
 81 82  1  0  0  0  0
 81 83  1  0  0  0  0
 83 84  1  0  0  0  0
 83 85  2  0  0  0  0
 85 86  1  0  0  0  0
 85 87  1  0  0  0  0
 87 88  1  0  0  0  0
 87 89  2  0  0  0  0
 89 90  1  0  0  0  0
 90 91  2  0  0  0  0
 91 92  1  0  0  0  0
 92 93  3  0  0  0  0
 91 94  1  0  0  0  0
 94 95  3  0  0  0  0
 11  2  1  0  0  0  0
 23 17  1  0  0  0  0
 73 24  1  0  0  0  0
 90 77  1  0  0  0  0
 10  5  1  0  0  0  0
 22 18  1  0  0  0  0
 72 28  2  0  0  0  0
 89 80  1  0  0  0  0
 23  7  1  0  0  0  0
 71 30  2  0  0  0  0
 69 31  1  0  0  0  0
 53 32  1  0  0  0  0
 68 54  1  0  0  0  0
 41 35  2  0  0  0  0
 51 44  1  0  0  0  0
 64 55  2  0  0  0  0
 63 57  2  0  0  0  0
  1 96  1  0  0  0  0
  6 97  1  0  0  0  0
  9 98  1  0  0  0  0
 17 99  1  0  0  0  0
 18100  1  0  0  0  0
 19101  1  0  0  0  0
 20102  1  0  0  0  0
 21103  1  0  0  0  0
 22104  1  0  0  0  0
 22105  1  0  0  0  0
 23106  1  0  0  0  0
 26107  1  0  0  0  0
 26108  1  0  0  0  0
 27109  1  0  0  0  0
 27110  1  0  0  0  0
 27111  1  0  0  0  0
 38112  1  0  0  0  0
 38113  1  0  0  0  0
 39114  1  0  0  0  0
 39115  1  0  0  0  0
 39116  1  0  0  0  0
 41117  1  0  0  0  0
 45118  1  0  0  0  0
 49119  1  0  0  0  0
 49120  1  0  0  0  0
 50121  1  0  0  0  0
 50122  1  0  0  0  0
 50123  1  0  0  0  0
 59124  1  0  0  0  0
 59125  1  0  0  0  0
 60126  1  0  0  0  0
 60127  1  0  0  0  0
 60128  1  0  0  0  0
 66129  1  0  0  0  0
 66130  1  0  0  0  0
 67131  1  0  0  0  0
 67132  1  0  0  0  0
 67133  1  0  0  0  0
 74134  1  0  0  0  0
 74135  1  0  0  0  0
 75136  1  0  0  0  0
 75137  1  0  0  0  0
 75138  1  0  0  0  0
 76139  1  0  0  0  0
M  END
