
  xtb     02022216053D
 energy: -208.391923978349 gnorm: 0.000888751242 xtb: 6.4.1 (unknown)
110124  0     0  0            999 V2000
    5.7972    0.6551    3.9088 C   0  0  0  0  0  0  0  0  0  0  0  0
    5.1299    1.5584    4.6974 C   0  0  0  0  0  0  0  0  0  0  0  0
    3.7349    1.9786    4.5454 C   0  0  0  0  0  0  0  0  0  0  0  0
    2.9397    1.6223    3.6902 O   0  0  0  0  0  0  0  0  0  0  0  0
    3.4636    2.9255    5.6387 C   0  0  0  0  0  0  0  0  0  0  0  0
    2.2594    3.5719    5.9088 C   0  0  0  0  0  0  0  0  0  0  0  0
    2.3027    4.3980    7.0060 C   0  0  0  0  0  0  0  0  0  0  0  0
    3.4590    4.5675    7.7789 C   0  0  0  0  0  0  0  0  0  0  0  0
    4.6521    3.9329    7.5251 C   0  0  0  0  0  0  0  0  0  0  0  0
    4.6313    3.0881    6.4112 C   0  0  0  0  0  0  0  0  0  0  0  0
    5.6884    2.2533    5.8408 C   0  0  0  0  0  0  0  0  0  0  0  0
    6.9721    2.1682    6.3182 C   0  0  0  0  0  0  0  0  0  0  0  0
    8.0039    1.3724    5.7790 C   0  0  0  0  0  0  0  0  0  0  0  0
    8.9004    0.7567    5.4065 N   0  0  0  0  0  0  0  0  0  0  0  0
    7.4595    2.8800    7.4344 C   0  0  0  0  0  0  0  0  0  0  0  0
    7.9326    3.4295    8.3248 N   0  0  0  0  0  0  0  0  0  0  0  0
    2.7873    5.5401    8.7158 C   0  0  0  0  0  0  0  0  0  0  0  0
    3.1175    7.0340    8.5124 C   0  0  0  0  0  0  0  0  0  0  0  0
    1.9877    7.7523    9.2144 C   0  0  0  0  0  0  0  0  0  0  0  0
    0.8916    7.5913    8.4842 C   0  0  0  0  0  0  0  0  0  0  0  0
    1.2622    6.7617    7.2759 C   0  0  0  0  0  0  0  0  0  0  0  0
    2.6994    7.2493    7.0520 C   0  0  0  0  0  0  0  0  0  0  0  0
    1.4974    5.3503    7.8547 C   0  0  0  0  0  0  0  0  0  0  0  0
    5.3766   -0.0715    2.7889 C   0  0  0  0  0  0  0  0  0  0  0  0
    6.2129   -0.9621    2.0959 C   0  0  0  0  0  0  0  0  0  0  0  0
    7.6485   -1.2380    2.4035 C   0  0  0  0  0  0  0  0  0  0  0  0
    8.5545   -0.1813    1.7675 C   0  0  0  0  0  0  0  0  0  0  0  0
    5.5609   -1.5451    1.0170 C   0  0  0  0  0  0  0  0  0  0  0  0
    6.1185   -2.8102   -0.2855 Se  0  0  0  0  0  2  0  0  0  0  0  0
    4.3842   -2.6372   -0.9358 C   0  0  0  0  0  0  0  0  0  0  0  0
    3.5734   -3.1944   -1.9285 C   0  0  0  0  0  0  0  0  0  0  0  0
    3.8417   -4.2527   -2.8226 C   0  0  0  0  0  0  0  0  0  0  0  0
    2.7749   -4.7520   -3.6314 C   0  0  0  0  0  0  0  0  0  0  0  0
    3.1378   -5.7838   -4.3764 N   0  0  0  0  0  0  0  0  0  0  0  0
    4.7021   -6.0964   -4.0822 S   0  0  0  0  0  0  0  0  0  0  0  0
    4.9682   -4.9265   -2.9915 N   0  0  0  0  0  0  0  0  0  0  0  0
    1.5278   -4.0928   -3.5895 C   0  0  0  0  0  0  0  0  0  0  0  0
    0.3760   -4.3143   -4.3488 C   0  0  0  0  0  0  0  0  0  0  0  0
   -0.2342   -5.4947   -5.6490 Se  0  0  0  0  0  2  0  0  0  0  0  0
   -1.8048   -4.4259   -5.6208 C   0  0  0  0  0  0  0  0  0  0  0  0
   -2.9943   -4.4919   -6.3281 C   0  0  0  0  0  0  0  0  0  0  0  0
   -3.2816   -5.5735   -7.3173 C   0  0  0  0  0  0  0  0  0  0  0  0
   -4.0596   -6.7169   -6.6612 C   0  0  0  0  0  0  0  0  0  0  0  0
   -3.8791   -3.4604   -5.9577 C   0  0  0  0  0  0  0  0  0  0  0  0
   -3.1807   -2.4085   -4.7255 S   0  0  0  0  0  0  0  0  0  0  0  0
   -1.7407   -3.3540   -4.7084 C   0  0  0  0  0  0  0  0  0  0  0  0
   -0.5338   -3.3057   -4.0045 C   0  0  0  0  0  0  0  0  0  0  0  0
    0.0117   -2.4918   -3.0427 N   0  0  0  0  0  0  0  0  0  0  0  0
    1.2822   -2.9607   -2.7578 C   0  0  0  0  0  0  0  0  0  0  0  0
    2.2898   -2.5802   -1.8285 C   0  0  0  0  0  0  0  0  0  0  0  0
    2.3261   -1.7076   -0.7598 N   0  0  0  0  0  0  0  0  0  0  0  0
    3.5858   -1.7318   -0.2245 C   0  0  0  0  0  0  0  0  0  0  0  0
    4.2281   -1.1272    0.8632 C   0  0  0  0  0  0  0  0  0  0  0  0
    3.7683    0.0106    2.0745 S   0  0  0  0  0  0  0  0  0  0  0  0
    1.2661   -1.0222   -0.0570 C   0  0  0  0  0  0  0  0  0  0  0  0
    1.2515    0.4755   -0.3620 C   0  0  0  0  0  0  0  0  0  0  0  0
   -0.5607   -1.1726   -2.8777 C   0  0  0  0  0  0  0  0  0  0  0  0
   -0.0803   -0.2310   -3.9805 C   0  0  0  0  0  0  0  0  0  0  0  0
   -5.1449   -3.3068   -6.5205 C   0  0  0  0  0  0  0  0  0  0  0  0
   -6.1396   -2.3864   -6.2749 C   0  0  0  0  0  0  0  0  0  0  0  0
   -6.1061   -1.3202   -5.2806 C   0  0  0  0  0  0  0  0  0  0  0  0
   -5.1758   -0.9924   -4.5670 O   0  0  0  0  0  0  0  0  0  0  0  0
   -7.4587   -0.7168   -5.2861 C   0  0  0  0  0  0  0  0  0  0  0  0
   -7.9707    0.2641   -4.4569 C   0  0  0  0  0  0  0  0  0  0  0  0
   -6.9848    1.0848   -3.3322 Cl  0  0  0  0  0  0  0  0  0  0  0  0
   -9.3364    0.5671   -4.5536 C   0  0  0  0  0  0  0  0  0  0  0  0
  -10.0087    1.7982   -3.5757 Cl  0  0  0  0  0  0  0  0  0  0  0  0
  -10.1540   -0.1655   -5.4113 C   0  0  0  0  0  0  0  0  0  0  0  0
  -11.8356    0.1496   -5.4352 Cl  0  0  0  0  0  0  0  0  0  0  0  0
   -9.6284   -1.1669   -6.2453 C   0  0  0  0  0  0  0  0  0  0  0  0
  -10.7261   -2.1432   -7.1304 Cl  0  0  0  0  0  0  0  0  0  0  0  0
   -8.2572   -1.3874   -6.2352 C   0  0  0  0  0  0  0  0  0  0  0  0
   -7.4010   -2.3063   -6.9846 C   0  0  0  0  0  0  0  0  0  0  0  0
   -7.6569   -2.8216   -8.2308 C   0  0  0  0  0  0  0  0  0  0  0  0
   -8.6976   -2.4141   -9.0933 C   0  0  0  0  0  0  0  0  0  0  0  0
   -9.4311   -2.0759   -9.9087 N   0  0  0  0  0  0  0  0  0  0  0  0
   -6.8115   -3.7183   -8.9191 C   0  0  0  0  0  0  0  0  0  0  0  0
   -6.1945   -4.4681   -9.5337 N   0  0  0  0  0  0  0  0  0  0  0  0
    6.8244    0.4563    4.1818 H   0  0  0  0  0  0  0  0  0  0  0  0
    1.3914    3.4082    5.2893 H   0  0  0  0  0  0  0  0  0  0  0  0
    5.5286    4.0707    8.1353 H   0  0  0  0  0  0  0  0  0  0  0  0
    2.7623    5.2488    9.7641 H   0  0  0  0  0  0  0  0  0  0  0  0
    4.1280    7.3189    8.7922 H   0  0  0  0  0  0  0  0  0  0  0  0
    2.0868    8.2401   10.1663 H   0  0  0  0  0  0  0  0  0  0  0  0
   -0.1080    7.9174    8.7041 H   0  0  0  0  0  0  0  0  0  0  0  0
    0.5820    6.7996    6.4292 H   0  0  0  0  0  0  0  0  0  0  0  0
    3.2637    6.6542    6.3363 H   0  0  0  0  0  0  0  0  0  0  0  0
    2.7378    8.2984    6.7635 H   0  0  0  0  0  0  0  0  0  0  0  0
    0.6118    4.9313    8.3290 H   0  0  0  0  0  0  0  0  0  0  0  0
    7.8981   -2.2186    1.9854 H   0  0  0  0  0  0  0  0  0  0  0  0
    7.8257   -1.2700    3.4793 H   0  0  0  0  0  0  0  0  0  0  0  0
    8.3308    0.8064    2.1634 H   0  0  0  0  0  0  0  0  0  0  0  0
    8.4135   -0.1656    0.6886 H   0  0  0  0  0  0  0  0  0  0  0  0
    9.5945   -0.4095    1.9822 H   0  0  0  0  0  0  0  0  0  0  0  0
   -3.8405   -5.1895   -8.1721 H   0  0  0  0  0  0  0  0  0  0  0  0
   -2.3236   -5.9595   -7.6800 H   0  0  0  0  0  0  0  0  0  0  0  0
   -3.4868   -7.1353   -5.8361 H   0  0  0  0  0  0  0  0  0  0  0  0
   -4.2473   -7.5015   -7.3888 H   0  0  0  0  0  0  0  0  0  0  0  0
   -5.0141   -6.3649   -6.2766 H   0  0  0  0  0  0  0  0  0  0  0  0
    0.3163   -1.5073   -0.2877 H   0  0  0  0  0  0  0  0  0  0  0  0
    1.4472   -1.1532    1.0150 H   0  0  0  0  0  0  0  0  0  0  0  0
    1.2492    0.6667   -1.4324 H   0  0  0  0  0  0  0  0  0  0  0  0
    0.3734    0.9342    0.0838 H   0  0  0  0  0  0  0  0  0  0  0  0
    2.1326    0.9459    0.0659 H   0  0  0  0  0  0  0  0  0  0  0  0
   -0.3135   -0.7582   -1.9085 H   0  0  0  0  0  0  0  0  0  0  0  0
   -1.6467   -1.2827   -2.9373 H   0  0  0  0  0  0  0  0  0  0  0  0
   -0.5299    0.7488   -3.8478 H   0  0  0  0  0  0  0  0  0  0  0  0
    1.0032   -0.1303   -3.9529 H   0  0  0  0  0  0  0  0  0  0  0  0
   -0.3669   -0.6124   -4.9574 H   0  0  0  0  0  0  0  0  0  0  0  0
   -5.3789   -4.0612   -7.2589 H   0  0  0  0  0  0  0  0  0  0  0  0
  1  2  2  0  0  0  0
  2  3  1  0  0  0  0
  3  4  2  0  0  0  0
  3  5  1  0  0  0  0
  5  6  2  0  0  0  0
  6  7  1  0  0  0  0
  7  8  2  0  0  0  0
  8  9  1  0  0  0  0
  9 10  2  0  0  0  0
 10 11  1  0  0  0  0
 11 12  2  0  0  0  0
 12 13  1  0  0  0  0
 13 14  3  0  0  0  0
 12 15  1  0  0  0  0
 15 16  3  0  0  0  0
  8 17  1  0  0  0  0
 17 18  1  0  0  0  0
 18 19  1  0  0  0  0
 19 20  2  0  0  0  0
 20 21  1  0  0  0  0
 21 22  1  0  0  0  0
 21 23  1  0  0  0  0
  1 24  1  0  0  0  0
 24 25  2  0  0  0  0
 25 26  1  0  0  0  0
 26 27  1  0  0  0  0
 25 28  1  0  0  0  0
 28 29  1  0  0  0  0
 29 30  1  0  0  0  0
 30 31  1  0  0  0  0
 31 32  1  0  0  0  0
 32 33  1  0  0  0  0
 33 34  2  0  0  0  0
 34 35  1  0  0  0  0
 35 36  1  0  0  0  0
 33 37  1  0  0  0  0
 37 38  1  0  0  0  0
 38 39  1  0  0  0  0
 39 40  1  0  0  0  0
 40 41  1  0  0  0  0
 41 42  1  0  0  0  0
 42 43  1  0  0  0  0
 41 44  2  0  0  0  0
 44 45  1  0  0  0  0
 45 46  1  0  0  0  0
 46 47  1  0  0  0  0
 47 48  1  0  0  0  0
 48 49  1  0  0  0  0
 49 50  1  0  0  0  0
 50 51  1  0  0  0  0
 51 52  1  0  0  0  0
 52 53  1  0  0  0  0
 53 54  1  0  0  0  0
 51 55  1  0  0  0  0
 55 56  1  0  0  0  0
 48 57  1  0  0  0  0
 57 58  1  0  0  0  0
 44 59  1  0  0  0  0
 59 60  2  0  0  0  0
 60 61  1  0  0  0  0
 61 62  2  0  0  0  0
 61 63  1  0  0  0  0
 63 64  2  0  0  0  0
 64 65  1  0  0  0  0
 64 66  1  0  0  0  0
 66 67  1  0  0  0  0
 66 68  2  0  0  0  0
 68 69  1  0  0  0  0
 68 70  1  0  0  0  0
 70 71  1  0  0  0  0
 70 72  2  0  0  0  0
 72 73  1  0  0  0  0
 73 74  2  0  0  0  0
 74 75  1  0  0  0  0
 75 76  3  0  0  0  0
 74 77  1  0  0  0  0
 77 78  3  0  0  0  0
 11  2  1  0  0  0  0
 23 17  1  0  0  0  0
 54 24  1  0  0  0  0
 73 60  1  0  0  0  0
 10  5  1  0  0  0  0
 22 18  1  0  0  0  0
 53 28  2  0  0  0  0
 72 63  1  0  0  0  0
 23  7  1  0  0  0  0
 52 30  2  0  0  0  0
 50 31  2  0  0  0  0
 36 32  2  0  0  0  0
 49 37  2  0  0  0  0
 47 38  2  0  0  0  0
 46 40  2  0  0  0  0
  1 79  1  0  0  0  0
  6 80  1  0  0  0  0
  9 81  1  0  0  0  0
 17 82  1  0  0  0  0
 18 83  1  0  0  0  0
 19 84  1  0  0  0  0
 20 85  1  0  0  0  0
 21 86  1  0  0  0  0
 22 87  1  0  0  0  0
 22 88  1  0  0  0  0
 23 89  1  0  0  0  0
 26 90  1  0  0  0  0
 26 91  1  0  0  0  0
 27 92  1  0  0  0  0
 27 93  1  0  0  0  0
 27 94  1  0  0  0  0
 42 95  1  0  0  0  0
 42 96  1  0  0  0  0
 43 97  1  0  0  0  0
 43 98  1  0  0  0  0
 43 99  1  0  0  0  0
 55100  1  0  0  0  0
 55101  1  0  0  0  0
 56102  1  0  0  0  0
 56103  1  0  0  0  0
 56104  1  0  0  0  0
 57105  1  0  0  0  0
 57106  1  0  0  0  0
 58107  1  0  0  0  0
 58108  1  0  0  0  0
 58109  1  0  0  0  0
 59110  1  0  0  0  0
M  END
