94

C         -1.70070       -0.01800        2.97350
C         -1.28410       -0.89240        3.94680
C          0.00090       -1.61640        4.05000
O          0.85970       -1.78130        3.20550
C          0.08050       -2.09470        5.44550
C          1.15350       -2.75720        6.03750
C          0.95670       -3.06880        7.36130
C         -0.21840       -2.73990        8.04980
C         -1.28440       -2.08710        7.47790
C         -1.10590       -1.76760        6.12850
C         -1.99890       -1.09200        5.19250
C         -3.31890       -0.79760        5.42910
C         -4.21580       -0.28470        4.47110
N         -5.01330        0.10310        3.73970
C         -3.98160       -1.02900        6.65130
N         -4.58290       -1.18200        7.61790
C          0.27150       -3.34920        9.34000
C         -0.30740       -4.73010        9.71360
C          0.67860       -5.27470       10.72160
C          1.79060       -5.58860       10.06940
C          1.57490       -5.26140        8.60940
C          0.07700       -5.56960        8.48840
C          1.58090       -3.71840        8.57160
C         -1.18260        0.23660        1.69280
C         -0.25990       -0.50820        0.93030
C         -0.12420        0.16850       -0.26720
C         -0.96790        1.29820       -0.23290
N         -1.60860        1.33710        0.95170
C         -2.58630        2.33440        1.31790
C         -4.01120        1.86610        1.03070
C         -0.83420        1.94770       -1.47310
C         -1.50440        3.06080       -2.02540
C         -1.23500        3.43330       -3.38350
N         -1.96580        4.46000       -3.78680
S         -2.91290        4.93020       -2.56260
N         -2.42140        3.83880       -1.46710
C         -0.22050        2.75010       -4.08670
C          0.35090        3.00720       -5.33880
S          0.15430        4.10140       -6.66260
C          1.56270        3.39050       -7.42110
C          2.22780        3.67320       -8.61490
C          1.76170        4.71410       -9.57950
C          0.85590        4.09610      -10.64770
C          3.32470        2.83100       -8.79330
S          3.52220        1.70010       -7.45450
C          2.13310        2.35100       -6.67050
C          1.43080        2.12850       -5.48250
N          1.52950        1.32870       -4.37650
C          0.51510        1.67580       -3.50300
C          0.12730        1.19690       -2.22250
N          0.52640        0.10370       -1.47410
C          1.16790       -1.13710       -1.84430
C          2.48430       -1.34370       -1.09630
C          2.71140        0.51780       -4.18990
C          2.68680       -0.74900       -5.04480
C          4.20350        2.83800       -9.89290
C          5.26240        2.00290      -10.11880
C          6.04200        2.15530      -11.28500
N          6.66800        2.28880      -12.23700
C          5.66880        0.95440       -9.27160
N          6.03240        0.08740       -8.61200
H         -2.55220        0.59500        3.23950
H          2.04430       -2.98440        5.47280
H         -2.17770       -1.83080        8.02250
H          0.33930       -2.67190       10.18940
H         -1.35360       -4.72060       10.00680
H          0.49200       -5.32170       11.77850
H          2.71860       -5.94990       10.47250
H          2.24400       -5.73730        7.89730
H         -0.13840       -6.62740        8.63040
H         -0.37280       -5.22820        7.55790
H          2.52200       -3.28810        8.90950
H          0.21710       -1.40730        1.25680
H         -2.46940        2.59320        2.37330
H         -2.37910        3.21910        0.71120
H         -4.70530        2.67320        1.24500
H         -4.28500        1.00820        1.63960
H         -4.10520        1.59990       -0.01900
H          2.61250        5.20440      -10.05540
H          1.19850        5.46750       -9.02520
H          0.50910        4.86550      -11.33230
H          1.39120        3.33910      -11.21670
H         -0.00960        3.63040      -10.18250
H          1.30640       -1.17170       -2.92100
H          0.48490       -1.95100       -1.57220
H          2.95590       -2.26270       -1.43290
H          3.17380       -0.51820       -1.25900
H          2.30030       -1.41760       -0.02830
H          3.57610        1.12040       -4.48990
H          2.81920        0.28990       -3.13290
H          2.77890       -0.49780       -6.09760
H          1.76100       -1.30510       -4.91370
H          3.52290       -1.38740       -4.77500
H          4.01150        3.59070      -10.64750
