125

C         -4.00610        5.26110       -0.36570
C         -5.07070        5.73930        0.33980
C         -5.65840        5.18770        1.58680
O         -5.22860        4.31290        2.30890
C         -6.95760        5.86930        1.75220
C         -7.88770        5.64140        2.76380
C         -9.02370        6.40690        2.66200
C         -9.22390        7.32870        1.62550
C         -8.31300        7.56580        0.62440
C         -7.14680        6.79890        0.71200
C         -5.97140        6.77010       -0.15180
C         -5.73570        7.62450       -1.19830
C         -6.63310        8.62180       -1.63320
N         -7.31220        9.44890       -2.05010
C         -4.56270        7.66530       -1.98130
N         -3.64360        7.78920       -2.66000
C        -10.58810        7.72340        2.13300
C        -11.82460        7.14440        1.40170
C        -11.38840        5.83740        0.78760
C        -11.19850        4.97010        1.77290
C        -11.50200        5.67560        3.07150
C        -12.62000        6.62370        2.60950
C        -10.36250        6.70130        3.29120
C         -2.99740        4.31270       -0.00610
C         -2.58980        4.07090        1.32350
C         -1.62860        3.14090        1.62470
C         -1.03440        2.40340        0.59570
C         -0.07600        1.37360        0.49460
C          0.11180        1.09580       -0.86320
N         -0.69790        1.88090       -1.62820
C         -1.40330        2.68780       -0.76420
C         -2.35630        3.63790       -1.05590
C         -0.69820        1.95550       -3.06610
C          0.12800        3.13980       -3.56490
C          1.08230        0.09050       -0.95110
C          1.70420       -0.50920       -2.06270
C          2.72870       -1.46560       -1.85880
N          3.17220       -1.84850       -3.05940
N          2.45000       -1.15120       -3.90560
C          2.59240       -1.30080       -5.32410
C          1.69330       -2.41910       -5.84430
N          1.55850       -0.34380       -3.38040
C          3.05590       -1.86410       -0.54840
C          2.39340       -1.30480        0.59250
C          1.45050       -0.25370        0.39070
N          0.73900        0.56960        1.25130
C          0.81690        0.81320        2.67050
C         -0.38170        0.21960        3.41360
N          2.84060       -1.98030        1.71870
C          2.42590       -1.97670        3.09940
C          3.44100       -1.25940        3.99140
C          3.76610       -2.91150        1.31820
C          3.92420       -2.85530       -0.07380
N          4.79980       -3.80730       -0.49250
C          5.27360       -4.00130       -1.83980
C          6.68310       -3.44490       -2.02970
C          5.22240       -4.48400        0.62960
C          4.57950       -3.95160        1.80130
C          4.86120       -4.53550        3.04440
C          5.73510       -5.58510        3.10580
C          6.38330       -6.10710        1.95280
C          6.09980       -5.54090        0.70180
C          7.24420       -7.22080        2.15360
C          8.13510       -7.88780        1.35010
C          8.68530       -7.51160        0.02970
O          8.39430       -6.57920       -0.69430
C          9.74770       -8.49680       -0.26030
C         10.57630       -8.55610       -1.36470
C         11.51720       -9.57100       -1.43070
C         11.59580      -10.48330       -0.38920
F         12.51770      -11.45830       -0.46510
C         10.77380      -10.44340        0.72850
C          9.83230       -9.42860        0.78550
C          8.81830       -9.09600        1.78550
C          8.54200       -9.85890        2.89110
C          7.52110       -9.63290        3.83920
N          6.71810       -9.55700        4.65810
C          9.24350      -11.03390        3.23580
N          9.76670      -11.99560        3.58200
H         -3.91940        5.61460       -1.38750
H         -7.69330        4.91890        3.54100
H         -8.48390        8.27590       -0.16720
H        -10.71550        8.77200        2.39460
H        -12.32370        7.84390        0.73660
H        -11.21230        5.69880       -0.26310
H        -10.83150        3.96240        1.70990
H        -11.70780        5.03840        3.92760
H        -12.86080        7.39780        3.33680
H        -13.52740        6.09550        2.32040
H        -10.33840        7.08360        4.30990
H         -3.03310        4.64470        2.11790
H         -1.33790        2.98890        2.65290
H         -2.64040        3.84560       -2.07680
H         -0.26420        1.02610       -3.44150
H         -1.73160        2.04020       -3.41600
H         -0.25690        4.07540       -3.16620
H          1.16270        3.02700       -3.25060
H          0.09670        3.18240       -4.64990
H          3.64060       -1.52890       -5.52820
H          2.32100       -0.34780       -5.78280
H          1.81290       -2.52030       -6.91910
H          1.95640       -3.36190       -5.37100
H          0.65190       -2.19530       -5.62620
H          0.81200        1.90020        2.80930
H          1.76010        0.44350        3.06150
H         -0.47680       -0.84900        3.23200
H         -0.27620        0.38640        4.48240
H         -1.30040        0.69110        3.07500
H          1.43350       -1.54700        3.19060
H          2.35690       -3.02350        3.41540
H          3.08530       -1.23790        5.01820
H          4.39500       -1.77930        3.96200
H          3.61370       -0.23810        3.65780
H          4.57660       -3.48330       -2.50310
H          5.26310       -5.07150       -2.06750
H          7.39720       -3.98030       -1.40980
H          6.97980       -3.55080       -3.06920
H          6.70720       -2.39000       -1.76660
H          4.39080       -4.17230        3.94570
H          5.94740       -6.04000        4.06210
H          6.56000       -5.93300       -0.18660
H          7.17840       -7.61270        3.16240
H         10.48250       -7.82360       -2.15120
H         12.18810       -9.66660       -2.26960
H         10.89420      -11.18430        1.50080
