138

C         -0.39350       -6.02230       -1.96390
C         -0.55850       -7.36050       -1.76700
C         -1.49380       -8.11660       -2.64430
O         -1.93470       -7.76070       -3.71380
C         -1.82220       -9.34010       -1.88590
C         -2.80790      -10.27990       -2.18220
C         -2.92870      -11.27690       -1.24400
C         -2.12630      -11.34480       -0.09650
C         -1.13800      -10.43660        0.19990
C         -1.00660       -9.41100       -0.73810
C         -0.10560       -8.26310       -0.73840
C          1.08670       -8.17220       -0.06950
C          1.57300       -9.15550        0.81310
N          2.01470       -9.93230        1.53380
C          1.98050       -7.10290       -0.27370
N          2.72800       -6.24780       -0.44140
C         -2.82830      -12.57650        0.41880
C         -3.84680      -12.35700        1.55780
C         -4.70340      -13.60210        1.52370
C         -5.46120      -13.54050        0.43620
C         -5.12960      -12.25270       -0.28250
C         -4.81570      -11.35310        0.92000
C         -3.72060      -12.50320       -0.86160
C         -0.01190       -5.01530       -1.04960
C         -0.06880       -4.97630        0.34200
C         -0.53670       -6.04190        1.23760
C          0.35130       -6.49540        2.21100
C          0.00250       -7.52440        3.06590
C         -1.24690       -8.10780        2.95560
C         -2.14990       -7.62550        2.02470
C         -1.82360       -6.58620        1.16310
C         -2.88960       -6.00300        0.27870
C         -3.43680       -4.71670        0.90230
C          0.35400       -3.73360        0.83200
S          0.46880       -3.08850        2.45270
C          0.97610       -1.57380        1.78640
C          1.32970       -0.28450        2.22230
C          1.55880        0.28200        3.49780
C          2.01940        1.64400        3.59010
N          2.25610        2.00990        4.83920
S          1.92510        0.76270        5.81590
N          1.46480       -0.29790        4.68330
C          2.07870        2.43380        2.41780
C          2.26930        3.80790        2.19620
S          2.66010        5.23850        3.09000
C          2.41960        6.17950        1.62940
C          2.48820        7.54110        1.35740
C          2.86500        8.59000        2.31730
C          2.01180        8.97610        3.35250
C          0.63480        8.39260        3.49390
C         -0.33870        9.08850        2.53950
C          2.42680        9.98670        4.20880
C          3.65460       10.60220        4.05460
C          4.49540       10.21550        3.02580
C          4.09820        9.21620        2.15930
C          2.17560        7.81700        0.01610
S          1.82870        6.35900       -0.90590
C          2.07040        5.40390        0.51060
C          1.99730        4.04880        0.84180
N          1.68530        2.87270        0.20650
C          1.75020        1.87200        1.15470
C          1.54950        0.47990        1.04690
N          1.42180       -0.32970       -0.06620
C          1.05390       -1.57290        0.38700
C          0.70110       -2.80820       -0.16070
S          0.51310       -3.47880       -1.73420
C          2.14930       -0.18570       -1.31280
C          3.39440       -1.07200       -1.33240
C          0.86090        2.89260       -0.98490
C         -0.51290        3.49470       -0.69170
C          2.06650        9.13260       -0.45290
C          1.72600        9.61080       -1.69050
C          1.50320        8.80890       -2.89930
O          1.51470        7.59170       -2.99670
C          1.27130        9.77180       -3.98330
C          1.02880        9.52230       -5.32380
C          0.83310       10.59690       -6.17830
O          0.58470       10.50300       -7.50300
C          0.51310        9.22200       -8.08400
C          0.88640       11.92520       -5.66750
O          0.68190       12.89370       -6.58460
C          0.70790       14.24090       -6.16850
C          1.13090       12.15630       -4.32060
C          1.32300       11.07460       -3.47080
C          1.57230       11.01030       -2.03620
C          1.59390       12.08320       -1.17960
C          1.42990       13.41870       -1.59860
N          1.30880       14.52460       -1.88560
C          1.73960       12.02210        0.22180
N          1.82700       12.06970        1.36690
H         -0.69080       -5.66720       -2.94740
H         -3.40780      -10.19410       -3.07460
H         -0.52800      -10.48500        1.08710
H         -2.20270      -13.45390        0.56980
H         -3.40760      -12.09130        2.51560
H         -4.63200      -14.39930        2.24000
H         -6.14920      -14.27600        0.06260
H         -5.86020      -11.89160       -1.00130
H         -4.35690      -10.40240        0.65350
H         -5.69240      -11.17480        1.54070
H         -3.68990      -13.33190       -1.56620
H          1.33070       -6.04470        2.27960
H          0.70640       -7.87060        3.80650
H         -1.52620       -8.92310        3.60570
H         -3.13900       -8.05820        1.96860
H         -3.70170       -6.72480        0.16870
H         -2.50640       -5.78030       -0.71680
H         -4.22950       -4.30460        0.28250
H         -3.83670       -4.91630        1.89390
H         -2.64790       -3.97370        0.99600
H          0.64610        7.32210        3.28390
H          0.28950        8.53110        4.51980
H         -1.35320        8.73400        2.70740
H         -0.07050        8.88960        1.50400
H         -0.31220       10.16450        2.69500
H          1.76730       10.30060        5.00480
H          3.95200       11.38960        4.73040
H          5.45380       10.69450        2.89280
H          4.74480        8.90660        1.34990
H          1.48700       -0.45770       -2.14120
H          2.46470        0.85150       -1.41880
H          4.03860       -0.83280       -0.48890
H          3.94620       -0.90000       -2.25230
H          3.13070       -2.12440       -1.28150
H          0.72190        1.87770       -1.34960
H          1.37220        3.49030       -1.74520
H         -0.42320        4.52930       -0.37350
H         -1.12170        3.46310       -1.59070
H         -1.01260        2.92770        0.09120
H          2.27550        9.86840        0.31490
H          0.99570        8.50160       -5.66840
H          0.30400        9.39110       -9.13870
H          1.45990        8.68230       -7.98340
H         -0.29360        8.62700       -7.64470
H         -0.06580       14.44700       -5.42300
H          0.51110       14.82500       -7.06550
H          1.68500       14.51750       -5.76150
H          1.17210       13.16270       -3.94340
