136

C         -4.47390       -1.20140        5.45300
C         -5.37250       -1.55900        4.49360
C         -5.26150       -1.11100        3.08230
O         -4.64480       -0.16640        2.64120
C         -5.93260       -2.16160        2.29430
C         -5.92300       -2.28500        0.90660
C         -6.54810       -3.41690        0.44240
C         -7.14810       -4.35630        1.29230
C         -7.16800       -4.24540        2.66290
C         -6.52620       -3.10520        3.15680
C         -6.27040       -2.69460        4.53240
C         -6.81400       -3.22980        5.66930
C         -6.56060       -2.70830        6.95530
N         -6.39560       -2.30330        8.01670
C         -7.71240       -4.31500        5.68550
N         -8.44150       -5.19940        5.75100
C         -7.55200       -5.25110        0.14600
C         -9.03130       -5.20310       -0.29050
C         -9.01400       -5.78820       -1.68460
C         -8.44270       -4.90050       -2.48840
C         -8.06360       -3.70020       -1.65120
C         -9.20780       -3.71730       -0.62970
C         -6.88000       -4.20450       -0.79990
C         -3.60520       -0.08280        5.31630
C         -3.89420        1.20710        4.90460
C         -5.24320        1.76160        4.73940
C         -5.53850        2.36610        3.51950
C         -6.79260        2.88940        3.27350
C         -7.76380        2.82720        4.25670
C         -7.46360        2.25770        5.48110
C         -6.21210        1.71790        5.74890
C         -5.92040        1.20030        7.13050
C         -4.95610        2.12650        7.87230
C         -2.71450        1.92710        4.64050
S         -2.41530        3.50800        3.95570
C         -0.73960        3.09910        3.79340
C          0.41090        3.57280        3.13330
C          0.72070        4.77720        2.46090
C          1.97360        4.88770        1.75780
N          2.13360        6.07600        1.19970
S          0.83030        6.98020        1.52530
N          0.00420        5.88650        2.38660
C          2.79250        3.74080        1.63130
C          3.80560        3.40910        0.71340
S          4.65170        4.12710       -0.61950
C          5.23710        2.54250       -1.07340
C          5.94480        2.06890       -2.19920
C          6.44020        2.96640       -3.25380
C          7.78640        3.03770       -3.62060
C          8.85760        2.20380       -2.97170
C          9.51670        1.24150       -3.96110
C          8.15320        3.95020       -4.60370
C          7.22380        4.76390       -5.22220
C          5.89200        4.69280       -4.84960
C          5.50900        3.80560       -3.86480
C          6.07550        0.69660       -2.17360
S          5.36440       -0.01540       -0.72910
C          4.83990        1.53800       -0.19130
C          4.03360        2.03510        0.84000
N          3.25220        1.51760        1.83590
C          2.47410        2.54490        2.32870
C          1.36650        2.52580        3.20790
N          0.86830        1.50430        3.99680
C         -0.42450        1.83850        4.31360
C         -1.54450        1.18430        4.83120
S         -1.87480       -0.37660        5.48360
C          1.63130        0.60150        4.83240
C          1.58010        1.03030        6.29830
C          3.10160        0.08780        1.97700
C          4.29740       -0.54390        2.68700
C          6.47000       -0.18110       -3.25580
C          6.05620        0.13500       -4.54150
C          6.25030       -0.74240       -5.60060
C          6.84610       -1.97170       -5.39360
C          6.96280       -2.91970       -6.50980
O          6.56340       -2.67000       -7.62980
N          7.54290       -4.14470       -6.22050
C          7.63200       -5.10830       -7.31310
C          8.91640       -4.92220       -8.10990
C          8.08510       -4.51850       -5.00350
O          8.61010       -5.60480       -4.86220
C          7.97110       -3.54400       -3.90440
C          8.49450       -3.85550       -2.66700
C          8.40730       -2.93760       -1.62030
C          7.76220       -1.73930       -1.79590
C          7.17450       -1.40120       -3.03040
C          7.32770       -2.30680       -4.11250
H         -4.29310       -1.86910        6.28930
H         -5.44020       -1.54460        0.28830
H         -7.61080       -4.98470        3.31020
H         -7.14960       -6.26210        0.17310
H         -9.72900       -5.64280        0.41660
H         -9.35630       -6.77780       -1.92420
H         -8.21230       -5.00010       -3.53290
H         -7.87890       -2.77080       -2.18310
H         -9.05690       -3.04850        0.21570
H        -10.17300       -3.51200       -1.08940
H         -6.02730       -4.51790       -1.39980
H         -4.78170        2.39440        2.75200
H         -7.00820        3.34540        2.31900
H         -8.74960        3.23030        4.07690
H         -8.21840        2.23240        6.25440
H         -5.50080        0.19430        7.09190
H         -6.85440        1.13660        7.69140
H         -5.36770        3.13180        7.93050
H         -4.78690        1.75970        8.88170
H         -3.99880        2.18050        7.35830
H          9.62410        2.87310       -2.57050
H          8.44320        1.63700       -2.13770
H         10.02400        1.78840       -4.75150
H          8.77500        0.59330       -4.42040
H         10.24800        0.61990       -3.44920
H          9.19450        4.02790       -4.88040
H          7.53810        5.45940       -5.98590
H          5.15710        5.32940       -5.31840
H          4.47250        3.74520       -3.56570
H          2.66690        0.61760        4.50040
H          1.22620       -0.41150        4.73370
H          0.56610        0.97270        6.68410
H          2.21160        0.37440        6.89120
H          1.93770        2.05220        6.40550
H          2.16750       -0.12500        2.49430
H          3.03020       -0.33970        0.97010
H          4.12790       -1.60910        2.81410
H          5.19750       -0.40650        2.09360
H          4.46480       -0.09700        3.66430
H          5.53810        1.06530       -4.71490
H          5.90370       -0.49310       -6.59190
H          6.76260       -4.95270       -7.95470
H          7.60060       -6.10520       -6.86980
H          9.78100       -5.06330       -7.46540
H          8.95640       -5.65100       -8.91450
H          8.94860       -3.92360       -8.53930
H          8.98250       -4.80920       -2.53430
H          8.85420       -3.17400       -0.66660
H          7.72390       -1.03550       -0.97900
