
  xtb     02102220113D
 energy: -210.999096841676 gnorm: 0.000549990843 xtb: 6.4.1 (unknown)
125139  0     0  0            999 V2000
   -1.1538    3.2269    6.5342 C   0  0  0  0  0  0  0  0  0  0  0  0
    0.1243    3.0435    6.9680 C   0  0  0  0  0  0  0  0  0  0  0  0
    1.2366    2.4676    6.1708 C   0  0  0  0  0  0  0  0  0  0  0  0
    1.1849    1.7984    5.1591 O   0  0  0  0  0  0  0  0  0  0  0  0
    2.4732    2.9437    6.8188 C   0  0  0  0  0  0  0  0  0  0  0  0
    3.7751    2.7484    6.3610 C   0  0  0  0  0  0  0  0  0  0  0  0
    4.7372    3.3318    7.1487 C   0  0  0  0  0  0  0  0  0  0  0  0
    4.4303    4.0571    8.3083 C   0  0  0  0  0  0  0  0  0  0  0  0
    3.1521    4.2492    8.7762 C   0  0  0  0  0  0  0  0  0  0  0  0
    2.1563    3.6646    7.9866 C   0  0  0  0  0  0  0  0  0  0  0  0
    0.7063    3.6709    8.1424 C   0  0  0  0  0  0  0  0  0  0  0  0
    0.0130    4.1170    9.2362 C   0  0  0  0  0  0  0  0  0  0  0  0
   -1.3858    4.0086    9.3888 C   0  0  0  0  0  0  0  0  0  0  0  0
   -2.5134    3.9312    9.5921 N   0  0  0  0  0  0  0  0  0  0  0  0
    0.6091    4.6992   10.3733 C   0  0  0  0  0  0  0  0  0  0  0  0
    1.0353    5.1866   11.3215 N   0  0  0  0  0  0  0  0  0  0  0  0
    5.8777    4.3833    8.5824 C   0  0  0  0  0  0  0  0  0  0  0  0
    6.3417    5.8104    8.2208 C   0  0  0  0  0  0  0  0  0  0  0  0
    7.8465    5.6918    8.1372 C   0  0  0  0  0  0  0  0  0  0  0  0
    8.1368    5.0027    7.0411 C   0  0  0  0  0  0  0  0  0  0  0  0
    6.8331    4.6436    6.3657 C   0  0  0  0  0  0  0  0  0  0  0  0
    6.0000    5.8802    6.7267 C   0  0  0  0  0  0  0  0  0  0  0  0
    6.2194    3.5718    7.2918 C   0  0  0  0  0  0  0  0  0  0  0  0
   -1.7452    2.6467    5.3640 C   0  0  0  0  0  0  0  0  0  0  0  0
   -2.6091    3.4490    4.5836 C   0  0  0  0  0  0  0  0  0  0  0  0
   -3.0830    3.0270    3.3694 C   0  0  0  0  0  0  0  0  0  0  0  0
   -2.7380    1.7505    2.9106 C   0  0  0  0  0  0  0  0  0  0  0  0
   -2.9406    1.0007    1.7341 C   0  0  0  0  0  0  0  0  0  0  0  0
   -2.3033   -0.2348    1.9036 C   0  0  0  0  0  0  0  0  0  0  0  0
   -1.7400   -0.3170    3.1396 N   0  0  0  0  0  0  0  0  0  0  0  0
   -1.9476    0.8964    3.7529 C   0  0  0  0  0  0  0  0  0  0  0  0
   -1.4563    1.3414    4.9624 C   0  0  0  0  0  0  0  0  0  0  0  0
   -0.8747   -1.3741    3.5977 C   0  0  0  0  0  0  0  0  0  0  0  0
    0.5953   -1.0422    3.3482 C   0  0  0  0  0  0  0  0  0  0  0  0
   -2.4479   -0.9495    0.7058 C   0  0  0  0  0  0  0  0  0  0  0  0
   -2.0896   -2.2559    0.3203 C   0  0  0  0  0  0  0  0  0  0  0  0
   -2.3605   -2.7002   -1.0005 C   0  0  0  0  0  0  0  0  0  0  0  0
   -1.9580   -3.9707   -1.0905 N   0  0  0  0  0  0  0  0  0  0  0  0
   -1.4925   -4.2464    0.1055 N   0  0  0  0  0  0  0  0  0  0  0  0
   -0.9280   -5.5255    0.4227 C   0  0  0  0  0  0  0  0  0  0  0  0
    0.5955   -5.4769    0.3496 C   0  0  0  0  0  0  0  0  0  0  0  0
   -1.5374   -3.2740    0.9852 N   0  0  0  0  0  0  0  0  0  0  0  0
   -2.8918   -1.7969   -1.9433 C   0  0  0  0  0  0  0  0  0  0  0  0
   -3.2362   -0.4637   -1.5632 C   0  0  0  0  0  0  0  0  0  0  0  0
   -3.1283   -0.0820   -0.2014 C   0  0  0  0  0  0  0  0  0  0  0  0
   -3.4634    1.0929    0.4652 N   0  0  0  0  0  0  0  0  0  0  0  0
   -4.5670    1.9935    0.2058 C   0  0  0  0  0  0  0  0  0  0  0  0
   -5.8440    1.2441   -0.1649 C   0  0  0  0  0  0  0  0  0  0  0  0
   -3.5911    0.2495   -2.7005 N   0  0  0  0  0  0  0  0  0  0  0  0
   -3.6115    1.6800   -2.9037 C   0  0  0  0  0  0  0  0  0  0  0  0
   -2.2974    2.3375   -2.4880 C   0  0  0  0  0  0  0  0  0  0  0  0
   -3.4645   -0.5993   -3.7749 C   0  0  0  0  0  0  0  0  0  0  0  0
   -3.0612   -1.8708   -3.3322 C   0  0  0  0  0  0  0  0  0  0  0  0
   -2.8832   -2.7080   -4.3868 N   0  0  0  0  0  0  0  0  0  0  0  0
   -2.5441   -4.1068   -4.3232 C   0  0  0  0  0  0  0  0  0  0  0  0
   -3.7864   -4.9855   -4.4566 C   0  0  0  0  0  0  0  0  0  0  0  0
   -3.1577   -1.9840   -5.5249 C   0  0  0  0  0  0  0  0  0  0  0  0
   -3.5368   -0.6396   -5.1778 C   0  0  0  0  0  0  0  0  0  0  0  0
   -3.8613    0.2494   -6.2135 C   0  0  0  0  0  0  0  0  0  0  0  0
   -3.7560   -0.1676   -7.5106 C   0  0  0  0  0  0  0  0  0  0  0  0
   -3.3097   -1.4730   -7.8589 C   0  0  0  0  0  0  0  0  0  0  0  0
   -3.0505   -2.3937   -6.8331 C   0  0  0  0  0  0  0  0  0  0  0  0
   -3.1617   -1.7452   -9.2451 C   0  0  0  0  0  0  0  0  0  0  0  0
   -2.5383   -2.7428   -9.9554 C   0  0  0  0  0  0  0  0  0  0  0  0
   -1.6582   -3.8293   -9.4800 C   0  0  0  0  0  0  0  0  0  0  0  0
   -1.4418   -4.2101   -8.3481 O   0  0  0  0  0  0  0  0  0  0  0  0
   -1.0326   -4.3985  -10.6982 C   0  0  0  0  0  0  0  0  0  0  0  0
   -1.5467   -3.7601  -11.8390 C   0  0  0  0  0  0  0  0  0  0  0  0
   -1.0919   -4.1184  -13.0982 C   0  0  0  0  0  0  0  0  0  0  0  0
   -0.1312   -5.1138  -13.1991 C   0  0  0  0  0  0  0  0  0  0  0  0
    0.3680   -5.7455  -12.0711 C   0  0  0  0  0  0  0  0  0  0  0  0
    1.6748   -7.0970  -12.2757 Br  0  0  0  0  0  0  0  0  0  0  0  0
   -0.0766   -5.3967  -10.7916 C   0  0  0  0  0  0  0  0  0  0  0  0
    0.5461   -6.1752   -9.3993 Cl  0  0  0  0  0  0  0  0  0  0  0  0
   -2.5274   -2.7666  -11.4077 C   0  0  0  0  0  0  0  0  0  0  0  0
   -3.3239   -2.0434  -12.2597 C   0  0  0  0  0  0  0  0  0  0  0  0
   -3.2612   -2.1292  -13.6662 C   0  0  0  0  0  0  0  0  0  0  0  0
   -3.2648   -2.1446  -14.8145 N   0  0  0  0  0  0  0  0  0  0  0  0
   -4.3397   -1.1359  -11.8899 C   0  0  0  0  0  0  0  0  0  0  0  0
   -5.1992   -0.3968  -11.7007 N   0  0  0  0  0  0  0  0  0  0  0  0
   -1.7625    3.9593    7.0529 H   0  0  0  0  0  0  0  0  0  0  0  0
    3.9669    2.1844    5.4615 H   0  0  0  0  0  0  0  0  0  0  0  0
    2.9290    4.8113    9.6678 H   0  0  0  0  0  0  0  0  0  0  0  0
    6.2711    4.0367    9.5360 H   0  0  0  0  0  0  0  0  0  0  0  0
    5.9474    6.5934    8.8626 H   0  0  0  0  0  0  0  0  0  0  0  0
    8.5200    6.0613    8.8880 H   0  0  0  0  0  0  0  0  0  0  0  0
    9.1011    4.6815    6.6932 H   0  0  0  0  0  0  0  0  0  0  0  0
    6.8858    4.3636    5.3169 H   0  0  0  0  0  0  0  0  0  0  0  0
    6.3835    6.7855    6.2589 H   0  0  0  0  0  0  0  0  0  0  0  0
    4.9384    5.7797    6.5083 H   0  0  0  0  0  0  0  0  0  0  0  0
    6.8402    2.6827    7.3844 H   0  0  0  0  0  0  0  0  0  0  0  0
   -2.8478    4.4413    4.9369 H   0  0  0  0  0  0  0  0  0  0  0  0
   -3.6966    3.6838    2.7704 H   0  0  0  0  0  0  0  0  0  0  0  0
   -0.8732    0.6968    5.5978 H   0  0  0  0  0  0  0  0  0  0  0  0
   -1.0509   -1.5321    4.6655 H   0  0  0  0  0  0  0  0  0  0  0  0
   -1.1499   -2.2789    3.0494 H   0  0  0  0  0  0  0  0  0  0  0  0
    1.2238   -1.8442    3.7258 H   0  0  0  0  0  0  0  0  0  0  0  0
    0.8689   -0.1149    3.8450 H   0  0  0  0  0  0  0  0  0  0  0  0
    0.7741   -0.9326    2.2810 H   0  0  0  0  0  0  0  0  0  0  0  0
   -1.2485   -5.7933    1.4323 H   0  0  0  0  0  0  0  0  0  0  0  0
   -1.3276   -6.2418   -0.2974 H   0  0  0  0  0  0  0  0  0  0  0  0
    1.0095   -6.4474    0.6075 H   0  0  0  0  0  0  0  0  0  0  0  0
    0.9169   -5.2143   -0.6554 H   0  0  0  0  0  0  0  0  0  0  0  0
    0.9773   -4.7344    1.0461 H   0  0  0  0  0  0  0  0  0  0  0  0
   -4.3024    2.7299   -0.5573 H   0  0  0  0  0  0  0  0  0  0  0  0
   -4.7372    2.5400    1.1352 H   0  0  0  0  0  0  0  0  0  0  0  0
   -6.1251    0.5708    0.6418 H   0  0  0  0  0  0  0  0  0  0  0  0
   -6.6538    1.9516   -0.3241 H   0  0  0  0  0  0  0  0  0  0  0  0
   -5.7120    0.6543   -1.0681 H   0  0  0  0  0  0  0  0  0  0  0  0
   -4.4610    2.1307   -2.3885 H   0  0  0  0  0  0  0  0  0  0  0  0
   -3.7637    1.8341   -3.9725 H   0  0  0  0  0  0  0  0  0  0  0  0
   -1.4762    1.9194   -3.0659 H   0  0  0  0  0  0  0  0  0  0  0  0
   -2.3435    3.4072   -2.6752 H   0  0  0  0  0  0  0  0  0  0  0  0
   -2.0897    2.1749   -1.4338 H   0  0  0  0  0  0  0  0  0  0  0  0
   -2.0691   -4.2856   -3.3557 H   0  0  0  0  0  0  0  0  0  0  0  0
   -1.8360   -4.3326   -5.1252 H   0  0  0  0  0  0  0  0  0  0  0  0
   -3.5030   -6.0333   -4.4172 H   0  0  0  0  0  0  0  0  0  0  0  0
   -4.2912   -4.7955   -5.4010 H   0  0  0  0  0  0  0  0  0  0  0  0
   -4.4787   -4.7808   -3.6433 H   0  0  0  0  0  0  0  0  0  0  0  0
   -4.1930    1.2546   -5.9984 H   0  0  0  0  0  0  0  0  0  0  0  0
   -3.9990    0.5195   -8.3077 H   0  0  0  0  0  0  0  0  0  0  0  0
   -2.7536   -3.3989   -7.0701 H   0  0  0  0  0  0  0  0  0  0  0  0
   -3.5840   -0.9620   -9.8648 H   0  0  0  0  0  0  0  0  0  0  0  0
   -1.4573   -3.6434  -13.9928 H   0  0  0  0  0  0  0  0  0  0  0  0
    0.2387   -5.4055  -14.1699 H   0  0  0  0  0  0  0  0  0  0  0  0
  1  2  2  0  0  0  0
  2  3  1  0  0  0  0
  3  4  2  0  0  0  0
  3  5  1  0  0  0  0
  5  6  2  0  0  0  0
  6  7  1  0  0  0  0
  7  8  2  0  0  0  0
  8  9  1  0  0  0  0
  9 10  2  0  0  0  0
 10 11  1  0  0  0  0
 11 12  2  0  0  0  0
 12 13  1  0  0  0  0
 13 14  3  0  0  0  0
 12 15  1  0  0  0  0
 15 16  3  0  0  0  0
  8 17  1  0  0  0  0
 17 18  1  0  0  0  0
 18 19  1  0  0  0  0
 19 20  2  0  0  0  0
 20 21  1  0  0  0  0
 21 22  1  0  0  0  0
 21 23  1  0  0  0  0
  1 24  1  0  0  0  0
 24 25  2  0  0  0  0
 25 26  1  0  0  0  0
 26 27  2  0  0  0  0
 27 28  1  0  0  0  0
 28 29  2  0  0  0  0
 29 30  1  0  0  0  0
 30 31  1  0  0  0  0
 31 32  2  0  0  0  0
 30 33  1  0  0  0  0
 33 34  1  0  0  0  0
 29 35  1  0  0  0  0
 35 36  1  0  0  0  0
 36 37  1  0  0  0  0
 37 38  2  0  0  0  0
 38 39  1  0  0  0  0
 39 40  1  0  0  0  0
 40 41  1  0  0  0  0
 39 42  1  0  0  0  0
 37 43  1  0  0  0  0
 43 44  2  0  0  0  0
 44 45  1  0  0  0  0
 45 46  1  0  0  0  0
 46 47  1  0  0  0  0
 47 48  1  0  0  0  0
 44 49  1  0  0  0  0
 49 50  1  0  0  0  0
 50 51  1  0  0  0  0
 49 52  1  0  0  0  0
 52 53  2  0  0  0  0
 53 54  1  0  0  0  0
 54 55  1  0  0  0  0
 55 56  1  0  0  0  0
 54 57  1  0  0  0  0
 57 58  2  0  0  0  0
 58 59  1  0  0  0  0
 59 60  2  0  0  0  0
 60 61  1  0  0  0  0
 61 62  2  0  0  0  0
 61 63  1  0  0  0  0
 63 64  2  0  0  0  0
 64 65  1  0  0  0  0
 65 66  2  0  0  0  0
 65 67  1  0  0  0  0
 67 68  2  0  0  0  0
 68 69  1  0  0  0  0
 69 70  2  0  0  0  0
 70 71  1  0  0  0  0
 71 72  1  0  0  0  0
 71 73  2  0  0  0  0
 73 74  1  0  0  0  0
 68 75  1  0  0  0  0
 75 76  2  0  0  0  0
 76 77  1  0  0  0  0
 77 78  3  0  0  0  0
 76 79  1  0  0  0  0
 79 80  3  0  0  0  0
 11  2  1  0  0  0  0
 23 17  1  0  0  0  0
 32 24  1  0  0  0  0
 45 35  2  0  0  0  0
 58 52  1  0  0  0  0
 75 64  1  0  0  0  0
 10  5  1  0  0  0  0
 22 18  1  0  0  0  0
 31 27  1  0  0  0  0
 42 36  2  0  0  0  0
 53 43  1  0  0  0  0
 62 57  1  0  0  0  0
 73 67  1  0  0  0  0
 23  7  1  0  0  0  0
 46 28  1  0  0  0  0
  1 81  1  0  0  0  0
  6 82  1  0  0  0  0
  9 83  1  0  0  0  0
 17 84  1  0  0  0  0
 18 85  1  0  0  0  0
 19 86  1  0  0  0  0
 20 87  1  0  0  0  0
 21 88  1  0  0  0  0
 22 89  1  0  0  0  0
 22 90  1  0  0  0  0
 23 91  1  0  0  0  0
 25 92  1  0  0  0  0
 26 93  1  0  0  0  0
 32 94  1  0  0  0  0
 33 95  1  0  0  0  0
 33 96  1  0  0  0  0
 34 97  1  0  0  0  0
 34 98  1  0  0  0  0
 34 99  1  0  0  0  0
 40100  1  0  0  0  0
 40101  1  0  0  0  0
 41102  1  0  0  0  0
 41103  1  0  0  0  0
 41104  1  0  0  0  0
 47105  1  0  0  0  0
 47106  1  0  0  0  0
 48107  1  0  0  0  0
 48108  1  0  0  0  0
 48109  1  0  0  0  0
 50110  1  0  0  0  0
 50111  1  0  0  0  0
 51112  1  0  0  0  0
 51113  1  0  0  0  0
 51114  1  0  0  0  0
 55115  1  0  0  0  0
 55116  1  0  0  0  0
 56117  1  0  0  0  0
 56118  1  0  0  0  0
 56119  1  0  0  0  0
 59120  1  0  0  0  0
 60121  1  0  0  0  0
 62122  1  0  0  0  0
 63123  1  0  0  0  0
 69124  1  0  0  0  0
 70125  1  0  0  0  0
M  END
