95

C         -5.05640        0.85890       -3.48910
C         -5.27090       -0.42770       -3.92020
C         -4.56440       -1.60770       -3.43930
O         -3.64380       -1.63900       -2.62800
C         -5.16610       -2.76810       -4.10640
C         -4.82750       -4.10850       -3.93620
C         -5.57520       -4.97370       -4.69810
C         -6.58910       -4.53810       -5.56150
C         -6.93400       -3.21800       -5.73680
C         -6.18200       -2.31930       -4.97640
C         -6.25190       -0.85950       -4.89790
C         -7.08200       -0.06520       -5.64510
C         -7.13750        1.34390       -5.59780
N         -7.24690        2.48720       -5.63210
C         -8.00520       -0.54570       -6.59800
N         -8.77720       -0.85600       -7.38920
C         -6.91680       -5.93940       -6.01210
C         -6.40320       -6.38730       -7.40280
C         -5.17310       -5.56290       -7.69090
C         -4.21070       -5.97330       -6.87590
C         -4.77260       -7.08290       -6.02180
C         -5.74940       -7.72460       -7.01990
C         -5.78500       -6.42420       -5.05210
C         -4.13690        1.36740       -2.56170
C         -4.10580        2.73020       -2.25440
C         -3.13800        3.10540       -1.34220
S         -2.73210        4.68450       -0.69170
C         -1.45830        3.94950        0.21710
C         -0.39950        4.31880        1.05570
C          0.07280        5.59230        1.44540
C          1.31050        5.68160        2.16350
N          1.66850        6.93350        2.40030
S          0.54160        7.91590        1.77980
N         -0.44520        6.78110        1.18100
C          1.95730        4.49030        2.56210
C          3.11500        4.28110        3.32330
C          3.23310        2.89950        3.51290
N          2.20670        2.24590        2.88000
C          1.89610        0.90910        3.33520
C          1.26110        0.93630        4.72460
C          1.41490        3.20270        2.26830
C          0.29350        3.11950        1.40360
N         -0.31490        2.06650        0.75000
C         -1.37330        2.56310        0.03770
C         -2.32180        2.06210       -0.85680
Se        -2.80770        0.41790       -1.59530
C          0.12620        0.71460        0.50110
C         -0.70800       -0.31030        1.27080
C          4.33920        2.53920        4.28380
C          5.07030        3.68550        4.66190
S          4.37700        5.18940        4.07870
C          6.20040        3.44520        5.41900
C          6.45390        2.09860        5.69700
Se         5.12160        0.97740        4.93530
C          7.58050        1.71560        6.43550
C          8.03090        0.47050        6.80050
C          7.38290       -0.80390        6.48560
O          6.33660       -0.96980        5.87310
C          8.24300       -1.84620        7.06020
C          8.26810       -3.24610        7.14810
C          9.37250       -3.66450        7.83930
Cl         9.79950       -5.27730        8.18070
S         10.39560       -2.36050        8.39290
C          9.31990       -1.23110        7.68100
C          9.24410        0.20110        7.55740
C         10.16720        1.07580        8.07340
C         11.28760        0.59610        8.78410
N         12.20080        0.21140        9.36260
C         10.12400        2.47860        7.97150
N         10.14570        3.62600        7.92280
H         -5.69390        1.62570       -3.91490
H         -4.04220       -4.40020       -3.25660
H         -7.71940       -2.90250       -6.40280
H         -7.93210       -6.27780       -5.81550
H         -7.16240       -6.40450       -8.17990
H         -5.14720       -4.75300       -8.39610
H         -3.21950       -5.57440       -6.76360
H         -4.04660       -7.73440       -5.54230
H         -6.44020       -8.42930       -6.55910
H         -5.24280       -8.20070       -7.85800
H         -6.06030       -7.08200       -4.22990
H         -4.78940        3.42760       -2.70880
H          2.84160        0.35200        3.37560
H          1.22730        0.41030        2.64630
H          0.34170        1.51830        4.71070
H          1.94200        1.37830        5.44900
H          1.03300       -0.07710        5.04200
H          1.19220        0.63800        0.72070
H         -0.00180        0.52180       -0.57290
H         -0.25430       -1.29410        1.19020
H         -0.80220       -0.04460        2.32140
H         -1.71090       -0.36300        0.84720
H          6.85080        4.22720        5.77320
H          8.18780        2.55630        6.75340
H          7.52900       -3.90500        6.73320
