
  xtb     02012223103D
 energy: -200.540426073040 gnorm: 0.000341269896 xtb: 6.4.1 (unknown)
122135  0     0  0            999 V2000
   -4.0923    4.0866    3.3143 C   0  0  0  0  0  0  0  0  0  0  0  0
   -5.1289    4.2957    2.4465 C   0  0  0  0  0  0  0  0  0  0  0  0
   -5.1032    4.0444    0.9926 C   0  0  0  0  0  0  0  0  0  0  0  0
   -4.2619    3.4423    0.3527 O   0  0  0  0  0  0  0  0  0  0  0  0
   -6.2634    4.7692    0.4395 C   0  0  0  0  0  0  0  0  0  0  0  0
   -6.6207    4.8705   -0.9026 C   0  0  0  0  0  0  0  0  0  0  0  0
   -7.7352    5.6421   -1.1285 C   0  0  0  0  0  0  0  0  0  0  0  0
   -8.4419    6.2729   -0.0961 C   0  0  0  0  0  0  0  0  0  0  0  0
   -8.1037    6.1773    1.2329 C   0  0  0  0  0  0  0  0  0  0  0  0
   -6.9740    5.3939    1.4838 C   0  0  0  0  0  0  0  0  0  0  0  0
   -6.3220    5.0621    2.7462 C   0  0  0  0  0  0  0  0  0  0  0  0
   -6.8046    5.3309    4.0007 C   0  0  0  0  0  0  0  0  0  0  0  0
   -7.9746    6.0717    4.2633 C   0  0  0  0  0  0  0  0  0  0  0  0
   -8.9126    6.6723    4.5430 N   0  0  0  0  0  0  0  0  0  0  0  0
   -6.2252    4.8496    5.1938 C   0  0  0  0  0  0  0  0  0  0  0  0
   -5.8341    4.4551    6.1990 N   0  0  0  0  0  0  0  0  0  0  0  0
   -9.4278    6.9026   -1.0480 C   0  0  0  0  0  0  0  0  0  0  0  0
   -9.2478    8.4040   -1.3833 C   0  0  0  0  0  0  0  0  0  0  0  0
   -7.7826    8.7128   -1.2004 C   0  0  0  0  0  0  0  0  0  0  0  0
   -7.1170    8.1124   -2.1779 C   0  0  0  0  0  0  0  0  0  0  0  0
   -8.1205    7.3861   -3.0394 C   0  0  0  0  0  0  0  0  0  0  0  0
   -9.3210    8.3381   -2.9172 C   0  0  0  0  0  0  0  0  0  0  0  0
   -8.6433    6.1956   -2.1979 C   0  0  0  0  0  0  0  0  0  0  0  0
   -2.9277    3.3018    3.1484 C   0  0  0  0  0  0  0  0  0  0  0  0
   -1.4625    4.0369    3.8247 S   0  0  0  0  0  0  0  0  0  0  0  0
   -0.5372    2.7352    3.2266 C   0  0  0  0  0  0  0  0  0  0  0  0
    0.8110    2.3540    3.1195 C   0  0  0  0  0  0  0  0  0  0  0  0
    2.0171    2.9006    3.6108 C   0  0  0  0  0  0  0  0  0  0  0  0
    3.2511    2.2013    3.3620 C   0  0  0  0  0  0  0  0  0  0  0  0
    4.2891    2.7965    3.9277 N   0  0  0  0  0  0  0  0  0  0  0  0
    3.7676    4.1201    4.6996 S   0  0  0  0  0  0  0  0  0  0  0  0
    2.1944    3.9888    4.3425 N   0  0  0  0  0  0  0  0  0  0  0  0
    3.2435    1.0712    2.5129 C   0  0  0  0  0  0  0  0  0  0  0  0
    4.2754    0.3317    1.9092 C   0  0  0  0  0  0  0  0  0  0  0  0
    6.0036    0.2423    1.9263 S   0  0  0  0  0  0  0  0  0  0  0  0
    5.9289   -0.9613    0.6640 C   0  0  0  0  0  0  0  0  0  0  0  0
    6.9316   -1.6730   -0.0342 C   0  0  0  0  0  0  0  0  0  0  0  0
    8.3911   -1.4569    0.2171 C   0  0  0  0  0  0  0  0  0  0  0  0
    8.8901   -0.2264   -0.5421 C   0  0  0  0  0  0  0  0  0  0  0  0
    6.3839   -2.5078   -0.9658 C   0  0  0  0  0  0  0  0  0  0  0  0
    4.6329   -2.4477   -0.9979 S   0  0  0  0  0  0  0  0  0  0  0  0
    4.6313   -1.2674    0.2658 C   0  0  0  0  0  0  0  0  0  0  0  0
    3.6779   -0.5321    0.9873 C   0  0  0  0  0  0  0  0  0  0  0  0
    2.3143   -0.4013    1.0281 N   0  0  0  0  0  0  0  0  0  0  0  0
    2.0293    0.5764    1.9697 C   0  0  0  0  0  0  0  0  0  0  0  0
    0.8067    1.1321    2.4053 C   0  0  0  0  0  0  0  0  0  0  0  0
   -0.4967    0.7267    2.1697 N   0  0  0  0  0  0  0  0  0  0  0  0
   -1.3280    1.7378    2.6344 C   0  0  0  0  0  0  0  0  0  0  0  0
   -2.6982    2.0489    2.5815 C   0  0  0  0  0  0  0  0  0  0  0  0
   -3.7737    1.1411    2.0738 C   0  0  0  0  0  0  0  0  0  0  0  0
   -4.8756    0.8821    3.1024 C   0  0  0  0  0  0  0  0  0  0  0  0
   -0.8648   -0.6750    2.2156 C   0  0  0  0  0  0  0  0  0  0  0  0
   -1.4219   -1.0641    3.5849 C   0  0  0  0  0  0  0  0  0  0  0  0
    1.5164   -0.7753   -0.1231 C   0  0  0  0  0  0  0  0  0  0  0  0
    1.1843    0.4371   -0.9886 C   0  0  0  0  0  0  0  0  0  0  0  0
    7.1076   -3.4255   -1.9074 C   0  0  0  0  0  0  0  0  0  0  0  0
    6.3489   -3.5691   -3.1858 C   0  0  0  0  0  0  0  0  0  0  0  0
    5.4691   -4.5558   -3.3989 C   0  0  0  0  0  0  0  0  0  0  0  0
    5.1388   -5.5427   -2.4023 C   0  0  0  0  0  0  0  0  0  0  0  0
    4.0789   -6.4086   -2.5618 C   0  0  0  0  0  0  0  0  0  0  0  0
    3.1781   -6.3308   -3.7181 C   0  0  0  0  0  0  0  0  0  0  0  0
    3.0196   -5.3454   -4.4116 O   0  0  0  0  0  0  0  0  0  0  0  0
    2.4711   -7.4911   -4.0143 N   0  0  0  0  0  0  0  0  0  0  0  0
    1.7030   -7.4855   -5.2552 C   0  0  0  0  0  0  0  0  0  0  0  0
    2.5371   -7.9907   -6.4249 C   0  0  0  0  0  0  0  0  0  0  0  0
    2.4716   -8.6125   -3.2368 C   0  0  0  0  0  0  0  0  0  0  0  0
    1.7567  -10.0078   -3.7508 S   0  0  0  0  0  0  0  0  0  0  0  0
    3.0422   -8.5254   -2.0006 N   0  0  0  0  0  0  0  0  0  0  0  0
    3.8078   -7.4489   -1.5660 C   0  0  0  0  0  0  0  0  0  0  0  0
    4.2248   -7.4364   -0.4238 O   0  0  0  0  0  0  0  0  0  0  0  0
    2.8999   -9.6402   -1.0699 C   0  0  0  0  0  0  0  0  0  0  0  0
    4.0150  -10.6613   -1.2512 C   0  0  0  0  0  0  0  0  0  0  0  0
    5.9994   -5.5804   -1.1790 C   0  0  0  0  0  0  0  0  0  0  0  0
    7.3167   -4.8290   -1.3219 C   0  0  0  0  0  0  0  0  0  0  0  0
   -4.0928    4.6785    4.2243 H   0  0  0  0  0  0  0  0  0  0  0  0
   -6.0466    4.3723   -1.6682 H   0  0  0  0  0  0  0  0  0  0  0  0
   -8.6526    6.6715    2.0172 H   0  0  0  0  0  0  0  0  0  0  0  0
  -10.4718    6.6331   -0.9014 H   0  0  0  0  0  0  0  0  0  0  0  0
   -9.9447    9.0660   -0.8763 H   0  0  0  0  0  0  0  0  0  0  0  0
   -7.3870    9.2709   -0.3721 H   0  0  0  0  0  0  0  0  0  0  0  0
   -6.0543    8.0681   -2.3289 H   0  0  0  0  0  0  0  0  0  0  0  0
   -7.7911    7.1215   -4.0409 H   0  0  0  0  0  0  0  0  0  0  0  0
  -10.2519    7.9125   -3.2895 H   0  0  0  0  0  0  0  0  0  0  0  0
   -9.1429    9.3031   -3.3893 H   0  0  0  0  0  0  0  0  0  0  0  0
   -9.1753    5.4623   -2.8012 H   0  0  0  0  0  0  0  0  0  0  0  0
    8.9640   -2.3358   -0.0812 H   0  0  0  0  0  0  0  0  0  0  0  0
    8.5373   -1.2991    1.2876 H   0  0  0  0  0  0  0  0  0  0  0  0
    8.7506   -0.3545   -1.6136 H   0  0  0  0  0  0  0  0  0  0  0  0
    8.3408    0.6570   -0.2265 H   0  0  0  0  0  0  0  0  0  0  0  0
    9.9470   -0.0654   -0.3457 H   0  0  0  0  0  0  0  0  0  0  0  0
   -3.3338    0.1906    1.7779 H   0  0  0  0  0  0  0  0  0  0  0  0
   -4.2076    1.5891    1.1775 H   0  0  0  0  0  0  0  0  0  0  0  0
   -4.4637    0.4515    4.0136 H   0  0  0  0  0  0  0  0  0  0  0  0
   -5.3904    1.8001    3.3698 H   0  0  0  0  0  0  0  0  0  0  0  0
   -5.6044    0.1861    2.6935 H   0  0  0  0  0  0  0  0  0  0  0  0
    0.0383   -1.2612    2.0498 H   0  0  0  0  0  0  0  0  0  0  0  0
   -1.5876   -0.8980    1.4247 H   0  0  0  0  0  0  0  0  0  0  0  0
   -1.6612   -2.1244    3.5939 H   0  0  0  0  0  0  0  0  0  0  0  0
   -0.6800   -0.8677    4.3562 H   0  0  0  0  0  0  0  0  0  0  0  0
   -2.3194   -0.5018    3.8214 H   0  0  0  0  0  0  0  0  0  0  0  0
    0.5955   -1.2758    0.1759 H   0  0  0  0  0  0  0  0  0  0  0  0
    2.1131   -1.4893   -0.6962 H   0  0  0  0  0  0  0  0  0  0  0  0
    0.6492    0.1163   -1.8778 H   0  0  0  0  0  0  0  0  0  0  0  0
    0.5617    1.1407   -0.4413 H   0  0  0  0  0  0  0  0  0  0  0  0
    2.0966    0.9442   -1.2944 H   0  0  0  0  0  0  0  0  0  0  0  0
    8.0852   -2.9774   -2.1160 H   0  0  0  0  0  0  0  0  0  0  0  0
    6.5117   -2.8187   -3.9456 H   0  0  0  0  0  0  0  0  0  0  0  0
    4.9359   -4.5887   -4.3347 H   0  0  0  0  0  0  0  0  0  0  0  0
    0.8232   -8.1147   -5.1140 H   0  0  0  0  0  0  0  0  0  0  0  0
    1.3964   -6.4526   -5.4291 H   0  0  0  0  0  0  0  0  0  0  0  0
    2.8501   -9.0175   -6.2525 H   0  0  0  0  0  0  0  0  0  0  0  0
    1.9439   -7.9560   -7.3338 H   0  0  0  0  0  0  0  0  0  0  0  0
    3.4175   -7.3662   -6.5574 H   0  0  0  0  0  0  0  0  0  0  0  0
    1.9270  -10.1031   -1.2405 H   0  0  0  0  0  0  0  0  0  0  0  0
    2.9383   -9.2158   -0.0651 H   0  0  0  0  0  0  0  0  0  0  0  0
    3.8872  -11.4676   -0.5351 H   0  0  0  0  0  0  0  0  0  0  0  0
    3.9877  -11.0793   -2.2545 H   0  0  0  0  0  0  0  0  0  0  0  0
    4.9832  -10.1951   -1.0842 H   0  0  0  0  0  0  0  0  0  0  0  0
    5.4104   -5.1561   -0.3599 H   0  0  0  0  0  0  0  0  0  0  0  0
    6.1986   -6.6126   -0.8855 H   0  0  0  0  0  0  0  0  0  0  0  0
    7.9786   -5.3801   -1.9943 H   0  0  0  0  0  0  0  0  0  0  0  0
    7.8004   -4.7617   -0.3464 H   0  0  0  0  0  0  0  0  0  0  0  0
  1  2  2  0  0  0  0
  2  3  1  0  0  0  0
  3  4  2  0  0  0  0
  3  5  1  0  0  0  0
  5  6  2  0  0  0  0
  6  7  1  0  0  0  0
  7  8  2  0  0  0  0
  8  9  1  0  0  0  0
  9 10  2  0  0  0  0
 10 11  1  0  0  0  0
 11 12  2  0  0  0  0
 12 13  1  0  0  0  0
 13 14  3  0  0  0  0
 12 15  1  0  0  0  0
 15 16  3  0  0  0  0
  8 17  1  0  0  0  0
 17 18  1  0  0  0  0
 18 19  1  0  0  0  0
 19 20  2  0  0  0  0
 20 21  1  0  0  0  0
 21 22  1  0  0  0  0
 21 23  1  0  0  0  0
  1 24  1  0  0  0  0
 24 25  1  0  0  0  0
 25 26  1  0  0  0  0
 26 27  1  0  0  0  0
 27 28  1  0  0  0  0
 28 29  1  0  0  0  0
 29 30  2  0  0  0  0
 30 31  1  0  0  0  0
 31 32  1  0  0  0  0
 29 33  1  0  0  0  0
 33 34  1  0  0  0  0
 34 35  1  0  0  0  0
 35 36  1  0  0  0  0
 36 37  1  0  0  0  0
 37 38  1  0  0  0  0
 38 39  1  0  0  0  0
 37 40  2  0  0  0  0
 40 41  1  0  0  0  0
 41 42  1  0  0  0  0
 42 43  1  0  0  0  0
 43 44  1  0  0  0  0
 44 45  1  0  0  0  0
 45 46  1  0  0  0  0
 46 47  1  0  0  0  0
 47 48  1  0  0  0  0
 48 49  1  0  0  0  0
 49 50  1  0  0  0  0
 50 51  1  0  0  0  0
 47 52  1  0  0  0  0
 52 53  1  0  0  0  0
 44 54  1  0  0  0  0
 54 55  1  0  0  0  0
 40 56  1  0  0  0  0
 56 57  1  0  0  0  0
 57 58  2  0  0  0  0
 58 59  1  0  0  0  0
 59 60  2  0  0  0  0
 60 61  1  0  0  0  0
 61 62  2  0  0  0  0
 61 63  1  0  0  0  0
 63 64  1  0  0  0  0
 64 65  1  0  0  0  0
 63 66  1  0  0  0  0
 66 67  2  0  0  0  0
 66 68  1  0  0  0  0
 68 69  1  0  0  0  0
 69 70  2  0  0  0  0
 68 71  1  0  0  0  0
 71 72  1  0  0  0  0
 59 73  1  0  0  0  0
 73 74  1  0  0  0  0
 11  2  1  0  0  0  0
 23 17  1  0  0  0  0
 49 24  2  0  0  0  0
 74 56  1  0  0  0  0
 10  5  1  0  0  0  0
 22 18  1  0  0  0  0
 48 26  2  0  0  0  0
 69 60  1  0  0  0  0
 23  7  1  0  0  0  0
 46 27  2  0  0  0  0
 32 28  2  0  0  0  0
 45 33  2  0  0  0  0
 43 34  2  0  0  0  0
 42 36  2  0  0  0  0
  1 75  1  0  0  0  0
  6 76  1  0  0  0  0
  9 77  1  0  0  0  0
 17 78  1  0  0  0  0
 18 79  1  0  0  0  0
 19 80  1  0  0  0  0
 20 81  1  0  0  0  0
 21 82  1  0  0  0  0
 22 83  1  0  0  0  0
 22 84  1  0  0  0  0
 23 85  1  0  0  0  0
 38 86  1  0  0  0  0
 38 87  1  0  0  0  0
 39 88  1  0  0  0  0
 39 89  1  0  0  0  0
 39 90  1  0  0  0  0
 50 91  1  0  0  0  0
 50 92  1  0  0  0  0
 51 93  1  0  0  0  0
 51 94  1  0  0  0  0
 51 95  1  0  0  0  0
 52 96  1  0  0  0  0
 52 97  1  0  0  0  0
 53 98  1  0  0  0  0
 53 99  1  0  0  0  0
 53100  1  0  0  0  0
 54101  1  0  0  0  0
 54102  1  0  0  0  0
 55103  1  0  0  0  0
 55104  1  0  0  0  0
 55105  1  0  0  0  0
 56106  1  0  0  0  0
 57107  1  0  0  0  0
 58108  1  0  0  0  0
 64109  1  0  0  0  0
 64110  1  0  0  0  0
 65111  1  0  0  0  0
 65112  1  0  0  0  0
 65113  1  0  0  0  0
 71114  1  0  0  0  0
 71115  1  0  0  0  0
 72116  1  0  0  0  0
 72117  1  0  0  0  0
 72118  1  0  0  0  0
 73119  1  0  0  0  0
 73120  1  0  0  0  0
 74121  1  0  0  0  0
 74122  1  0  0  0  0
M  END
