
  xtb     02022223223D
 energy: -208.011597661643 gnorm: 0.000383166445 xtb: 6.4.1 (unknown)
125139  0     0  0            999 V2000
   -2.7352   -5.8607    1.2193 C   0  0  0  0  0  0  0  0  0  0  0  0
   -3.1018   -7.0598    0.6883 C   0  0  0  0  0  0  0  0  0  0  0  0
   -3.7479   -8.0824    1.5532 C   0  0  0  0  0  0  0  0  0  0  0  0
   -4.1674   -7.9174    2.6773 O   0  0  0  0  0  0  0  0  0  0  0  0
   -3.7202   -9.3331    0.7705 C   0  0  0  0  0  0  0  0  0  0  0  0
   -4.1181  -10.6001    1.1904 C   0  0  0  0  0  0  0  0  0  0  0  0
   -3.9621  -11.5803    0.2398 C   0  0  0  0  0  0  0  0  0  0  0  0
   -3.4325  -11.3260   -1.0325 C   0  0  0  0  0  0  0  0  0  0  0  0
   -3.0382  -10.0814   -1.4623 C   0  0  0  0  0  0  0  0  0  0  0  0
   -3.2069   -9.0675   -0.5165 C   0  0  0  0  0  0  0  0  0  0  0  0
   -2.9552   -7.6323   -0.6307 C   0  0  0  0  0  0  0  0  0  0  0  0
   -2.8531   -6.9381   -1.8098 C   0  0  0  0  0  0  0  0  0  0  0  0
   -2.8032   -7.5411   -3.0822 C   0  0  0  0  0  0  0  0  0  0  0  0
   -2.7390   -7.9741   -4.1439 N   0  0  0  0  0  0  0  0  0  0  0  0
   -2.8957   -5.5330   -1.9031 C   0  0  0  0  0  0  0  0  0  0  0  0
   -2.9812   -4.3978   -2.0535 N   0  0  0  0  0  0  0  0  0  0  0  0
   -3.5667  -12.7647   -1.4638 C   0  0  0  0  0  0  0  0  0  0  0  0
   -4.7384  -13.1205   -2.4118 C   0  0  0  0  0  0  0  0  0  0  0  0
   -5.8173  -12.0961   -2.1608 C   0  0  0  0  0  0  0  0  0  0  0  0
   -6.3279  -12.3328   -0.9598 C   0  0  0  0  0  0  0  0  0  0  0  0
   -5.6035  -13.5212   -0.3771 C   0  0  0  0  0  0  0  0  0  0  0  0
   -5.3267  -14.3240   -1.6583 C   0  0  0  0  0  0  0  0  0  0  0  0
   -4.1657  -13.0462   -0.0497 C   0  0  0  0  0  0  0  0  0  0  0  0
   -1.8429   -4.8880    0.7119 C   0  0  0  0  0  0  0  0  0  0  0  0
   -0.6920   -5.0115   -0.0559 C   0  0  0  0  0  0  0  0  0  0  0  0
   -0.0424   -6.3049   -0.4295 C   0  0  0  0  0  0  0  0  0  0  0  0
    1.4060   -6.3721    0.0556 C   0  0  0  0  0  0  0  0  0  0  0  0
   -0.1439   -3.7550   -0.3505 C   0  0  0  0  0  0  0  0  0  0  0  0
    1.2254   -3.2562   -1.3197 S   0  0  0  0  0  0  0  0  0  0  0  0
    0.8137   -1.6066   -1.0182 C   0  0  0  0  0  0  0  0  0  0  0  0
    1.2518   -0.3215   -1.3694 C   0  0  0  0  0  0  0  0  0  0  0  0
    2.2888    0.0775   -2.2445 C   0  0  0  0  0  0  0  0  0  0  0  0
    2.4541    1.4811   -2.5114 C   0  0  0  0  0  0  0  0  0  0  0  0
    3.4099    1.7765   -3.3710 N   0  0  0  0  0  0  0  0  0  0  0  0
    4.1739    0.2774   -3.9000 Se  0  0  0  0  0  2  0  0  0  0  0  0
    3.1206   -0.7154   -2.8918 N   0  0  0  0  0  0  0  0  0  0  0  0
    1.6347    2.3983   -1.8129 C   0  0  0  0  0  0  0  0  0  0  0  0
    1.6625    3.8020   -1.7994 C   0  0  0  0  0  0  0  0  0  0  0  0
    2.5241    5.1021   -2.5481 S   0  0  0  0  0  0  0  0  0  0  0  0
    1.6180    6.2303   -1.5690 C   0  0  0  0  0  0  0  0  0  0  0  0
    1.6615    7.6426   -1.4679 C   0  0  0  0  0  0  0  0  0  0  0  0
    2.5498    8.4513   -2.3615 C   0  0  0  0  0  0  0  0  0  0  0  0
    1.7475    9.1093   -3.4840 C   0  0  0  0  0  0  0  0  0  0  0  0
    0.7787    8.0972   -0.5299 C   0  0  0  0  0  0  0  0  0  0  0  0
   -0.1419    6.7960    0.2116 S   0  0  0  0  0  0  0  0  0  0  0  0
    0.7034    5.6157   -0.7229 C   0  0  0  0  0  0  0  0  0  0  0  0
    0.7245    4.2182   -0.8546 C   0  0  0  0  0  0  0  0  0  0  0  0
    0.0984    3.1335   -0.3052 N   0  0  0  0  0  0  0  0  0  0  0  0
    0.6384    1.9935   -0.8815 C   0  0  0  0  0  0  0  0  0  0  0  0
    0.3799    0.6038   -0.7275 C   0  0  0  0  0  0  0  0  0  0  0  0
   -0.5739   -0.1142   -0.0260 N   0  0  0  0  0  0  0  0  0  0  0  0
   -0.3122   -1.4470   -0.2067 C   0  0  0  0  0  0  0  0  0  0  0  0
   -0.8600   -2.6738    0.1793 C   0  0  0  0  0  0  0  0  0  0  0  0
   -2.1946   -3.2113    1.1231 S   0  0  0  0  0  0  0  0  0  0  0  0
   -1.8757    0.2870    0.4594 C   0  0  0  0  0  0  0  0  0  0  0  0
   -2.7400    0.8490   -0.6666 C   0  0  0  0  0  0  0  0  0  0  0  0
   -0.6736    3.2976    0.9052 C   0  0  0  0  0  0  0  0  0  0  0  0
    0.0660    2.7452    2.1215 C   0  0  0  0  0  0  0  0  0  0  0  0
    0.4855    9.4996   -0.0724 C   0  0  0  0  0  0  0  0  0  0  0  0
    1.6713   10.4063   -0.2011 C   0  0  0  0  0  0  0  0  0  0  0  0
    2.6892   10.2455    0.6482 C   0  0  0  0  0  0  0  0  0  0  0  0
    2.6408    9.2001    1.6436 C   0  0  0  0  0  0  0  0  0  0  0  0
    3.7566    8.4731    1.9885 C   0  0  0  0  0  0  0  0  0  0  0  0
    3.7322    7.5292    3.1029 C   0  0  0  0  0  0  0  0  0  0  0  0
    2.7542    7.3026    3.7915 O   0  0  0  0  0  0  0  0  0  0  0  0
    4.9285    6.8803    3.3875 N   0  0  0  0  0  0  0  0  0  0  0  0
    4.9142    5.9737    4.5312 C   0  0  0  0  0  0  0  0  0  0  0  0
    5.2875    6.6948    5.8193 C   0  0  0  0  0  0  0  0  0  0  0  0
    6.1023    7.0905    2.7231 C   0  0  0  0  0  0  0  0  0  0  0  0
    7.5033    6.3790    3.2290 S   0  0  0  0  0  0  0  0  0  0  0  0
    6.0825    7.8922    1.6186 N   0  0  0  0  0  0  0  0  0  0  0  0
    4.9706    8.5975    1.1800 C   0  0  0  0  0  0  0  0  0  0  0  0
    5.0391    9.2487    0.1543 O   0  0  0  0  0  0  0  0  0  0  0  0
    7.3019    8.0492    0.8321 C   0  0  0  0  0  0  0  0  0  0  0  0
    8.1685    9.1793    1.3707 C   0  0  0  0  0  0  0  0  0  0  0  0
    1.2965    8.9514    2.2509 C   0  0  0  0  0  0  0  0  0  0  0  0
    0.1454    9.5332    1.4283 C   0  0  0  0  0  0  0  0  0  0  0  0
   -3.1829   -5.6338    2.1831 H   0  0  0  0  0  0  0  0  0  0  0  0
   -4.5141  -10.7565    2.1816 H   0  0  0  0  0  0  0  0  0  0  0  0
   -2.6262   -9.8975   -2.4409 H   0  0  0  0  0  0  0  0  0  0  0  0
   -2.6426  -13.2708   -1.7358 H   0  0  0  0  0  0  0  0  0  0  0  0
   -4.4505  -13.2696   -3.4489 H   0  0  0  0  0  0  0  0  0  0  0  0
   -6.0500  -11.2944   -2.8369 H   0  0  0  0  0  0  0  0  0  0  0  0
   -7.0736  -11.7680   -0.4315 H   0  0  0  0  0  0  0  0  0  0  0  0
   -6.1047  -14.0364    0.4382 H   0  0  0  0  0  0  0  0  0  0  0  0
   -4.6160  -15.1370   -1.5162 H   0  0  0  0  0  0  0  0  0  0  0  0
   -6.2357  -14.7063   -2.1202 H   0  0  0  0  0  0  0  0  0  0  0  0
   -3.6374  -13.7414    0.6002 H   0  0  0  0  0  0  0  0  0  0  0  0
   -0.0627   -6.4136   -1.5188 H   0  0  0  0  0  0  0  0  0  0  0  0
   -0.5991   -7.1353    0.0073 H   0  0  0  0  0  0  0  0  0  0  0  0
    2.0142   -5.6086   -0.4205 H   0  0  0  0  0  0  0  0  0  0  0  0
    1.4492   -6.2310    1.1334 H   0  0  0  0  0  0  0  0  0  0  0  0
    1.8268   -7.3457   -0.1831 H   0  0  0  0  0  0  0  0  0  0  0  0
    3.2891    7.7768   -2.7983 H   0  0  0  0  0  0  0  0  0  0  0  0
    3.0831    9.2087   -1.7874 H   0  0  0  0  0  0  0  0  0  0  0  0
    1.2448    8.3523   -4.0819 H   0  0  0  0  0  0  0  0  0  0  0  0
    0.9948    9.7818   -3.0793 H   0  0  0  0  0  0  0  0  0  0  0  0
    2.4093    9.6779   -4.1320 H   0  0  0  0  0  0  0  0  0  0  0  0
   -1.7787    0.9906    1.2862 H   0  0  0  0  0  0  0  0  0  0  0  0
   -2.3488   -0.6136    0.8583 H   0  0  0  0  0  0  0  0  0  0  0  0
   -2.2614    1.7022   -1.1421 H   0  0  0  0  0  0  0  0  0  0  0  0
   -3.7055    1.1578   -0.2749 H   0  0  0  0  0  0  0  0  0  0  0  0
   -2.9019    0.0850   -1.4233 H   0  0  0  0  0  0  0  0  0  0  0  0
   -0.8230    4.3726    1.0341 H   0  0  0  0  0  0  0  0  0  0  0  0
   -1.6610    2.8489    0.7948 H   0  0  0  0  0  0  0  0  0  0  0  0
   -0.5514    2.8469    3.0100 H   0  0  0  0  0  0  0  0  0  0  0  0
    0.3198    1.6965    1.9847 H   0  0  0  0  0  0  0  0  0  0  0  0
    0.9887    3.2994    2.2773 H   0  0  0  0  0  0  0  0  0  0  0  0
   -0.3617    9.8936   -0.6473 H   0  0  0  0  0  0  0  0  0  0  0  0
    1.6728   11.1812   -0.9508 H   0  0  0  0  0  0  0  0  0  0  0  0
    3.5741   10.8583    0.5841 H   0  0  0  0  0  0  0  0  0  0  0  0
    5.6151    5.1626    4.3294 H   0  0  0  0  0  0  0  0  0  0  0  0
    3.8997    5.5784    4.6051 H   0  0  0  0  0  0  0  0  0  0  0  0
    6.2946    7.0988    5.7501 H   0  0  0  0  0  0  0  0  0  0  0  0
    5.2498    5.9955    6.6492 H   0  0  0  0  0  0  0  0  0  0  0  0
    4.5885    7.5053    6.0112 H   0  0  0  0  0  0  0  0  0  0  0  0
    7.8468    7.1044    0.8567 H   0  0  0  0  0  0  0  0  0  0  0  0
    6.9880    8.2693   -0.1898 H   0  0  0  0  0  0  0  0  0  0  0  0
    7.6182   10.1170    1.3532 H   0  0  0  0  0  0  0  0  0  0  0  0
    8.4801    8.9665    2.3905 H   0  0  0  0  0  0  0  0  0  0  0  0
    9.0542    9.2819    0.7509 H   0  0  0  0  0  0  0  0  0  0  0  0
    1.1643    7.8751    2.3763 H   0  0  0  0  0  0  0  0  0  0  0  0
    1.2892    9.3610    3.2643 H   0  0  0  0  0  0  0  0  0  0  0  0
   -0.0427   10.5714    1.7099 H   0  0  0  0  0  0  0  0  0  0  0  0
   -0.7615    8.9606    1.6255 H   0  0  0  0  0  0  0  0  0  0  0  0
  1  2  2  0  0  0  0
  2  3  1  0  0  0  0
  3  4  2  0  0  0  0
  3  5  1  0  0  0  0
  5  6  2  0  0  0  0
  6  7  1  0  0  0  0
  7  8  2  0  0  0  0
  8  9  1  0  0  0  0
  9 10  2  0  0  0  0
 10 11  1  0  0  0  0
 11 12  2  0  0  0  0
 12 13  1  0  0  0  0
 13 14  3  0  0  0  0
 12 15  1  0  0  0  0
 15 16  3  0  0  0  0
  8 17  1  0  0  0  0
 17 18  1  0  0  0  0
 18 19  1  0  0  0  0
 19 20  2  0  0  0  0
 20 21  1  0  0  0  0
 21 22  1  0  0  0  0
 21 23  1  0  0  0  0
  1 24  1  0  0  0  0
 24 25  2  0  0  0  0
 25 26  1  0  0  0  0
 26 27  1  0  0  0  0
 25 28  1  0  0  0  0
 28 29  1  0  0  0  0
 29 30  1  0  0  0  0
 30 31  1  0  0  0  0
 31 32  1  0  0  0  0
 32 33  1  0  0  0  0
 33 34  2  0  0  0  0
 34 35  1  0  0  0  0
 35 36  1  0  0  0  0
 33 37  1  0  0  0  0
 37 38  1  0  0  0  0
 38 39  1  0  0  0  0
 39 40  1  0  0  0  0
 40 41  1  0  0  0  0
 41 42  1  0  0  0  0
 42 43  1  0  0  0  0
 41 44  2  0  0  0  0
 44 45  1  0  0  0  0
 45 46  1  0  0  0  0
 46 47  1  0  0  0  0
 47 48  1  0  0  0  0
 48 49  1  0  0  0  0
 49 50  1  0  0  0  0
 50 51  1  0  0  0  0
 51 52  1  0  0  0  0
 52 53  1  0  0  0  0
 53 54  1  0  0  0  0
 51 55  1  0  0  0  0
 55 56  1  0  0  0  0
 48 57  1  0  0  0  0
 57 58  1  0  0  0  0
 44 59  1  0  0  0  0
 59 60  1  0  0  0  0
 60 61  2  0  0  0  0
 61 62  1  0  0  0  0
 62 63  2  0  0  0  0
 63 64  1  0  0  0  0
 64 65  2  0  0  0  0
 64 66  1  0  0  0  0
 66 67  1  0  0  0  0
 67 68  1  0  0  0  0
 66 69  1  0  0  0  0
 69 70  2  0  0  0  0
 69 71  1  0  0  0  0
 71 72  1  0  0  0  0
 72 73  2  0  0  0  0
 71 74  1  0  0  0  0
 74 75  1  0  0  0  0
 62 76  1  0  0  0  0
 76 77  1  0  0  0  0
 11  2  1  0  0  0  0
 23 17  1  0  0  0  0
 54 24  1  0  0  0  0
 77 59  1  0  0  0  0
 10  5  1  0  0  0  0
 22 18  1  0  0  0  0
 53 28  2  0  0  0  0
 72 63  1  0  0  0  0
 23  7  1  0  0  0  0
 52 30  2  0  0  0  0
 50 31  2  0  0  0  0
 36 32  2  0  0  0  0
 49 37  2  0  0  0  0
 47 38  2  0  0  0  0
 46 40  2  0  0  0  0
  1 78  1  0  0  0  0
  6 79  1  0  0  0  0
  9 80  1  0  0  0  0
 17 81  1  0  0  0  0
 18 82  1  0  0  0  0
 19 83  1  0  0  0  0
 20 84  1  0  0  0  0
 21 85  1  0  0  0  0
 22 86  1  0  0  0  0
 22 87  1  0  0  0  0
 23 88  1  0  0  0  0
 26 89  1  0  0  0  0
 26 90  1  0  0  0  0
 27 91  1  0  0  0  0
 27 92  1  0  0  0  0
 27 93  1  0  0  0  0
 42 94  1  0  0  0  0
 42 95  1  0  0  0  0
 43 96  1  0  0  0  0
 43 97  1  0  0  0  0
 43 98  1  0  0  0  0
 55 99  1  0  0  0  0
 55100  1  0  0  0  0
 56101  1  0  0  0  0
 56102  1  0  0  0  0
 56103  1  0  0  0  0
 57104  1  0  0  0  0
 57105  1  0  0  0  0
 58106  1  0  0  0  0
 58107  1  0  0  0  0
 58108  1  0  0  0  0
 59109  1  0  0  0  0
 60110  1  0  0  0  0
 61111  1  0  0  0  0
 67112  1  0  0  0  0
 67113  1  0  0  0  0
 68114  1  0  0  0  0
 68115  1  0  0  0  0
 68116  1  0  0  0  0
 74117  1  0  0  0  0
 74118  1  0  0  0  0
 75119  1  0  0  0  0
 75120  1  0  0  0  0
 75121  1  0  0  0  0
 76122  1  0  0  0  0
 76123  1  0  0  0  0
 77124  1  0  0  0  0
 77125  1  0  0  0  0
M  END
