134

C         -0.39710        6.61910       -1.53610
C          0.47700        7.19420       -0.64500
C          0.93150        6.60890        0.61710
O          0.58690        5.54810        1.11420
C          1.90460        7.55350        1.18880
C          2.62390        7.40070        2.37180
C          3.48730        8.43610        2.63720
C          3.62030        9.54400        1.79050
C          2.90980        9.70990        0.62480
C          2.02830        8.66490        0.33170
C          1.13100        8.47560       -0.80950
C          0.96230        9.37130       -1.83570
C          0.10290        9.22720       -2.94440
N         -0.56010        9.21990       -3.88360
C          1.63480       10.60750       -1.93310
N          2.13910       11.62850       -2.08290
C          4.67530       10.18240        2.65970
C          6.13410       10.06390        2.16970
C          6.95560       10.33220        3.41000
C          6.82930        9.28300        4.21240
C          5.92010        8.28800        3.52800
C          6.30480        8.54280        2.06480
C          4.52630        8.94680        3.60430
C         -1.00800        5.36100       -1.52380
C         -1.82240        4.90750       -2.58310
C         -2.29440        5.75770       -3.67020
C         -2.86040        7.00470       -3.40590
C         -3.27340        7.81660       -4.44130
C         -3.13440        7.41200       -5.76340
C         -3.48590        8.34420       -6.88320
C         -2.26270        9.19170       -7.24260
C         -2.60260        6.15410       -6.02190
C         -2.19450        5.33050       -4.99270
C         -2.11310        3.55120       -2.45830
S         -2.99340        2.41480       -3.46450
C         -2.63270        1.16330       -2.32350
C         -2.78820       -0.22590       -2.17600
C         -3.23650       -1.24850       -3.04560
C         -3.01560       -2.62700       -2.68460
N         -3.39470       -3.46190       -3.63790
S         -3.98690       -2.60200       -4.87480
N         -3.77820       -1.12500       -4.24580
C         -2.51160       -2.93340       -1.39860
C         -2.26730       -4.13530       -0.71000
S         -2.20950       -5.83700       -1.02060
C         -1.70730       -6.10080        0.63230
C         -1.33530       -7.25130        1.34310
C         -1.34970       -8.60220        0.78710
C         -1.89420       -9.66600        1.50000
C         -1.85960      -10.94760        0.98650
C         -1.27820      -11.20700       -0.24900
C         -1.22670      -12.58510       -0.85070
C         -1.35120      -13.72970        0.14950
C         -0.75260      -10.13650       -0.96540
C         -0.79090       -8.85090       -0.46470
C         -0.98530       -6.94270        2.65520
S         -1.18120       -5.23200        3.01270
C         -1.64110       -4.92100        1.38370
C         -1.93460       -3.79660        0.60870
N         -1.93210       -2.43300        0.75930
C         -2.23460       -1.89260       -0.47470
C         -2.19650       -0.55750       -0.92760
N         -1.64620        0.57260       -0.35900
C         -1.90480        1.61500       -1.21350
C         -1.59000        2.97280       -1.29080
S         -0.70750        4.09940       -0.33000
C         -0.49120        0.63430        0.51480
C          0.80400        0.68300       -0.29450
C         -2.18970       -1.82060        2.04680
C         -3.49770       -2.33320        2.64910
C         -0.47970       -7.76820        3.68690
C          0.25080       -8.91300        3.59010
C          0.32070       -9.83470        4.75080
O         -0.01470       -9.60020        5.89010
C          0.82210      -11.11140        4.19750
C          0.96940      -12.32730        4.83390
C          1.43820      -13.39660        4.08420
C          1.72620      -13.25470        2.73730
C          1.57520      -12.02800        2.08250
O          1.77600      -11.83130        0.76690
C          2.41490      -12.82480       -0.00220
C          1.14080      -10.93490        2.84070
C          0.95600       -9.53400        2.48500
C          1.56400       -8.85330        1.46400
C          1.54390       -7.44560        1.36590
N          1.60960       -6.30460        1.25320
C          2.40230       -9.37640        0.45670
N          3.12190       -9.64460       -0.39740
H         -0.63130        7.19720       -2.42190
H          2.48830        6.52990        2.99410
H          3.02480       10.57090       -0.01160
H          4.43650       11.16960        3.05070
H          6.36800       10.65660        1.28960
H          7.48170       11.25050        3.59420
H          7.22860        9.14980        5.20080
H          5.95980        7.26250        3.88540
H          5.64170        8.07030        1.34260
H          7.33430        8.25780        1.85440
H          4.18750        9.10980        4.62580
H         -2.99340        7.32470       -2.38220
H         -3.70070        8.78350       -4.22160
H         -3.80870        7.77800       -7.75940
H         -4.30230        9.00130       -6.57760
H         -2.51420        9.91830       -8.01170
H         -1.45990        8.55740       -7.61090
H         -1.90080        9.71780       -6.36300
H         -2.49900        5.81930       -7.04400
H         -1.76550        4.36330       -5.20890
H         -2.35590       -9.48430        2.46000
H         -2.29390      -11.74850        1.56420
H         -0.28610      -12.68060       -1.39860
H         -2.03280      -12.66790       -1.58760
H         -1.14560      -14.67710       -0.34490
H         -2.35480      -13.78260        0.56420
H         -0.64680      -13.60530        0.96980
H         -0.29970      -10.31330       -1.93000
H         -0.36140       -8.03730       -1.03030
H         -0.46520       -0.24300        1.15630
H         -0.57990        1.53540        1.12840
H          0.83520        1.56920       -0.92210
H          0.88590       -0.19900       -0.92640
H          1.65350        0.70930        0.38160
H         -2.27300       -0.74260        1.91320
H         -1.35790       -2.04810        2.72130
H         -3.69520       -1.81310        3.58210
H         -4.32350       -2.15000        1.96480
H         -3.44230       -3.39850        2.85390
H         -0.73020       -7.46720        4.70050
H          0.72960      -12.42770        5.88020
H          1.57500      -14.36120        4.54930
H          2.06890      -14.11540        2.18420
H          1.77370      -13.70030       -0.14070
H          3.36320      -13.12860        0.44940
H          2.61270      -12.35290       -0.96310
