
  xtb     02022222243D
 energy: -231.725408933550 gnorm: 0.000492885532 xtb: 6.4.1 (unknown)
136153  0     0  0            999 V2000
   -7.7377    0.5056   -0.6444 C   0  0  0  0  0  0  0  0  0  0  0  0
   -8.1818   -0.7592   -0.3527 C   0  0  0  0  0  0  0  0  0  0  0  0
   -7.3465   -1.9530   -0.2020 C   0  0  0  0  0  0  0  0  0  0  0  0
   -6.1442   -2.0499   -0.3914 O   0  0  0  0  0  0  0  0  0  0  0  0
   -8.2417   -3.0337    0.2407 C   0  0  0  0  0  0  0  0  0  0  0  0
   -7.8858   -4.3471    0.5396 C   0  0  0  0  0  0  0  0  0  0  0  0
   -8.9376   -5.1308    0.9487 C   0  0  0  0  0  0  0  0  0  0  0  0
  -10.2473   -4.6439    1.0525 C   0  0  0  0  0  0  0  0  0  0  0  0
  -10.6127   -3.3527    0.7522 C   0  0  0  0  0  0  0  0  0  0  0  0
   -9.5575   -2.5367    0.3333 C   0  0  0  0  0  0  0  0  0  0  0  0
   -9.5542   -1.1315   -0.0737 C   0  0  0  0  0  0  0  0  0  0  0  0
  -10.6675   -0.3412   -0.2040 C   0  0  0  0  0  0  0  0  0  0  0  0
  -11.9812   -0.7596    0.0940 C   0  0  0  0  0  0  0  0  0  0  0  0
  -13.0749   -1.0242    0.3233 N   0  0  0  0  0  0  0  0  0  0  0  0
  -10.6890    0.9856   -0.6831 C   0  0  0  0  0  0  0  0  0  0  0  0
  -10.8120    2.0549   -1.0855 N   0  0  0  0  0  0  0  0  0  0  0  0
  -10.7860   -5.9670    1.5371 C   0  0  0  0  0  0  0  0  0  0  0  0
  -11.0710   -6.0829    3.0497 C   0  0  0  0  0  0  0  0  0  0  0  0
  -11.1161   -7.5738    3.2957 C   0  0  0  0  0  0  0  0  0  0  0  0
   -9.8769   -8.0372    3.1938 C   0  0  0  0  0  0  0  0  0  0  0  0
   -8.9734   -6.8671    2.8778 C   0  0  0  0  0  0  0  0  0  0  0  0
   -9.6977   -5.7580    3.6517 C   0  0  0  0  0  0  0  0  0  0  0  0
   -9.3260   -6.5108    1.4180 C   0  0  0  0  0  0  0  0  0  0  0  0
   -6.4439    0.9763   -0.9000 C   0  0  0  0  0  0  0  0  0  0  0  0
   -6.1817    2.3375   -1.1320 C   0  0  0  0  0  0  0  0  0  0  0  0
   -7.2108    3.3867   -1.1697 C   0  0  0  0  0  0  0  0  0  0  0  0
   -7.2286    4.3191   -0.1366 C   0  0  0  0  0  0  0  0  0  0  0  0
   -8.1786    5.3213   -0.1117 C   0  0  0  0  0  0  0  0  0  0  0  0
   -9.1147    5.4023   -1.1282 C   0  0  0  0  0  0  0  0  0  0  0  0
   -9.0843    4.4915   -2.1675 C   0  0  0  0  0  0  0  0  0  0  0  0
   -8.1408    3.4742   -2.2089 C   0  0  0  0  0  0  0  0  0  0  0  0
   -8.0789    2.5638   -3.4027 C   0  0  0  0  0  0  0  0  0  0  0  0
   -7.0624    3.0960   -4.4154 C   0  0  0  0  0  0  0  0  0  0  0  0
   -4.8207    2.5822   -1.2691 C   0  0  0  0  0  0  0  0  0  0  0  0
   -3.8968    4.0509   -1.5217 S   0  0  0  0  0  0  0  0  0  0  0  0
   -2.4476    3.1034   -1.4927 C   0  0  0  0  0  0  0  0  0  0  0  0
   -1.0571    3.2859   -1.5295 C   0  0  0  0  0  0  0  0  0  0  0  0
   -0.2546    4.4498   -1.4852 C   0  0  0  0  0  0  0  0  0  0  0  0
    1.1617    4.3175   -1.2731 C   0  0  0  0  0  0  0  0  0  0  0  0
    1.7656    5.4892   -1.1578 N   0  0  0  0  0  0  0  0  0  0  0  0
    0.6565    6.6582   -1.3130 S   0  0  0  0  0  0  0  0  0  0  0  0
   -0.6408    5.7146   -1.5268 N   0  0  0  0  0  0  0  0  0  0  0  0
    1.7360    3.0260   -1.2687 C   0  0  0  0  0  0  0  0  0  0  0  0
    3.0620    2.5714   -1.1655 C   0  0  0  0  0  0  0  0  0  0  0  0
    4.6439    3.2015   -0.8555 S   0  0  0  0  0  0  0  0  0  0  0  0
    5.2884    1.5805   -0.9840 C   0  0  0  0  0  0  0  0  0  0  0  0
    6.5888    1.0706   -0.8592 C   0  0  0  0  0  0  0  0  0  0  0  0
    7.7395    1.9403   -0.5922 C   0  0  0  0  0  0  0  0  0  0  0  0
    8.8607    2.0228   -1.4236 C   0  0  0  0  0  0  0  0  0  0  0  0
    8.9345    1.3169   -2.7535 C   0  0  0  0  0  0  0  0  0  0  0  0
   10.2735    0.6219   -3.0020 C   0  0  0  0  0  0  0  0  0  0  0  0
    9.9055    2.8527   -1.0329 C   0  0  0  0  0  0  0  0  0  0  0  0
    9.8565    3.5816    0.1408 C   0  0  0  0  0  0  0  0  0  0  0  0
    8.7258    3.5277    0.9364 C   0  0  0  0  0  0  0  0  0  0  0  0
    7.6718    2.7185    0.5643 C   0  0  0  0  0  0  0  0  0  0  0  0
    6.6044   -0.3118   -1.0343 C   0  0  0  0  0  0  0  0  0  0  0  0
    5.0044   -0.9502   -1.4266 S   0  0  0  0  0  0  0  0  0  0  0  0
    4.3126    0.6196   -1.2809 C   0  0  0  0  0  0  0  0  0  0  0  0
    3.0392    1.1858   -1.3731 C   0  0  0  0  0  0  0  0  0  0  0  0
    1.7511    0.7624   -1.5842 N   0  0  0  0  0  0  0  0  0  0  0  0
    0.9334    1.8723   -1.4785 C   0  0  0  0  0  0  0  0  0  0  0  0
   -0.4761    1.9891   -1.4430 C   0  0  0  0  0  0  0  0  0  0  0  0
   -1.4834    1.0522   -1.3012 N   0  0  0  0  0  0  0  0  0  0  0  0
   -2.6742    1.7305   -1.3241 C   0  0  0  0  0  0  0  0  0  0  0  0
   -4.0302    1.4234   -1.1845 C   0  0  0  0  0  0  0  0  0  0  0  0
   -4.9735    0.0060   -0.9064 S   0  0  0  0  0  0  0  0  0  0  0  0
   -1.4263   -0.2745   -0.7173 C   0  0  0  0  0  0  0  0  0  0  0  0
   -0.6586   -0.2859    0.6000 C   0  0  0  0  0  0  0  0  0  0  0  0
    1.4834   -0.4319   -2.3563 C   0  0  0  0  0  0  0  0  0  0  0  0
    2.1774   -0.3851   -3.7169 C   0  0  0  0  0  0  0  0  0  0  0  0
    7.6599   -1.2493   -1.0304 C   0  0  0  0  0  0  0  0  0  0  0  0
    8.8421   -1.1738   -0.3499 C   0  0  0  0  0  0  0  0  0  0  0  0
    9.0928   -0.3320    0.8407 C   0  0  0  0  0  0  0  0  0  0  0  0
    8.2701    0.3238    1.4487 O   0  0  0  0  0  0  0  0  0  0  0  0
   10.4875   -0.6011    1.2325 C   0  0  0  0  0  0  0  0  0  0  0  0
   11.0048   -1.6195    0.4342 C   0  0  0  0  0  0  0  0  0  0  0  0
   12.3100   -2.0879    0.6418 C   0  0  0  0  0  0  0  0  0  0  0  0
   13.0658   -1.5188    1.6332 C   0  0  0  0  0  0  0  0  0  0  0  0
   12.5753   -0.4724    2.4447 C   0  0  0  0  0  0  0  0  0  0  0  0
   13.3647    0.1206    3.4509 C   0  0  0  0  0  0  0  0  0  0  0  0
   12.8661    1.1362    4.2196 C   0  0  0  0  0  0  0  0  0  0  0  0
   11.5584    1.6075    4.0181 C   0  0  0  0  0  0  0  0  0  0  0  0
   10.7608    1.0564    3.0540 C   0  0  0  0  0  0  0  0  0  0  0  0
   11.2470    0.0051    2.2499 C   0  0  0  0  0  0  0  0  0  0  0  0
   10.0075   -2.0070   -0.5601 C   0  0  0  0  0  0  0  0  0  0  0  0
   10.1905   -2.9218   -1.5659 C   0  0  0  0  0  0  0  0  0  0  0  0
    9.2672   -3.1852   -2.5987 C   0  0  0  0  0  0  0  0  0  0  0  0
    8.5827   -3.4355   -3.4867 N   0  0  0  0  0  0  0  0  0  0  0  0
   11.3462   -3.7124   -1.7301 C   0  0  0  0  0  0  0  0  0  0  0  0
   12.2500   -4.3940   -1.9233 N   0  0  0  0  0  0  0  0  0  0  0  0
   -8.4817    1.2938   -0.6647 H   0  0  0  0  0  0  0  0  0  0  0  0
   -6.8639   -4.6797    0.4441 H   0  0  0  0  0  0  0  0  0  0  0  0
  -11.6259   -2.9971    0.8344 H   0  0  0  0  0  0  0  0  0  0  0  0
  -11.5625   -6.4177    0.9222 H   0  0  0  0  0  0  0  0  0  0  0  0
  -11.9212   -5.5031    3.3982 H   0  0  0  0  0  0  0  0  0  0  0  0
  -12.0219   -8.1279    3.4577 H   0  0  0  0  0  0  0  0  0  0  0  0
   -9.5408   -9.0557    3.2537 H   0  0  0  0  0  0  0  0  0  0  0  0
   -7.9124   -7.0023    3.0704 H   0  0  0  0  0  0  0  0  0  0  0  0
   -9.3407   -4.7545    3.4276 H   0  0  0  0  0  0  0  0  0  0  0  0
   -9.6709   -5.9222    4.7277 H   0  0  0  0  0  0  0  0  0  0  0  0
   -9.1285   -7.3233    0.7212 H   0  0  0  0  0  0  0  0  0  0  0  0
   -6.4967    4.2412    0.6546 H   0  0  0  0  0  0  0  0  0  0  0  0
   -8.1882    6.0337    0.6995 H   0  0  0  0  0  0  0  0  0  0  0  0
   -9.8656    6.1776   -1.1131 H   0  0  0  0  0  0  0  0  0  0  0  0
   -9.8109    4.5618   -2.9628 H   0  0  0  0  0  0  0  0  0  0  0  0
   -9.0647    2.5141   -3.8676 H   0  0  0  0  0  0  0  0  0  0  0  0
   -7.7944    1.5521   -3.1098 H   0  0  0  0  0  0  0  0  0  0  0  0
   -7.3346    4.1000   -4.7325 H   0  0  0  0  0  0  0  0  0  0  0  0
   -6.0695    3.1362   -3.9721 H   0  0  0  0  0  0  0  0  0  0  0  0
   -7.0255    2.4518   -5.2909 H   0  0  0  0  0  0  0  0  0  0  0  0
    8.7721    2.0594   -3.5418 H   0  0  0  0  0  0  0  0  0  0  0  0
    8.1323    0.5838   -2.8339 H   0  0  0  0  0  0  0  0  0  0  0  0
   10.5780    0.0519   -2.1272 H   0  0  0  0  0  0  0  0  0  0  0  0
   10.1881   -0.0594   -3.8456 H   0  0  0  0  0  0  0  0  0  0  0  0
   11.0583    1.3391   -3.2270 H   0  0  0  0  0  0  0  0  0  0  0  0
   10.7753    2.9358   -1.6666 H   0  0  0  0  0  0  0  0  0  0  0  0
   10.6941    4.2018    0.4241 H   0  0  0  0  0  0  0  0  0  0  0  0
    8.6651    4.1110    1.8427 H   0  0  0  0  0  0  0  0  0  0  0  0
    6.7943    2.6518    1.1882 H   0  0  0  0  0  0  0  0  0  0  0  0
   -0.9993   -1.0009   -1.4120 H   0  0  0  0  0  0  0  0  0  0  0  0
   -2.4614   -0.5742   -0.5377 H   0  0  0  0  0  0  0  0  0  0  0  0
   -0.7127   -1.2770    1.0413 H   0  0  0  0  0  0  0  0  0  0  0  0
    0.3864   -0.0278    0.4513 H   0  0  0  0  0  0  0  0  0  0  0  0
   -1.0959    0.4278    1.2945 H   0  0  0  0  0  0  0  0  0  0  0  0
    0.4121   -0.4957   -2.5260 H   0  0  0  0  0  0  0  0  0  0  0  0
    1.8230   -1.3060   -1.7918 H   0  0  0  0  0  0  0  0  0  0  0  0
    1.8959   -1.2602   -4.2960 H   0  0  0  0  0  0  0  0  0  0  0  0
    3.2579   -0.3795   -3.6088 H   0  0  0  0  0  0  0  0  0  0  0  0
    1.8752    0.5068   -4.2620 H   0  0  0  0  0  0  0  0  0  0  0  0
    7.4778   -2.1284   -1.6381 H   0  0  0  0  0  0  0  0  0  0  0  0
   12.7158   -2.8837    0.0395 H   0  0  0  0  0  0  0  0  0  0  0  0
   14.0719   -1.8723    1.8072 H   0  0  0  0  0  0  0  0  0  0  0  0
   14.3716   -0.2411    3.6020 H   0  0  0  0  0  0  0  0  0  0  0  0
   13.4776    1.5848    4.9886 H   0  0  0  0  0  0  0  0  0  0  0  0
   11.1868    2.4121    4.6350 H   0  0  0  0  0  0  0  0  0  0  0  0
    9.7543    1.4071    2.8893 H   0  0  0  0  0  0  0  0  0  0  0  0
  1  2  2  0  0  0  0
  2  3  1  0  0  0  0
  3  4  2  0  0  0  0
  3  5  1  0  0  0  0
  5  6  2  0  0  0  0
  6  7  1  0  0  0  0
  7  8  2  0  0  0  0
  8  9  1  0  0  0  0
  9 10  2  0  0  0  0
 10 11  1  0  0  0  0
 11 12  2  0  0  0  0
 12 13  1  0  0  0  0
 13 14  3  0  0  0  0
 12 15  1  0  0  0  0
 15 16  3  0  0  0  0
  8 17  1  0  0  0  0
 17 18  1  0  0  0  0
 18 19  1  0  0  0  0
 19 20  2  0  0  0  0
 20 21  1  0  0  0  0
 21 22  1  0  0  0  0
 21 23  1  0  0  0  0
  1 24  1  0  0  0  0
 24 25  2  0  0  0  0
 25 26  1  0  0  0  0
 26 27  2  0  0  0  0
 27 28  1  0  0  0  0
 28 29  2  0  0  0  0
 29 30  1  0  0  0  0
 30 31  2  0  0  0  0
 31 32  1  0  0  0  0
 32 33  1  0  0  0  0
 25 34  1  0  0  0  0
 34 35  1  0  0  0  0
 35 36  1  0  0  0  0
 36 37  1  0  0  0  0
 37 38  1  0  0  0  0
 38 39  1  0  0  0  0
 39 40  2  0  0  0  0
 40 41  1  0  0  0  0
 41 42  1  0  0  0  0
 39 43  1  0  0  0  0
 43 44  1  0  0  0  0
 44 45  1  0  0  0  0
 45 46  1  0  0  0  0
 46 47  1  0  0  0  0
 47 48  1  0  0  0  0
 48 49  2  0  0  0  0
 49 50  1  0  0  0  0
 50 51  1  0  0  0  0
 49 52  1  0  0  0  0
 52 53  2  0  0  0  0
 53 54  1  0  0  0  0
 54 55  2  0  0  0  0
 47 56  2  0  0  0  0
 56 57  1  0  0  0  0
 57 58  1  0  0  0  0
 58 59  1  0  0  0  0
 59 60  1  0  0  0  0
 60 61  1  0  0  0  0
 61 62  1  0  0  0  0
 62 63  1  0  0  0  0
 63 64  1  0  0  0  0
 64 65  1  0  0  0  0
 65 66  1  0  0  0  0
 63 67  1  0  0  0  0
 67 68  1  0  0  0  0
 60 69  1  0  0  0  0
 69 70  1  0  0  0  0
 56 71  1  0  0  0  0
 71 72  2  0  0  0  0
 72 73  1  0  0  0  0
 73 74  2  0  0  0  0
 73 75  1  0  0  0  0
 75 76  2  0  0  0  0
 76 77  1  0  0  0  0
 77 78  2  0  0  0  0
 78 79  1  0  0  0  0
 79 80  2  0  0  0  0
 80 81  1  0  0  0  0
 81 82  2  0  0  0  0
 82 83  1  0  0  0  0
 83 84  2  0  0  0  0
 76 85  1  0  0  0  0
 85 86  2  0  0  0  0
 86 87  1  0  0  0  0
 87 88  3  0  0  0  0
 86 89  1  0  0  0  0
 89 90  3  0  0  0  0
 11  2  1  0  0  0  0
 23 17  1  0  0  0  0
 66 24  1  0  0  0  0
 85 72  1  0  0  0  0
 10  5  1  0  0  0  0
 22 18  1  0  0  0  0
 31 26  1  0  0  0  0
 65 34  2  0  0  0  0
 84 75  1  0  0  0  0
 23  7  1  0  0  0  0
 64 36  2  0  0  0  0
 84 79  1  0  0  0  0
 62 37  2  0  0  0  0
 42 38  2  0  0  0  0
 61 43  2  0  0  0  0
 59 44  2  0  0  0  0
 58 46  2  0  0  0  0
 55 48  1  0  0  0  0
  1 91  1  0  0  0  0
  6 92  1  0  0  0  0
  9 93  1  0  0  0  0
 17 94  1  0  0  0  0
 18 95  1  0  0  0  0
 19 96  1  0  0  0  0
 20 97  1  0  0  0  0
 21 98  1  0  0  0  0
 22 99  1  0  0  0  0
 22100  1  0  0  0  0
 23101  1  0  0  0  0
 27102  1  0  0  0  0
 28103  1  0  0  0  0
 29104  1  0  0  0  0
 30105  1  0  0  0  0
 32106  1  0  0  0  0
 32107  1  0  0  0  0
 33108  1  0  0  0  0
 33109  1  0  0  0  0
 33110  1  0  0  0  0
 50111  1  0  0  0  0
 50112  1  0  0  0  0
 51113  1  0  0  0  0
 51114  1  0  0  0  0
 51115  1  0  0  0  0
 52116  1  0  0  0  0
 53117  1  0  0  0  0
 54118  1  0  0  0  0
 55119  1  0  0  0  0
 67120  1  0  0  0  0
 67121  1  0  0  0  0
 68122  1  0  0  0  0
 68123  1  0  0  0  0
 68124  1  0  0  0  0
 69125  1  0  0  0  0
 69126  1  0  0  0  0
 70127  1  0  0  0  0
 70128  1  0  0  0  0
 70129  1  0  0  0  0
 71130  1  0  0  0  0
 77131  1  0  0  0  0
 78132  1  0  0  0  0
 80133  1  0  0  0  0
 81134  1  0  0  0  0
 82135  1  0  0  0  0
 83136  1  0  0  0  0
M  END
