113

C          0.83150        7.42120        0.48870
C          2.12940        7.51290        0.05090
C          3.00520        6.39600       -0.31060
O          2.74090        5.20440       -0.28660
C          4.29090        6.98910       -0.71360
C          5.43200        6.31070       -1.13600
C          6.48780        7.13330       -1.44750
C          6.41460        8.52840       -1.34230
C          5.29610        9.20960       -0.92380
C          4.20770        8.39190       -0.60550
C          2.86930        8.74520       -0.13290
C          2.42040       10.02400        0.08460
C          1.13550       10.38380        0.54010
N          0.11530       10.76750        0.90580
C          3.18980       11.18800       -0.12170
N          3.74900       12.18040       -0.26800
C          7.83160        8.71970       -1.82220
C          8.00610        9.18350       -3.28380
C          9.43780        8.82320       -3.60860
C          9.50870        7.50200       -3.70850
C          8.12590        6.94690       -3.45320
C          7.27480        8.07450       -4.05140
C          7.91370        7.16380       -1.93980
C          0.00940        6.30870        0.69600
C         -1.32160        6.41050        1.13250
C         -2.06660        7.67970        1.38920
C         -2.65110        8.23360        0.08760
C         -1.92480        5.16420        1.23830
Se        -3.68090        4.62800        1.72510
C         -3.05270        2.90840        1.39750
C         -3.54040        1.59780        1.37520
C         -4.85580        1.12390        1.56350
C         -5.12360       -0.26190        1.33820
N         -6.40290       -0.56640        1.48760
S         -7.20330        0.78790        1.88360
N         -5.94380        1.80950        1.87630
C         -4.04130       -1.12020        1.05330
C         -4.01590       -2.51240        0.92280
Se        -5.20040       -3.93860        0.91040
C         -3.65280       -5.02710        0.74010
C         -3.44280       -6.41260        0.67230
C         -4.51380       -7.44510        0.58230
C         -5.78120       -6.97630       -0.12050
C         -2.08270       -6.71530        0.59260
S         -1.08250       -5.26570        0.54300
C         -2.47310       -4.26420        0.70340
C         -2.67290       -2.88160        0.79280
N         -1.88080       -1.76300        0.82120
C         -2.69820       -0.65670        0.95450
C         -2.46140        0.74560        1.00010
N         -1.35100        1.54120        0.77370
C         -1.71170        2.84560        1.00100
C         -1.08110        4.09200        0.90070
S          0.48960        4.63250        0.43810
C         -0.17780        1.29750       -0.03710
C         -0.51620        1.39620       -1.52330
C         -0.45040       -1.89880        0.97100
C          0.24860       -2.15360       -0.36420
C         -1.39570       -7.93100        0.42070
C         -1.73330       -9.17630        0.88470
C         -2.59500       -9.44690        2.05220
O         -3.20010       -8.64040        2.73210
C         -2.46710      -10.89290        2.31520
C         -3.07750      -11.63020        3.29970
C         -2.79420      -12.99860        3.36180
C         -3.29310      -13.97860        4.26550
C         -2.79230      -15.21020        4.02590
S         -1.68830      -15.26300        2.69540
C         -1.89240      -13.55980        2.42720
C         -1.26910      -12.81290        1.43430
C         -1.56720      -11.46480        1.38160
C         -1.10940      -10.41830        0.47710
C         -0.30380      -10.59940       -0.61930
C          0.03830       -9.59200       -1.54450
N          0.33880       -8.83210       -2.35220
C          0.26920      -11.83410       -0.98540
N          0.77000      -12.80760       -1.33180
H          0.34090        8.35850        0.71160
H          5.44530        5.23360       -1.19730
H          5.26110       10.28300       -0.84510
H          8.50270        9.22670       -1.13160
H          7.70340       10.20930       -3.47480
H         10.23610        9.53890       -3.67490
H         10.37810        6.89340       -3.87490
H          7.93320        5.93510       -3.80010
H          6.21380        8.00020       -3.82050
H          7.40750        8.16330       -5.12840
H          8.64010        6.63270       -1.32730
H         -1.42640        8.43250        1.85100
H         -2.88580        7.45500        2.07970
H         -1.85980        8.46300       -0.62220
H         -3.32300        7.50500       -0.36190
H         -3.20650        9.14490        0.28990
H         -4.10570       -8.31890        0.06590
H         -4.75770       -7.76770        1.60080
H         -6.42860       -7.82890       -0.31000
H         -5.54530       -6.50250       -1.07170
H         -6.33520       -6.26730        0.49600
H          0.25720        0.33010        0.18420
H          0.55550        2.06540        0.22180
H         -1.27540        0.66450       -1.79420
H          0.37600        1.21860       -2.11710
H         -0.89480        2.38790       -1.75810
H         -0.06390       -1.01520        1.48150
H         -0.27000       -2.75690        1.62770
H          1.32580       -2.15120       -0.22260
H         -0.01380       -1.40160       -1.10300
H         -0.04140       -3.12520       -0.75470
H         -0.45980       -7.84040       -0.11980
H         -3.75660      -11.16630        3.99820
H         -3.99210      -13.75520        5.05120
H         -3.00070      -16.12010        4.55440
H         -0.58380      -13.28400        0.74950
