101

C         -2.42310        3.23100        2.30540
C         -2.36130        4.47370        2.88310
C         -1.19420        5.36160        2.96120
O         -0.07410        5.15950        2.53050
C         -1.64300        6.57180        3.67380
C         -0.87500        7.69100        3.98660
C         -1.56440        8.67070        4.66030
C         -2.91710        8.54340        5.00190
C         -3.68460        7.44320        4.70190
C         -3.00400        6.43560        4.01100
C         -3.47720        5.13990        3.52620
C         -4.76020        4.66930        3.66610
C         -5.80880        5.37280        4.29420
N         -6.71520        5.87910        4.78520
C         -5.24480        3.42660        3.21080
N         -5.73020        2.43830        2.87760
C         -2.96220        9.90010        5.65970
C         -3.62800       11.03490        4.85300
C         -3.10770       12.29530        5.50530
C         -1.82640       12.41710        5.18260
C         -1.45930       11.24140        4.30610
C         -2.78890       11.03710        3.56850
C         -1.45360       10.04270        5.27840
C         -1.46040        2.45220        1.64810
S          0.21360        2.96710        1.41550
C          0.53600        1.49050        0.62490
C          1.62600        0.83480        0.03480
C          2.94270        1.27480       -0.22400
C          3.82900        0.41360       -0.95170
N          5.00790        0.97190       -1.17680
S          5.00380        2.45400       -0.52290
N          3.49920        2.43880        0.07000
C          3.39470       -0.89010       -1.27880
C          4.07640       -1.96980       -1.85460
S          5.62400       -2.32520       -2.54110
C          5.10210       -3.98260       -2.77680
C          5.73450       -5.09340       -3.32560
C          7.14400       -5.05000       -3.82120
C          8.11830       -5.51480       -2.73560
C          4.90520       -6.22280       -3.29530
S          3.33030       -5.87060       -2.58720
C          3.79360       -4.22980       -2.33460
C          3.21130       -3.06890       -1.81310
N          2.01360       -2.70250       -1.26180
C          2.09060       -1.35750       -0.93860
C          1.16080       -0.43850       -0.38640
N         -0.19770       -0.52870       -0.11500
C         -0.58060        0.64200        0.52030
C         -1.73090        1.17450        1.11260
C         -3.03850        0.45490        1.26620
C         -2.89440       -0.72700        2.22840
C         -1.14320       -1.35060       -0.84240
C         -0.93720       -1.26300       -2.35290
C          1.10190       -3.72360       -0.79320
C          0.97910       -3.71570        0.72770
C          5.29980       -7.48170       -3.77670
C          4.65760       -8.69210       -3.81540
C          5.36270       -9.77910       -4.37470
N          5.96360      -10.64140       -4.83540
C          3.30620       -8.98240       -3.33690
O          2.54190       -8.17280       -2.84880
O          3.00310      -10.27380       -3.49490
C          1.70130      -10.69420       -3.09310
C          0.66480      -10.39930       -4.16840
H         -3.39370        2.76090        2.36580
H          0.16600        7.74290        3.70840
H         -4.72220        7.36180        4.97810
H         -3.23690        9.90850        6.71280
H         -4.70590       10.94640        4.74790
H         -3.69100       12.91750        6.15840
H         -1.12560       13.16160        5.51250
H         -0.56150       11.34280        3.70230
H         -3.03270       11.87640        2.91930
H         -2.84360       10.11000        3.00090
H         -0.72200       10.14620        6.07770
H          7.26080       -5.66840       -4.71280
H          7.37760       -4.01800       -4.09060
H          8.03150       -4.87940       -1.85760
H          9.13950       -5.45970       -3.10340
H          7.90890       -6.54080       -2.44150
H         -3.39430        0.10460        0.29430
H         -3.81440        1.11470        1.64930
H         -3.84230       -1.25090        2.31730
H         -2.13710       -1.42750        1.88440
H         -2.60590       -0.36830        3.21340
H         -2.13750       -0.97790       -0.61010
H         -1.09890       -2.38480       -0.49670
H         -1.69200       -1.85880       -2.85980
H         -1.03310       -0.23030       -2.68110
H          0.04480       -1.62260       -2.64770
H          0.12830       -3.62230       -1.27610
H          1.51850       -4.68100       -1.11550
H          0.61050       -2.76030        1.09300
H          0.29870       -4.50100        1.04570
H          1.95180       -3.89770        1.17890
H          6.30310       -7.49520       -4.18960
H          1.43520      -10.18700       -2.15900
H          1.79690      -11.76820       -2.92150
H          0.96000      -10.85930       -5.10810
H         -0.29880      -10.79750       -3.86390
H          0.57280       -9.32560       -4.31290
