131

C         -5.52700       -3.68290        1.79540
C         -5.01240       -4.72230        2.52780
C         -3.59100       -5.00230        2.74220
O         -2.63640       -4.36850        2.32000
C         -3.52710       -6.21730        3.57080
C         -2.38000       -6.85640        4.03680
C         -2.63240       -7.96770        4.80460
C         -3.93090       -8.40960        5.08980
C         -5.07040       -7.78810        4.63670
C         -4.83720       -6.65570        3.85070
C         -5.78310       -5.73750        3.21630
C         -7.14950       -5.82670        3.29950
C         -7.84230       -6.84940        3.98080
N         -8.47780       -7.64820        4.50730
C         -8.07850       -4.92200        2.74380
N         -8.91230       -4.23880        2.34530
C         -3.44050       -9.57460        5.91280
C         -3.48650      -10.96340        5.24150
C         -2.52810      -11.79390        6.06410
C         -1.29790      -11.37680        5.79350
C         -1.40410      -10.25710        4.78320
C         -2.62880      -10.73210        3.99070
C         -1.99210       -9.08280        5.59400
C         -4.88400       -2.62660        1.13930
C         -5.60850       -1.62000        0.47880
C         -7.07600       -1.58440        0.37960
C         -7.65310       -1.87060       -0.85340
C         -9.02610       -1.86300       -1.00350
C         -9.83170       -1.56060        0.08040
C         -9.25930       -1.25620        1.30110
C         -7.88210       -1.26300        1.47380
C         -7.29150       -0.84320        2.79020
C         -6.97790        0.65460        2.77170
C         -4.76920       -0.67660       -0.09810
S         -5.08620        0.79430       -0.99830
C         -3.37850        1.06270       -1.08350
C         -2.47960        2.02380       -1.55970
C         -2.72680        3.27450       -2.16620
C         -1.61740        4.13100       -2.45310
N         -1.99060        5.28730       -2.97870
S         -3.60520        5.29390       -3.10230
N         -3.88770        3.82180       -2.49020
C         -0.31180        3.65900       -2.19720
C          0.92750        4.25300       -2.46500
S          1.56250        5.73650       -3.08850
C          3.17540        5.09410       -2.88480
C          4.44060        5.64020       -3.13400
C          4.61750        6.99940       -3.66130
C          5.29720        7.28620       -4.85090
C          5.74740        6.19600       -5.78910
C          7.09010        6.45690       -6.46810
C          5.45750        8.62050       -5.20530
C          4.94960        9.64670       -4.42910
C          4.22080        9.35420       -3.29060
C          4.05490        8.03520       -2.91480
C          5.45240        4.73670       -2.81270
S          4.80870        3.19290       -2.26000
C          3.19720        3.78600       -2.38160
C          1.90670        3.31660       -2.12020
N          1.31740        2.18050       -1.63940
C         -0.05350        2.36600       -1.64720
C         -1.16190        1.56660       -1.24480
N         -1.28570        0.37400       -0.55770
C         -2.61520        0.06610       -0.46580
C         -3.40300       -0.93260        0.11430
S         -3.14460       -2.37060        1.03410
C         -0.33840       -0.47540        0.12580
C         -0.01790       -1.73230       -0.68330
C          2.16220        1.05610       -1.31220
C          2.82610        1.22840        0.05430
C          6.85660        4.84890       -2.90790
C          7.64110        5.96420       -2.88880
C          9.00150        5.92180       -3.47440
O          9.64300        4.94540       -3.82810
C          9.40040        7.32010       -3.62080
C         10.54630        7.80600       -4.24120
O         11.46800        6.98570       -4.75980
C         10.69410        9.19800       -4.30550
C          9.72810       10.02780       -3.77010
C          8.58550        9.53710       -3.13800
C          8.42790        8.16820       -3.06130
C          7.39440        7.32440       -2.46400
C          6.53550        7.71100       -1.47010
C          6.42900        9.03600       -1.00210
N          6.30760       10.09870       -0.58650
C          5.75000        6.79770       -0.74000
N          5.12930        6.06970       -0.10510
H         -6.60590       -3.63590        1.70180
H         -1.39880       -6.47640        3.79880
H         -6.06080       -8.14010        4.87090
H         -3.76810       -9.59250        6.95050
H         -4.48520      -11.36640        5.09770
H         -2.83680      -12.53640        6.77640
H         -0.37370      -11.70120        6.23460
H         -0.50500      -10.01840        4.22140
H         -2.43500      -11.65600        3.44820
H         -3.03220       -9.98660        3.30780
H         -1.35360       -8.77380        6.41980
H         -7.01330       -2.11120       -1.69050
H         -9.46370       -2.09540       -1.96280
H        -10.90590       -1.56000       -0.02590
H         -9.89020       -1.01500        2.14360
H         -6.37540       -1.39770        3.00090
H         -8.00450       -1.05500        3.58900
H         -6.26130        0.88380        1.98610
H         -7.88290        1.22760        2.58390
H         -6.55920        0.96700        3.72570
H          4.97820        6.08900       -6.56200
H          5.79870        5.24610       -5.25780
H          7.02220        7.26290       -7.19360
H          7.41610        5.56140       -6.99200
H          7.84900        6.71940       -5.73510
H          5.98070        8.86510       -6.11640
H          5.10340       10.67270       -4.72760
H          3.78990       10.14310       -2.69420
H          3.49810        7.79540       -2.02050
H         -0.80350       -0.78350        1.06800
H          0.55450        0.09210        0.37000
H         -0.89720       -2.36770       -0.74440
H          0.77370       -2.29290       -0.19450
H          0.29310       -1.48780       -1.69740
H          2.94620        1.01040       -2.07620
H          1.59040        0.13500       -1.37460
H          3.50860        2.07370        0.03500
H          2.09100        1.41290        0.83500
H          3.39140        0.33530        0.30520
H          7.39040        3.91740       -3.07740
H         11.18630        6.06180       -4.61640
H         11.57280        9.60290       -4.78150
H          9.86280       11.09660       -3.84100
H          7.84920       10.21470       -2.73870
