
  xtb     02112207373D
 energy: -196.319067782096 gnorm: 0.000446219988 xtb: 6.4.1 (unknown)
110124  0     0  0            999 V2000
    5.6023   -3.2871   -1.7312 C   0  0  0  0  0  0  0  0  0  0  0  0
    5.9676   -2.1122   -2.3081 C   0  0  0  0  0  0  0  0  0  0  0  0
    6.9567   -2.0896   -3.4195 C   0  0  0  0  0  0  0  0  0  0  0  0
    7.6888   -2.9939   -3.7536 O   0  0  0  0  0  0  0  0  0  0  0  0
    6.8010   -0.7641   -4.0505 C   0  0  0  0  0  0  0  0  0  0  0  0
    7.4248   -0.2986   -5.2063 C   0  0  0  0  0  0  0  0  0  0  0  0
    7.0626    0.9780   -5.5643 C   0  0  0  0  0  0  0  0  0  0  0  0
    6.1321    1.7357   -4.8394 C   0  0  0  0  0  0  0  0  0  0  0  0
    5.5136    1.2948   -3.6944 C   0  0  0  0  0  0  0  0  0  0  0  0
    5.8844    0.0066   -3.3033 C   0  0  0  0  0  0  0  0  0  0  0  0
    5.4916   -0.7574   -2.1241 C   0  0  0  0  0  0  0  0  0  0  0  0
    5.0301   -0.2233   -0.9493 C   0  0  0  0  0  0  0  0  0  0  0  0
    4.6546    1.1241   -0.7850 C   0  0  0  0  0  0  0  0  0  0  0  0
    4.3101    2.2040   -0.6014 N   0  0  0  0  0  0  0  0  0  0  0  0
    4.9662   -0.9547    0.2553 C   0  0  0  0  0  0  0  0  0  0  0  0
    4.9497   -1.5048    1.2630 N   0  0  0  0  0  0  0  0  0  0  0  0
    6.2440    2.9144   -5.7723 C   0  0  0  0  0  0  0  0  0  0  0  0
    7.0720    4.1313   -5.2911 C   0  0  0  0  0  0  0  0  0  0  0  0
    8.0824    3.5983   -4.3055 C   0  0  0  0  0  0  0  0  0  0  0  0
    8.9722    2.8861   -4.9840 C   0  0  0  0  0  0  0  0  0  0  0  0
    8.5792    2.9241   -6.4403 C   0  0  0  0  0  0  0  0  0  0  0  0
    7.9726    4.3343   -6.5198 C   0  0  0  0  0  0  0  0  0  0  0  0
    7.2894    2.0760   -6.5734 C   0  0  0  0  0  0  0  0  0  0  0  0
    4.4370   -3.5636   -0.9744 C   0  0  0  0  0  0  0  0  0  0  0  0
    4.2589   -4.5839   -0.0538 C   0  0  0  0  0  0  0  0  0  0  0  0
    5.2933   -5.5865    0.3380 C   0  0  0  0  0  0  0  0  0  0  0  0
    5.0934   -6.8891   -0.4411 C   0  0  0  0  0  0  0  0  0  0  0  0
    2.9681   -4.5616    0.4893 C   0  0  0  0  0  0  0  0  0  0  0  0
    2.1950   -5.5170    1.7316 S   0  0  0  0  0  0  0  0  0  0  0  0
    0.7740   -4.5502    1.5601 C   0  0  0  0  0  0  0  0  0  0  0  0
   -0.5034   -4.4288    2.1325 C   0  0  0  0  0  0  0  0  0  0  0  0
   -1.1900   -5.2157    3.0888 C   0  0  0  0  0  0  0  0  0  0  0  0
   -2.5441   -4.8561    3.4304 C   0  0  0  0  0  0  0  0  0  0  0  0
   -3.1355   -5.6694    4.2830 N   0  0  0  0  0  0  0  0  0  0  0  0
   -2.0061   -6.9492    4.7224 Se  0  0  0  0  0  2  0  0  0  0  0  0
   -0.7373   -6.3003    3.6861 N   0  0  0  0  0  0  0  0  0  0  0  0
   -3.0837   -3.6579    2.9003 C   0  0  0  0  0  0  0  0  0  0  0  0
   -4.2648   -2.9649    3.2043 C   0  0  0  0  0  0  0  0  0  0  0  0
   -5.6702   -3.1520    4.1897 S   0  0  0  0  0  0  0  0  0  0  0  0
   -6.2075   -1.5666    3.6804 C   0  0  0  0  0  0  0  0  0  0  0  0
   -7.3397   -0.8121    3.9918 C   0  0  0  0  0  0  0  0  0  0  0  0
   -8.4135   -1.2992    4.9073 C   0  0  0  0  0  0  0  0  0  0  0  0
   -9.4344   -2.1386    4.1338 C   0  0  0  0  0  0  0  0  0  0  0  0
   -7.3352    0.4135    3.3293 C   0  0  0  0  0  0  0  0  0  0  0  0
   -5.9129    0.5981    2.2985 S   0  0  0  0  0  0  0  0  0  0  0  0
   -5.3253   -0.9460    2.7837 C   0  0  0  0  0  0  0  0  0  0  0  0
   -4.2117   -1.7437    2.5176 C   0  0  0  0  0  0  0  0  0  0  0  0
   -3.0549   -1.6616    1.7848 N   0  0  0  0  0  0  0  0  0  0  0  0
   -2.3573   -2.8394    1.9928 C   0  0  0  0  0  0  0  0  0  0  0  0
   -1.1188   -3.3153    1.5008 C   0  0  0  0  0  0  0  0  0  0  0  0
   -0.2758   -2.8252    0.5223 N   0  0  0  0  0  0  0  0  0  0  0  0
    0.8834   -3.5561    0.5777 C   0  0  0  0  0  0  0  0  0  0  0  0
    2.1403   -3.5602   -0.0313 C   0  0  0  0  0  0  0  0  0  0  0  0
    2.9707   -2.6087   -1.2038 S   0  0  0  0  0  0  0  0  0  0  0  0
   -0.6682   -2.1323   -0.6854 C   0  0  0  0  0  0  0  0  0  0  0  0
   -0.5934   -3.0482   -1.9064 C   0  0  0  0  0  0  0  0  0  0  0  0
   -2.5439   -0.3555    1.4071 C   0  0  0  0  0  0  0  0  0  0  0  0
   -1.2937    0.0173    2.1960 C   0  0  0  0  0  0  0  0  0  0  0  0
   -8.3765    1.3602    3.3337 C   0  0  0  0  0  0  0  0  0  0  0  0
   -8.4141    2.6245    2.8200 C   0  0  0  0  0  0  0  0  0  0  0  0
   -9.7263    3.2226    2.4630 C   0  0  0  0  0  0  0  0  0  0  0  0
  -10.8207    2.8289    2.7983 O   0  0  0  0  0  0  0  0  0  0  0  0
   -9.4004    4.3490    1.5627 C   0  0  0  0  0  0  0  0  0  0  0  0
  -10.2502    5.1684    0.8442 C   0  0  0  0  0  0  0  0  0  0  0  0
   -9.6993    6.1451    0.0294 C   0  0  0  0  0  0  0  0  0  0  0  0
   -8.3181    6.2825   -0.0526 C   0  0  0  0  0  0  0  0  0  0  0  0
   -7.6558    7.4914   -1.0860 Cl  0  0  0  0  0  0  0  0  0  0  0  0
   -7.4496    5.4732    0.6738 C   0  0  0  0  0  0  0  0  0  0  0  0
   -8.0034    4.5016    1.4874 C   0  0  0  0  0  0  0  0  0  0  0  0
   -7.3799    3.5370    2.3941 C   0  0  0  0  0  0  0  0  0  0  0  0
   -6.1347    3.6649    2.9525 C   0  0  0  0  0  0  0  0  0  0  0  0
   -5.1759    4.6077    2.5343 C   0  0  0  0  0  0  0  0  0  0  0  0
   -4.3471    5.3323    2.2087 N   0  0  0  0  0  0  0  0  0  0  0  0
   -5.7209    2.9157    4.0742 C   0  0  0  0  0  0  0  0  0  0  0  0
   -5.3799    2.3647    5.0217 N   0  0  0  0  0  0  0  0  0  0  0  0
    6.2488   -4.1324   -1.9441 H   0  0  0  0  0  0  0  0  0  0  0  0
    8.1294   -0.9146   -5.7427 H   0  0  0  0  0  0  0  0  0  0  0  0
    4.7956    1.8810   -3.1443 H   0  0  0  0  0  0  0  0  0  0  0  0
    5.3287    3.2090   -6.2818 H   0  0  0  0  0  0  0  0  0  0  0  0
    6.4780    4.9781   -4.9583 H   0  0  0  0  0  0  0  0  0  0  0  0
    8.0151    3.7419   -3.2431 H   0  0  0  0  0  0  0  0  0  0  0  0
    9.7982    2.3156   -4.6015 H   0  0  0  0  0  0  0  0  0  0  0  0
    9.3590    2.6739   -7.1547 H   0  0  0  0  0  0  0  0  0  0  0  0
    8.7125    5.1197   -6.3741 H   0  0  0  0  0  0  0  0  0  0  0  0
    7.4177    4.5173   -7.4391 H   0  0  0  0  0  0  0  0  0  0  0  0
    7.0613    1.8287   -7.6085 H   0  0  0  0  0  0  0  0  0  0  0  0
    5.1920   -5.7880    1.4061 H   0  0  0  0  0  0  0  0  0  0  0  0
    6.2921   -5.1910    0.1557 H   0  0  0  0  0  0  0  0  0  0  0  0
    5.1904   -6.7146   -1.5105 H   0  0  0  0  0  0  0  0  0  0  0  0
    5.8385   -7.6204   -0.1401 H   0  0  0  0  0  0  0  0  0  0  0  0
    4.1057   -7.2995   -0.2449 H   0  0  0  0  0  0  0  0  0  0  0  0
   -8.9110   -0.4599    5.3927 H   0  0  0  0  0  0  0  0  0  0  0  0
   -7.9527   -1.9197    5.6784 H   0  0  0  0  0  0  0  0  0  0  0  0
   -9.9146   -1.5436    3.3601 H   0  0  0  0  0  0  0  0  0  0  0  0
   -8.9452   -2.9886    3.6640 H   0  0  0  0  0  0  0  0  0  0  0  0
  -10.1988   -2.5093    4.8111 H   0  0  0  0  0  0  0  0  0  0  0  0
   -1.7004   -1.8120   -0.5689 H   0  0  0  0  0  0  0  0  0  0  0  0
   -0.0219   -1.2605   -0.8301 H   0  0  0  0  0  0  0  0  0  0  0  0
    0.4303   -3.3403   -2.1200 H   0  0  0  0  0  0  0  0  0  0  0  0
   -0.9878   -2.5254   -2.7735 H   0  0  0  0  0  0  0  0  0  0  0  0
   -1.1864   -3.9451   -1.7400 H   0  0  0  0  0  0  0  0  0  0  0  0
   -3.3392    0.3598    1.6304 H   0  0  0  0  0  0  0  0  0  0  0  0
   -2.3501   -0.2951    0.3344 H   0  0  0  0  0  0  0  0  0  0  0  0
   -0.9921    1.0288    1.9396 H   0  0  0  0  0  0  0  0  0  0  0  0
   -1.4980   -0.0226    3.2634 H   0  0  0  0  0  0  0  0  0  0  0  0
   -0.4708   -0.6570    1.9752 H   0  0  0  0  0  0  0  0  0  0  0  0
   -9.3323    0.9986    3.6994 H   0  0  0  0  0  0  0  0  0  0  0  0
  -11.3189    5.0432    0.9221 H   0  0  0  0  0  0  0  0  0  0  0  0
  -10.3334    6.8008   -0.5459 H   0  0  0  0  0  0  0  0  0  0  0  0
   -6.3836    5.6057    0.5847 H   0  0  0  0  0  0  0  0  0  0  0  0
  1  2  2  0  0  0  0
  2  3  1  0  0  0  0
  3  4  2  0  0  0  0
  3  5  1  0  0  0  0
  5  6  2  0  0  0  0
  6  7  1  0  0  0  0
  7  8  2  0  0  0  0
  8  9  1  0  0  0  0
  9 10  2  0  0  0  0
 10 11  1  0  0  0  0
 11 12  2  0  0  0  0
 12 13  1  0  0  0  0
 13 14  3  0  0  0  0
 12 15  1  0  0  0  0
 15 16  3  0  0  0  0
  8 17  1  0  0  0  0
 17 18  1  0  0  0  0
 18 19  1  0  0  0  0
 19 20  2  0  0  0  0
 20 21  1  0  0  0  0
 21 22  1  0  0  0  0
 21 23  1  0  0  0  0
  1 24  1  0  0  0  0
 24 25  2  0  0  0  0
 25 26  1  0  0  0  0
 26 27  1  0  0  0  0
 25 28  1  0  0  0  0
 28 29  1  0  0  0  0
 29 30  1  0  0  0  0
 30 31  1  0  0  0  0
 31 32  1  0  0  0  0
 32 33  1  0  0  0  0
 33 34  2  0  0  0  0
 34 35  1  0  0  0  0
 35 36  1  0  0  0  0
 33 37  1  0  0  0  0
 37 38  1  0  0  0  0
 38 39  1  0  0  0  0
 39 40  1  0  0  0  0
 40 41  1  0  0  0  0
 41 42  1  0  0  0  0
 42 43  1  0  0  0  0
 41 44  2  0  0  0  0
 44 45  1  0  0  0  0
 45 46  1  0  0  0  0
 46 47  1  0  0  0  0
 47 48  1  0  0  0  0
 48 49  1  0  0  0  0
 49 50  1  0  0  0  0
 50 51  1  0  0  0  0
 51 52  1  0  0  0  0
 52 53  1  0  0  0  0
 53 54  1  0  0  0  0
 51 55  1  0  0  0  0
 55 56  1  0  0  0  0
 48 57  1  0  0  0  0
 57 58  1  0  0  0  0
 44 59  1  0  0  0  0
 59 60  2  0  0  0  0
 60 61  1  0  0  0  0
 61 62  2  0  0  0  0
 61 63  1  0  0  0  0
 63 64  2  0  0  0  0
 64 65  1  0  0  0  0
 65 66  2  0  0  0  0
 66 67  1  0  0  0  0
 66 68  1  0  0  0  0
 68 69  2  0  0  0  0
 69 70  1  0  0  0  0
 70 71  2  0  0  0  0
 71 72  1  0  0  0  0
 72 73  3  0  0  0  0
 71 74  1  0  0  0  0
 74 75  3  0  0  0  0
 11  2  1  0  0  0  0
 23 17  1  0  0  0  0
 54 24  1  0  0  0  0
 70 60  1  0  0  0  0
 10  5  1  0  0  0  0
 22 18  1  0  0  0  0
 53 28  2  0  0  0  0
 69 63  1  0  0  0  0
 23  7  1  0  0  0  0
 52 30  2  0  0  0  0
 50 31  2  0  0  0  0
 36 32  2  0  0  0  0
 49 37  2  0  0  0  0
 47 38  2  0  0  0  0
 46 40  2  0  0  0  0
  1 76  1  0  0  0  0
  6 77  1  0  0  0  0
  9 78  1  0  0  0  0
 17 79  1  0  0  0  0
 18 80  1  0  0  0  0
 19 81  1  0  0  0  0
 20 82  1  0  0  0  0
 21 83  1  0  0  0  0
 22 84  1  0  0  0  0
 22 85  1  0  0  0  0
 23 86  1  0  0  0  0
 26 87  1  0  0  0  0
 26 88  1  0  0  0  0
 27 89  1  0  0  0  0
 27 90  1  0  0  0  0
 27 91  1  0  0  0  0
 42 92  1  0  0  0  0
 42 93  1  0  0  0  0
 43 94  1  0  0  0  0
 43 95  1  0  0  0  0
 43 96  1  0  0  0  0
 55 97  1  0  0  0  0
 55 98  1  0  0  0  0
 56 99  1  0  0  0  0
 56100  1  0  0  0  0
 56101  1  0  0  0  0
 57102  1  0  0  0  0
 57103  1  0  0  0  0
 58104  1  0  0  0  0
 58105  1  0  0  0  0
 58106  1  0  0  0  0
 59107  1  0  0  0  0
 64108  1  0  0  0  0
 65109  1  0  0  0  0
 68110  1  0  0  0  0
M  END
