127

C          2.39220        1.79540       -7.26670
C          2.10900        1.33900       -8.52540
C          0.99570        0.45570       -8.94120
O         -0.04090        0.20870       -8.35900
C          1.41070       -0.12090      -10.23520
C          0.74960       -1.11680      -10.95120
C          1.38680       -1.48780      -12.11050
C          2.59250       -0.90990      -12.53080
C          3.25340        0.07490      -11.83590
C          2.62170        0.46530      -10.65100
C          3.02540        1.44410       -9.64690
C          4.04000        2.35570       -9.78030
C          4.88220        2.44730      -10.90750
N          5.60260        2.57340      -11.79280
C          4.34630        3.36470       -8.84250
N          4.64170        4.22530       -8.14160
C          2.66400       -1.76770      -13.76970
C          2.27160       -1.09410      -15.10170
C          1.97700       -2.25770      -16.02080
C          0.83720       -2.80790      -15.62260
C          0.34170       -2.02520      -14.42790
C          0.84180       -0.62450      -14.80380
C          1.32080       -2.41320      -13.30010
C          1.61840        1.74240       -6.09230
S          2.48840        1.93120       -4.56610
C          1.03830        1.69320       -3.69580
C          0.65840        1.54190       -2.32740
C         -0.73490        1.29950       -2.31270
C         -1.30360        1.33340       -3.71320
C         -0.06320        1.52900       -4.53270
C          0.25720        1.55710       -5.87920
C         -2.31340        2.46770       -3.90890
C         -1.39080        1.06100       -1.12830
C         -0.62750        1.01970        0.03680
C         -0.99780        0.76700        1.39580
C          0.10440        0.81060        2.19640
C          1.35820        1.07300        1.40890
C          2.11620        2.32270        1.87830
C          1.20530        3.53830        2.00300
C          2.22890       -0.20260        1.51210
C          3.50540       -0.21080        0.68210
C          0.77480        1.23880        0.01700
C          1.42010        1.53790       -1.15960
C         -0.26030        0.50510        3.54650
C         -1.66180        0.27340        3.56010
C         -2.23340        0.38180        2.15900
C         -3.35070        1.43060        2.06470
C         -2.85710        2.83280        2.40150
C         -2.68780       -0.99540        1.61820
C         -3.84000       -1.65890        2.36030
C         -2.31490       -0.00790        4.73510
C         -1.53990       -0.12160        5.88910
C         -1.89640       -0.48560        7.22040
C         -0.76670       -0.52400        8.04080
C          0.44550       -0.11570        7.25650
C         -0.14070        0.08570        5.87650
C          0.50470        0.41990        4.70900
C          1.09850        1.15240        7.81210
C         -1.03880       -0.92800        9.33320
C         -2.39010       -1.21480        9.52500
S         -3.31890       -0.93830        8.04280
C         -3.12830       -1.67660       10.62340
C         -2.74680       -2.10840       11.87070
C         -1.38350       -2.29160       12.40520
O         -0.31730       -1.96460       11.92410
C         -1.55460       -2.98850       13.70020
C         -0.57280       -3.43310       14.56080
C         -0.98190       -4.08130       15.72000
Cl         0.20100       -4.66130       16.83130
C         -2.33020       -4.27360       15.99850
C         -3.30900       -3.81790       15.12840
C         -2.92140       -3.16610       13.96650
C         -3.68940       -2.57940       12.87110
C         -5.05630       -2.46540       12.85060
C         -5.83080       -1.83560       11.85340
N         -6.54560       -1.33340       11.10680
C         -5.90310       -2.94700       13.87130
N         -6.65290       -3.31660       14.65850
H          3.38840        2.19610       -7.11320
H         -0.17380       -1.54020      -10.58790
H          4.18770        0.50040      -12.16270
H          3.54450       -2.40160      -13.85700
H          2.97850       -0.35180      -15.46170
H          2.63490       -2.58460      -16.80450
H          0.35280       -3.68640      -16.00710
H         -0.70990       -2.13170      -14.17520
H          0.34400       -0.23360      -15.68960
H          0.77280        0.10250      -13.99670
H          1.30710       -3.47740      -13.07140
H         -1.78690        0.38130       -3.95640
H         -0.44120        1.43860       -6.68510
H         -3.17330        2.32490       -3.25950
H         -1.85220        3.42370       -3.67070
H         -2.65310        2.49120       -4.94100
H         -2.45650        0.89160       -1.10210
H          2.91060        2.54520        1.16480
H          2.57830        2.11480        2.84540
H          1.78320        4.41170        2.29590
H          0.43540        3.36800        2.75210
H          0.72050        3.75020        1.05230
H          2.48860       -0.33820        2.56430
H          1.61070       -1.05390        1.21470
H          4.14330        0.63450        0.92550
H          3.28040       -0.19150       -0.38020
H          4.06110       -1.12270        0.89060
H          2.47630        1.75310       -1.20570
H         -3.75810        1.42350        1.05180
H         -4.15210        1.16020        2.75330
H         -2.43460        2.85810        3.40380
H         -2.09220        3.15150        1.69720
H         -3.68120        3.54100        2.35830
H         -2.96970       -0.86000        0.57190
H         -1.82370       -1.66490        1.64070
H         -4.71520       -1.01570        2.39310
H         -4.11590       -2.57620        1.84440
H         -3.55230       -1.91900        3.37490
H         -3.38350       -0.14530        4.78950
H          1.18850       -0.92050        7.24310
H          1.56910        0.59840        4.68820
H          0.37910        1.96810        7.82610
H          1.94390        1.44450        7.19460
H          1.44820        0.97760        8.82620
H         -0.31700       -1.03380       10.12140
H         -4.19150       -1.72890       10.41930
H          0.47020       -3.28030       14.33280
H         -2.61580       -4.78510       16.90430
H         -4.34660       -3.98290       15.36700
