
  xtb     02022210153D
 energy: -261.083762867214 gnorm: 0.000252433610 xtb: 6.4.1 (unknown)
164184  0     0  0            999 V2000
   -8.2363   -1.2597   -2.3634 C   0  0  0  0  0  0  0  0  0  0  0  0
   -8.5916   -2.4620   -2.9200 C   0  0  0  0  0  0  0  0  0  0  0  0
   -7.6824   -3.4018   -3.5840 C   0  0  0  0  0  0  0  0  0  0  0  0
   -6.5056   -3.2303   -3.8541 O   0  0  0  0  0  0  0  0  0  0  0  0
   -8.4694   -4.6144   -3.8620 C   0  0  0  0  0  0  0  0  0  0  0  0
   -8.0099   -5.7987   -4.4322 C   0  0  0  0  0  0  0  0  0  0  0  0
   -8.9686   -6.7780   -4.5337 C   0  0  0  0  0  0  0  0  0  0  0  0
  -10.2889   -6.5901   -4.1045 C   0  0  0  0  0  0  0  0  0  0  0  0
  -10.7573   -5.4219   -3.5508 C   0  0  0  0  0  0  0  0  0  0  0  0
   -9.7969   -4.4135   -3.4331 C   0  0  0  0  0  0  0  0  0  0  0  0
   -9.9094   -3.0641   -2.8797 C   0  0  0  0  0  0  0  0  0  0  0  0
  -11.0696   -2.4887   -2.4271 C   0  0  0  0  0  0  0  0  0  0  0  0
  -12.3289   -3.1239   -2.4237 C   0  0  0  0  0  0  0  0  0  0  0  0
  -13.3861   -3.5710   -2.3870 N   0  0  0  0  0  0  0  0  0  0  0  0
  -11.1959   -1.1808   -1.9148 C   0  0  0  0  0  0  0  0  0  0  0  0
  -11.3923   -0.1318   -1.4886 N   0  0  0  0  0  0  0  0  0  0  0  0
  -10.6947   -7.9932   -4.4794 C   0  0  0  0  0  0  0  0  0  0  0  0
  -10.8311   -9.0309   -3.3374 C   0  0  0  0  0  0  0  0  0  0  0  0
   -9.9126   -8.5763   -2.2304 C   0  0  0  0  0  0  0  0  0  0  0  0
   -8.6641   -8.7550   -2.6408 C   0  0  0  0  0  0  0  0  0  0  0  0
   -8.7159   -9.3331   -4.0334 C   0  0  0  0  0  0  0  0  0  0  0  0
   -9.9955  -10.1780   -3.9280 C   0  0  0  0  0  0  0  0  0  0  0  0
   -9.2243   -8.2016   -4.9612 C   0  0  0  0  0  0  0  0  0  0  0  0
   -6.9873   -0.6304   -2.2800 C   0  0  0  0  0  0  0  0  0  0  0  0
   -5.4782   -1.1962   -2.9849 S   0  0  0  0  0  0  0  0  0  0  0  0
   -4.6597    0.1258   -2.2753 C   0  0  0  0  0  0  0  0  0  0  0  0
   -3.3262    0.5882   -2.1562 C   0  0  0  0  0  0  0  0  0  0  0  0
   -3.2941    1.6869   -1.3135 C   0  0  0  0  0  0  0  0  0  0  0  0
   -4.6911    2.0707   -0.8723 C   0  0  0  0  0  0  0  0  0  0  0  0
   -5.4953    0.9708   -1.5308 C   0  0  0  0  0  0  0  0  0  0  0  0
   -6.8049    0.5515   -1.5451 C   0  0  0  0  0  0  0  0  0  0  0  0
   -4.9880    3.4429   -1.4600 C   0  0  0  0  0  0  0  0  0  0  0  0
   -5.3378    3.5618   -2.7989 C   0  0  0  0  0  0  0  0  0  0  0  0
   -5.5623    4.8046   -3.3596 C   0  0  0  0  0  0  0  0  0  0  0  0
   -5.4307    5.9627   -2.6048 C   0  0  0  0  0  0  0  0  0  0  0  0
   -5.7215    7.3093   -3.2009 C   0  0  0  0  0  0  0  0  0  0  0  0
   -7.1909    7.6795   -2.9880 C   0  0  0  0  0  0  0  0  0  0  0  0
   -5.0700    5.8395   -1.2699 C   0  0  0  0  0  0  0  0  0  0  0  0
   -4.8476    4.5983   -0.7034 C   0  0  0  0  0  0  0  0  0  0  0  0
   -4.9290    2.0032    0.6225 C   0  0  0  0  0  0  0  0  0  0  0  0
   -6.1174    2.5048    1.1421 C   0  0  0  0  0  0  0  0  0  0  0  0
   -6.3776    2.4333    2.4964 C   0  0  0  0  0  0  0  0  0  0  0  0
   -5.4629    1.8558    3.3687 C   0  0  0  0  0  0  0  0  0  0  0  0
   -5.7632    1.7497    4.8358 C   0  0  0  0  0  0  0  0  0  0  0  0
   -6.5256    0.4570    5.1335 C   0  0  0  0  0  0  0  0  0  0  0  0
   -4.2890    1.3365    2.8419 C   0  0  0  0  0  0  0  0  0  0  0  0
   -4.0242    1.4028    1.4853 C   0  0  0  0  0  0  0  0  0  0  0  0
   -2.0051    2.1903   -1.0282 C   0  0  0  0  0  0  0  0  0  0  0  0
   -1.6478    3.1940   -0.1239 C   0  0  0  0  0  0  0  0  0  0  0  0
   -0.3154    3.4003    0.1463 C   0  0  0  0  0  0  0  0  0  0  0  0
    0.3645    4.5362    1.5090 Se  0  0  0  0  0  2  0  0  0  0  0  0
    2.0283    3.7818    1.0981 C   0  0  0  0  0  0  0  0  0  0  0  0
    3.3117    3.7123    1.6954 C   0  0  0  0  0  0  0  0  0  0  0  0
    4.0942    2.7803    1.0013 C   0  0  0  0  0  0  0  0  0  0  0  0
    3.3467    2.2750   -0.2126 C   0  0  0  0  0  0  0  0  0  0  0  0
    4.0589    2.8038   -1.4458 C   0  0  0  0  0  0  0  0  0  0  0  0
    5.3581    2.3827   -1.7084 C   0  0  0  0  0  0  0  0  0  0  0  0
    6.0426    2.8651   -2.8063 C   0  0  0  0  0  0  0  0  0  0  0  0
    5.4522    3.7790   -3.6710 C   0  0  0  0  0  0  0  0  0  0  0  0
    6.2174    4.3407   -4.8341 C   0  0  0  0  0  0  0  0  0  0  0  0
    6.9714    5.6044   -4.4148 C   0  0  0  0  0  0  0  0  0  0  0  0
    4.1554    4.1937   -3.4045 C   0  0  0  0  0  0  0  0  0  0  0  0
    3.4638    3.7145   -2.3056 C   0  0  0  0  0  0  0  0  0  0  0  0
    3.1479    0.7710   -0.2380 C   0  0  0  0  0  0  0  0  0  0  0  0
    2.6978    0.1330    0.9108 C   0  0  0  0  0  0  0  0  0  0  0  0
    2.3460   -1.2025    0.8800 C   0  0  0  0  0  0  0  0  0  0  0  0
    2.4324   -1.9346   -0.2972 C   0  0  0  0  0  0  0  0  0  0  0  0
    1.9335   -3.3480   -0.3681 C   0  0  0  0  0  0  0  0  0  0  0  0
    0.4651   -3.3558   -0.8011 C   0  0  0  0  0  0  0  0  0  0  0  0
    2.9178   -1.3019   -1.4332 C   0  0  0  0  0  0  0  0  0  0  0  0
    3.2702    0.0349   -1.4085 C   0  0  0  0  0  0  0  0  0  0  0  0
    1.9949    2.9171    0.0177 C   0  0  0  0  0  0  0  0  0  0  0  0
    0.7112    2.6652   -0.5157 C   0  0  0  0  0  0  0  0  0  0  0  0
    0.3570    1.7199   -1.4798 C   0  0  0  0  0  0  0  0  0  0  0  0
   -0.9759    1.4642   -1.6971 C   0  0  0  0  0  0  0  0  0  0  0  0
   -1.6462    0.0604   -2.7801 Se  0  0  0  0  0  2  0  0  0  0  0  0
    5.3137    2.5383    1.6013 C   0  0  0  0  0  0  0  0  0  0  0  0
    5.4843    3.2705    2.7729 C   0  0  0  0  0  0  0  0  0  0  0  0
    4.0963    4.3234    3.0822 S   0  0  0  0  0  0  0  0  0  0  0  0
    6.5019    3.2825    3.7421 C   0  0  0  0  0  0  0  0  0  0  0  0
    7.5775    2.4543    3.9292 C   0  0  0  0  0  0  0  0  0  0  0  0
    7.9486    1.2288    3.1873 C   0  0  0  0  0  0  0  0  0  0  0  0
    7.5524    0.8350    2.1076 O   0  0  0  0  0  0  0  0  0  0  0  0
    8.9409    0.5347    4.0287 C   0  0  0  0  0  0  0  0  0  0  0  0
    9.4989   -0.7193    3.7880 C   0  0  0  0  0  0  0  0  0  0  0  0
   10.3758   -1.1353    4.7600 C   0  0  0  0  0  0  0  0  0  0  0  0
   10.6804   -0.3592    5.8865 C   0  0  0  0  0  0  0  0  0  0  0  0
   10.1466    0.8842    6.1288 C   0  0  0  0  0  0  0  0  0  0  0  0
    9.2475    1.3252    5.1522 C   0  0  0  0  0  0  0  0  0  0  0  0
    8.4806    2.5650    5.0637 C   0  0  0  0  0  0  0  0  0  0  0  0
    8.6447    3.6540    5.8800 C   0  0  0  0  0  0  0  0  0  0  0  0
    7.9896    4.8962    5.7396 C   0  0  0  0  0  0  0  0  0  0  0  0
    7.5239    5.9452    5.6890 N   0  0  0  0  0  0  0  0  0  0  0  0
    9.5441    3.7063    6.9653 C   0  0  0  0  0  0  0  0  0  0  0  0
   10.2468    3.8196    7.8665 N   0  0  0  0  0  0  0  0  0  0  0  0
   11.6100   -1.4037    6.4533 C   0  0  0  0  0  0  0  0  0  0  0  0
   11.0583   -2.2579    7.6144 C   0  0  0  0  0  0  0  0  0  0  0  0
   11.9607   -3.4706    7.6329 C   0  0  0  0  0  0  0  0  0  0  0  0
   11.6722   -4.2047    6.5659 C   0  0  0  0  0  0  0  0  0  0  0  0
   10.5703   -3.5003    5.8080 C   0  0  0  0  0  0  0  0  0  0  0  0
    9.8041   -2.8729    6.9798 C   0  0  0  0  0  0  0  0  0  0  0  0
   11.2709   -2.2680    5.1966 C   0  0  0  0  0  0  0  0  0  0  0  0
   -9.0204   -0.7041   -1.8631 H   0  0  0  0  0  0  0  0  0  0  0  0
   -6.9829   -5.9002   -4.7465 H   0  0  0  0  0  0  0  0  0  0  0  0
  -11.7764   -5.2963   -3.2259 H   0  0  0  0  0  0  0  0  0  0  0  0
  -11.4910   -8.0806   -5.2157 H   0  0  0  0  0  0  0  0  0  0  0  0
  -11.8552   -9.2530   -3.0498 H   0  0  0  0  0  0  0  0  0  0  0  0
  -10.2538   -8.1319   -1.3138 H   0  0  0  0  0  0  0  0  0  0  0  0
   -7.7538   -8.4895   -2.1357 H   0  0  0  0  0  0  0  0  0  0  0  0
   -7.8143   -9.8310   -4.3805 H   0  0  0  0  0  0  0  0  0  0  0  0
  -10.3628  -10.5316   -4.8904 H   0  0  0  0  0  0  0  0  0  0  0  0
   -9.8901  -11.0181   -3.2432 H   0  0  0  0  0  0  0  0  0  0  0  0
   -9.0596   -8.4220   -6.0141 H   0  0  0  0  0  0  0  0  0  0  0  0
   -7.6224    1.0383   -1.0440 H   0  0  0  0  0  0  0  0  0  0  0  0
   -5.4385    2.6761   -3.4092 H   0  0  0  0  0  0  0  0  0  0  0  0
   -5.8402    4.8752   -4.4015 H   0  0  0  0  0  0  0  0  0  0  0  0
   -5.5051    7.2956   -4.2709 H   0  0  0  0  0  0  0  0  0  0  0  0
   -5.0885    8.0659   -2.7330 H   0  0  0  0  0  0  0  0  0  0  0  0
   -7.4230    7.7110   -1.9259 H   0  0  0  0  0  0  0  0  0  0  0  0
   -7.8384    6.9423   -3.4574 H   0  0  0  0  0  0  0  0  0  0  0  0
   -7.4041    8.6546   -3.4195 H   0  0  0  0  0  0  0  0  0  0  0  0
   -4.9583    6.7270   -0.6633 H   0  0  0  0  0  0  0  0  0  0  0  0
   -4.5792    4.5337    0.3411 H   0  0  0  0  0  0  0  0  0  0  0  0
   -6.8356    2.9674    0.4807 H   0  0  0  0  0  0  0  0  0  0  0  0
   -7.3029    2.8355    2.8832 H   0  0  0  0  0  0  0  0  0  0  0  0
   -6.3661    2.6031    5.1526 H   0  0  0  0  0  0  0  0  0  0  0  0
   -4.8321    1.7580    5.4059 H   0  0  0  0  0  0  0  0  0  0  0  0
   -7.4636    0.4354    4.5832 H   0  0  0  0  0  0  0  0  0  0  0  0
   -5.9355   -0.4072    4.8364 H   0  0  0  0  0  0  0  0  0  0  0  0
   -6.7441    0.3804    6.1960 H   0  0  0  0  0  0  0  0  0  0  0  0
   -3.5670    0.8749    3.5004 H   0  0  0  0  0  0  0  0  0  0  0  0
   -3.1039    0.9855    1.1041 H   0  0  0  0  0  0  0  0  0  0  0  0
   -2.4133    3.7500    0.3945 H   0  0  0  0  0  0  0  0  0  0  0  0
    5.8305    1.6646   -1.0558 H   0  0  0  0  0  0  0  0  0  0  0  0
    7.0510    2.5260   -2.9954 H   0  0  0  0  0  0  0  0  0  0  0  0
    6.9320    3.6004   -5.1995 H   0  0  0  0  0  0  0  0  0  0  0  0
    5.5307    4.5845   -5.6473 H   0  0  0  0  0  0  0  0  0  0  0  0
    7.5320    6.0093   -5.2540 H   0  0  0  0  0  0  0  0  0  0  0  0
    6.2743    6.3621   -4.0640 H   0  0  0  0  0  0  0  0  0  0  0  0
    7.6659    5.3802   -3.6082 H   0  0  0  0  0  0  0  0  0  0  0  0
    3.6747    4.9012   -4.0652 H   0  0  0  0  0  0  0  0  0  0  0  0
    2.4546    4.0542   -2.1250 H   0  0  0  0  0  0  0  0  0  0  0  0
    2.6047    0.6927    1.8310 H   0  0  0  0  0  0  0  0  0  0  0  0
    1.9839   -1.6794    1.7797 H   0  0  0  0  0  0  0  0  0  0  0  0
    2.5248   -3.9170   -1.0881 H   0  0  0  0  0  0  0  0  0  0  0  0
    2.0257   -3.8283    0.6078 H   0  0  0  0  0  0  0  0  0  0  0  0
    0.3531   -2.8803   -1.7739 H   0  0  0  0  0  0  0  0  0  0  0  0
   -0.1431   -2.8077   -0.0847 H   0  0  0  0  0  0  0  0  0  0  0  0
    0.0913   -4.3747   -0.8671 H   0  0  0  0  0  0  0  0  0  0  0  0
    3.0053   -1.8566   -2.3566 H   0  0  0  0  0  0  0  0  0  0  0  0
    3.6256    0.5085   -2.3123 H   0  0  0  0  0  0  0  0  0  0  0  0
    1.1220    1.1585   -1.9934 H   0  0  0  0  0  0  0  0  0  0  0  0
    6.0554    1.8420    1.2584 H   0  0  0  0  0  0  0  0  0  0  0  0
    6.3545    4.0439    4.4998 H   0  0  0  0  0  0  0  0  0  0  0  0
    9.2352   -1.2822    2.9063 H   0  0  0  0  0  0  0  0  0  0  0  0
   10.3913    1.4677    7.0003 H   0  0  0  0  0  0  0  0  0  0  0  0
   12.6404   -1.0897    6.6078 H   0  0  0  0  0  0  0  0  0  0  0  0
   10.9355   -1.7248    8.5531 H   0  0  0  0  0  0  0  0  0  0  0  0
   12.7286   -3.6358    8.3656 H   0  0  0  0  0  0  0  0  0  0  0  0
   12.1509   -5.1056    6.2291 H   0  0  0  0  0  0  0  0  0  0  0  0
   10.0022   -4.0989    5.1009 H   0  0  0  0  0  0  0  0  0  0  0  0
    9.0544   -2.1430    6.6800 H   0  0  0  0  0  0  0  0  0  0  0  0
    9.3450   -3.6241    7.6204 H   0  0  0  0  0  0  0  0  0  0  0  0
   12.0756   -2.5313    4.5126 H   0  0  0  0  0  0  0  0  0  0  0  0
  1  2  2  0  0  0  0
  2  3  1  0  0  0  0
  3  4  2  0  0  0  0
  3  5  1  0  0  0  0
  5  6  2  0  0  0  0
  6  7  1  0  0  0  0
  7  8  2  0  0  0  0
  8  9  1  0  0  0  0
  9 10  2  0  0  0  0
 10 11  1  0  0  0  0
 11 12  2  0  0  0  0
 12 13  1  0  0  0  0
 13 14  3  0  0  0  0
 12 15  1  0  0  0  0
 15 16  3  0  0  0  0
  8 17  1  0  0  0  0
 17 18  1  0  0  0  0
 18 19  1  0  0  0  0
 19 20  2  0  0  0  0
 20 21  1  0  0  0  0
 21 22  1  0  0  0  0
 21 23  1  0  0  0  0
  1 24  1  0  0  0  0
 24 25  1  0  0  0  0
 25 26  1  0  0  0  0
 26 27  1  0  0  0  0
 27 28  2  0  0  0  0
 28 29  1  0  0  0  0
 29 30  1  0  0  0  0
 30 31  1  0  0  0  0
 29 32  1  0  0  0  0
 32 33  2  0  0  0  0
 33 34  1  0  0  0  0
 34 35  2  0  0  0  0
 35 36  1  0  0  0  0
 36 37  1  0  0  0  0
 35 38  1  0  0  0  0
 38 39  2  0  0  0  0
 29 40  1  0  0  0  0
 40 41  2  0  0  0  0
 41 42  1  0  0  0  0
 42 43  2  0  0  0  0
 43 44  1  0  0  0  0
 44 45  1  0  0  0  0
 43 46  1  0  0  0  0
 46 47  2  0  0  0  0
 28 48  1  0  0  0  0
 48 49  2  0  0  0  0
 49 50  1  0  0  0  0
 50 51  1  0  0  0  0
 51 52  1  0  0  0  0
 52 53  1  0  0  0  0
 53 54  2  0  0  0  0
 54 55  1  0  0  0  0
 55 56  1  0  0  0  0
 56 57  2  0  0  0  0
 57 58  1  0  0  0  0
 58 59  2  0  0  0  0
 59 60  1  0  0  0  0
 60 61  1  0  0  0  0
 59 62  1  0  0  0  0
 62 63  2  0  0  0  0
 55 64  1  0  0  0  0
 64 65  2  0  0  0  0
 65 66  1  0  0  0  0
 66 67  2  0  0  0  0
 67 68  1  0  0  0  0
 68 69  1  0  0  0  0
 67 70  1  0  0  0  0
 70 71  2  0  0  0  0
 55 72  1  0  0  0  0
 72 73  1  0  0  0  0
 73 74  1  0  0  0  0
 74 75  2  0  0  0  0
 75 76  1  0  0  0  0
 54 77  1  0  0  0  0
 77 78  2  0  0  0  0
 78 79  1  0  0  0  0
 78 80  1  0  0  0  0
 80 81  2  0  0  0  0
 81 82  1  0  0  0  0
 82 83  2  0  0  0  0
 82 84  1  0  0  0  0
 84 85  2  0  0  0  0
 85 86  1  0  0  0  0
 86 87  2  0  0  0  0
 87 88  1  0  0  0  0
 88 89  2  0  0  0  0
 89 90  1  0  0  0  0
 90 91  2  0  0  0  0
 91 92  1  0  0  0  0
 92 93  3  0  0  0  0
 91 94  1  0  0  0  0
 94 95  3  0  0  0  0
 87 96  1  0  0  0  0
 96 97  1  0  0  0  0
 97 98  1  0  0  0  0
 98 99  2  0  0  0  0
 99100  1  0  0  0  0
100101  1  0  0  0  0
100102  1  0  0  0  0
 11  2  1  0  0  0  0
 23 17  1  0  0  0  0
 31 24  2  0  0  0  0
 39 32  1  0  0  0  0
 47 40  1  0  0  0  0
 75 48  1  0  0  0  0
 90 81  1  0  0  0  0
102 96  1  0  0  0  0
 10  5  1  0  0  0  0
 22 18  1  0  0  0  0
 30 26  2  0  0  0  0
 73 50  2  0  0  0  0
 89 84  1  0  0  0  0
101 97  1  0  0  0  0
 23  7  1  0  0  0  0
 76 27  1  0  0  0  0
102 86  1  0  0  0  0
 72 52  2  0  0  0  0
 79 53  1  0  0  0  0
 63 56  1  0  0  0  0
 71 64  1  0  0  0  0
  1103  1  0  0  0  0
  6104  1  0  0  0  0
  9105  1  0  0  0  0
 17106  1  0  0  0  0
 18107  1  0  0  0  0
 19108  1  0  0  0  0
 20109  1  0  0  0  0
 21110  1  0  0  0  0
 22111  1  0  0  0  0
 22112  1  0  0  0  0
 23113  1  0  0  0  0
 31114  1  0  0  0  0
 33115  1  0  0  0  0
 34116  1  0  0  0  0
 36117  1  0  0  0  0
 36118  1  0  0  0  0
 37119  1  0  0  0  0
 37120  1  0  0  0  0
 37121  1  0  0  0  0
 38122  1  0  0  0  0
 39123  1  0  0  0  0
 41124  1  0  0  0  0
 42125  1  0  0  0  0
 44126  1  0  0  0  0
 44127  1  0  0  0  0
 45128  1  0  0  0  0
 45129  1  0  0  0  0
 45130  1  0  0  0  0
 46131  1  0  0  0  0
 47132  1  0  0  0  0
 49133  1  0  0  0  0
 57134  1  0  0  0  0
 58135  1  0  0  0  0
 60136  1  0  0  0  0
 60137  1  0  0  0  0
 61138  1  0  0  0  0
 61139  1  0  0  0  0
 61140  1  0  0  0  0
 62141  1  0  0  0  0
 63142  1  0  0  0  0
 65143  1  0  0  0  0
 66144  1  0  0  0  0
 68145  1  0  0  0  0
 68146  1  0  0  0  0
 69147  1  0  0  0  0
 69148  1  0  0  0  0
 69149  1  0  0  0  0
 70150  1  0  0  0  0
 71151  1  0  0  0  0
 74152  1  0  0  0  0
 77153  1  0  0  0  0
 80154  1  0  0  0  0
 85155  1  0  0  0  0
 88156  1  0  0  0  0
 96157  1  0  0  0  0
 97158  1  0  0  0  0
 98159  1  0  0  0  0
 99160  1  0  0  0  0
100161  1  0  0  0  0
101162  1  0  0  0  0
101163  1  0  0  0  0
102164  1  0  0  0  0
M  END
