107

C         -4.49680        2.74470        1.78660
C         -5.13170        3.70470        1.03720
C         -4.67860        4.38750       -0.19130
O         -3.59980        4.32830       -0.75100
C         -5.82600        5.18970       -0.65770
C         -5.87630        5.97260       -1.80810
C         -7.08250        6.59990       -2.00540
C         -8.15920        6.46040       -1.12000
C         -8.11930        5.69630        0.02200
C         -6.90060        5.04680        0.23960
C         -6.48130        4.15910        1.32200
C         -7.24430        3.85980        2.42500
C         -8.55200        4.33900        2.64750
N         -9.61830        4.67830        2.90670
C         -6.85950        3.05570        3.51700
N         -6.63430        2.42490        4.45230
C         -9.05540        7.35080       -1.94360
C        -10.13530        6.67250       -2.82230
C         -9.62120        5.29150       -3.14520
C         -8.60200        5.42450       -3.98330
C         -8.40840        6.89820       -4.24210
C         -9.86520        7.38120       -4.15930
C         -7.85520        7.50730       -2.92980
C         -3.21760        2.17510        1.70480
C         -2.12270        2.48720        0.87190
C         -1.12080        1.60070        1.21270
C         -1.59700        0.77890        2.25930
N         -2.85920        1.13340        2.56230
C         -3.69370        0.44400        3.51840
C         -4.62990       -0.55040        2.83420
C         -0.54330       -0.08080        2.62300
C         -0.37840       -1.00300        3.67970
C          0.88950       -1.65810        3.84890
N          0.91690       -2.44330        4.91340
S         -0.52280       -2.37570        5.64560
N         -1.24270       -1.33580        4.62830
C          1.89380       -1.46670        2.87430
C          3.12830       -2.09780        2.66820
S          4.14750       -3.26530        3.43760
C          5.24100       -3.16660        2.07110
C          6.43560       -3.81530        1.77890
C          7.03900       -4.84000        2.68420
C          6.59240       -6.24920        2.28620
C          6.93740       -3.42320        0.53020
S          5.91010       -2.22300       -0.25340
C          4.82020       -2.26540        1.07990
C          3.61690       -1.64910        1.43450
N          2.75680       -0.73040        0.89250
C          1.69250       -0.59390        1.76660
C          0.52930        0.21080        1.72770
N          0.17450        1.25960        0.89780
C          1.03140        2.23760        0.26290
C          0.73850        2.37470       -1.22880
C          2.78610       -0.48530       -0.53470
C          1.70040       -1.28470       -1.25030
C          8.11370       -3.93660       -0.03500
C          8.70490       -3.67950       -1.23920
S         10.19190       -4.50360       -1.69620
C         10.23070       -3.67550       -3.23340
C         11.24680       -3.91720       -4.12500
C         11.40760       -3.33540       -5.39310
N         11.59680       -2.90180       -6.44010
C         12.25620       -4.84110       -3.78380
N         13.07920       -5.59320       -3.51330
N          9.17820       -2.82510       -3.35940
C          8.89830       -2.01560       -4.53090
C          8.16860       -2.81580       -5.60320
C          8.29040       -2.78450       -2.29270
O          7.31060       -2.05910       -2.29890
H         -5.09650        2.33330        2.58560
H         -5.02140        6.05140       -2.46160
H         -8.95840        5.60120        0.69020
H         -9.42700        8.24470       -1.44660
H        -11.14350        6.72720       -2.42070
H        -10.00250        4.39140       -2.69950
H         -7.96130        4.65760       -4.37780
H         -7.84450        7.15890       -5.13410
H        -10.48250        6.99920       -4.97100
H         -9.96050        8.46470       -4.10290
H         -7.44300        8.50390       -3.07650
H         -2.12510        3.26180        0.13460
H         -4.27040        1.16660        4.10190
H         -3.02370       -0.09630        4.19240
H         -5.24820       -1.03810        3.58160
H         -5.27960       -0.05050        2.11910
H         -4.05310       -1.30810        2.30860
H          6.70260       -4.63490        3.70230
H          8.12820       -4.77770        2.66700
H          5.50900       -6.32570        2.33390
H          6.91070       -6.48360        1.27290
H          7.02120       -6.98180        2.96480
H          0.84430        3.20580        0.74420
H          2.07290        1.97670        0.45480
H         -0.27950        2.72400       -1.37540
H          0.84940        1.42610       -1.74640
H          1.41850        3.09840       -1.67030
H          2.68270        0.57510       -0.75450
H          3.77090       -0.80260       -0.88590
H          0.71220       -0.98750       -0.90590
H          1.82730       -2.34760       -1.05730
H          1.76550       -1.11820       -2.32200
H          8.63070       -4.66080        0.58300
H          9.83270       -1.60620       -4.91720
H          8.26030       -1.19870       -4.18170
H          7.95390       -2.16960       -6.44880
H          7.23100       -3.20210       -5.20940
H          8.77720       -3.64580       -5.95430
