
  xtb     02022214303D
 energy: -197.679535941040 gnorm: 0.000504493507 xtb: 6.4.1 (unknown)
108121  0     0  0            999 V2000
   -0.0794   -1.1507   -5.4988 C   0  0  0  0  0  0  0  0  0  0  0  0
    0.9596   -1.9515   -5.8706 C   0  0  0  0  0  0  0  0  0  0  0  0
    1.3894   -1.9710   -7.2924 C   0  0  0  0  0  0  0  0  0  0  0  0
    0.7814   -1.5137   -8.2358 O   0  0  0  0  0  0  0  0  0  0  0  0
    2.7177   -2.6135   -7.2935 C   0  0  0  0  0  0  0  0  0  0  0  0
    3.5857   -2.7592   -8.3728 C   0  0  0  0  0  0  0  0  0  0  0  0
    4.7721   -3.3778   -8.0583 C   0  0  0  0  0  0  0  0  0  0  0  0
    5.0829   -3.8091   -6.7617 C   0  0  0  0  0  0  0  0  0  0  0  0
    4.2345   -3.6775   -5.6882 C   0  0  0  0  0  0  0  0  0  0  0  0
    3.0163   -3.0650   -5.9907 C   0  0  0  0  0  0  0  0  0  0  0  0
    1.8648   -2.7980   -5.1302 C   0  0  0  0  0  0  0  0  0  0  0  0
    1.5968   -3.4474   -3.9512 C   0  0  0  0  0  0  0  0  0  0  0  0
    2.4878   -4.3316   -3.3118 C   0  0  0  0  0  0  0  0  0  0  0  0
    3.1762   -5.0382   -2.7236 N   0  0  0  0  0  0  0  0  0  0  0  0
    0.3653   -3.3763   -3.2709 C   0  0  0  0  0  0  0  0  0  0  0  0
   -0.6232   -3.3960   -2.6863 N   0  0  0  0  0  0  0  0  0  0  0  0
    6.4327   -4.3389   -7.1750 C   0  0  0  0  0  0  0  0  0  0  0  0
    6.5806   -5.8717   -7.3382 C   0  0  0  0  0  0  0  0  0  0  0  0
    5.2072   -6.4001   -7.6710 C   0  0  0  0  0  0  0  0  0  0  0  0
    4.9070   -6.0005   -8.8995 C   0  0  0  0  0  0  0  0  0  0  0  0
    6.0719   -5.1949   -9.4196 C   0  0  0  0  0  0  0  0  0  0  0  0
    7.2351   -5.9235   -8.7279 C   0  0  0  0  0  0  0  0  0  0  0  0
    6.0826   -3.8671   -8.6216 C   0  0  0  0  0  0  0  0  0  0  0  0
   -0.4127   -0.6762   -4.2133 C   0  0  0  0  0  0  0  0  0  0  0  0
    0.4169   -0.5638   -3.0824 C   0  0  0  0  0  0  0  0  0  0  0  0
   -0.3621    0.0237   -2.0994 C   0  0  0  0  0  0  0  0  0  0  0  0
   -1.6439    0.2523   -2.6392 C   0  0  0  0  0  0  0  0  0  0  0  0
   -1.6586   -0.1429   -3.9283 N   0  0  0  0  0  0  0  0  0  0  0  0
   -2.8243   -0.2028   -4.7751 C   0  0  0  0  0  0  0  0  0  0  0  0
   -3.3321   -1.6353   -4.9178 C   0  0  0  0  0  0  0  0  0  0  0  0
   -2.4342    0.7854   -1.6068 C   0  0  0  0  0  0  0  0  0  0  0  0
   -3.8048    1.1200   -1.5550 C   0  0  0  0  0  0  0  0  0  0  0  0
   -4.3717    1.5466   -0.3097 C   0  0  0  0  0  0  0  0  0  0  0  0
   -5.6710    1.7818   -0.3943 N   0  0  0  0  0  0  0  0  0  0  0  0
   -6.1490    1.4989   -1.9126 S   0  0  0  0  0  0  0  0  0  0  0  0
   -4.7088    1.0656   -2.5237 N   0  0  0  0  0  0  0  0  0  0  0  0
   -3.5190    1.7197    0.8016 C   0  0  0  0  0  0  0  0  0  0  0  0
   -3.7749    2.2285    2.0782 C   0  0  0  0  0  0  0  0  0  0  0  0
   -5.1109    2.7972    3.0171 S   0  0  0  0  0  0  0  0  0  0  0  0
   -3.9953    3.1622    4.3223 C   0  0  0  0  0  0  0  0  0  0  0  0
   -4.1797    3.7140    5.5779 C   0  0  0  0  0  0  0  0  0  0  0  0
   -5.5237    4.0772    6.1175 C   0  0  0  0  0  0  0  0  0  0  0  0
   -6.0781    2.9516    6.9958 C   0  0  0  0  0  0  0  0  0  0  0  0
   -2.9573    3.8264    6.2756 C   0  0  0  0  0  0  0  0  0  0  0  0
   -1.5946    3.2233    5.3253 S   0  0  0  0  0  0  0  0  0  0  0  0
   -2.6547    2.8448    4.0224 C   0  0  0  0  0  0  0  0  0  0  0  0
   -2.5413    2.3057    2.7410 C   0  0  0  0  0  0  0  0  0  0  0  0
   -1.5449    1.8368    1.9282 N   0  0  0  0  0  0  0  0  0  0  0  0
   -2.1151    1.4582    0.7273 C   0  0  0  0  0  0  0  0  0  0  0  0
   -1.5868    0.8900   -0.4600 C   0  0  0  0  0  0  0  0  0  0  0  0
   -0.3204    0.4164   -0.7856 N   0  0  0  0  0  0  0  0  0  0  0  0
    0.7023   -0.1520    0.0675 C   0  0  0  0  0  0  0  0  0  0  0  0
    0.1386   -1.2495    0.9659 C   0  0  0  0  0  0  0  0  0  0  0  0
   -0.1647    2.0926    2.2758 C   0  0  0  0  0  0  0  0  0  0  0  0
    0.4626    3.1304    1.3494 C   0  0  0  0  0  0  0  0  0  0  0  0
   -2.8632    4.3722    7.5519 C   0  0  0  0  0  0  0  0  0  0  0  0
   -1.7774    4.5589    8.3846 C   0  0  0  0  0  0  0  0  0  0  0  0
   -0.4011    4.1631    8.0995 C   0  0  0  0  0  0  0  0  0  0  0  0
    0.0353    3.6416    7.0910 O   0  0  0  0  0  0  0  0  0  0  0  0
    0.3808    4.5329    9.3039 C   0  0  0  0  0  0  0  0  0  0  0  0
   -0.4718    5.1330   10.2470 C   0  0  0  0  0  0  0  0  0  0  0  0
    0.0239    5.5684   11.4636 C   0  0  0  0  0  0  0  0  0  0  0  0
    1.3772    5.3934   11.7185 C   0  0  0  0  0  0  0  0  0  0  0  0
    1.8756    5.8055   12.8870 F   0  0  0  0  0  0  0  0  0  0  0  0
    2.2339    4.8006   10.7947 C   0  0  0  0  0  0  0  0  0  0  0  0
    3.5310    4.6494   11.0782 F   0  0  0  0  0  0  0  0  0  0  0  0
    1.7273    4.3643    9.5683 C   0  0  0  0  0  0  0  0  0  0  0  0
    2.5477    3.7980    8.6870 F   0  0  0  0  0  0  0  0  0  0  0  0
   -1.8277    5.1708    9.6906 C   0  0  0  0  0  0  0  0  0  0  0  0
   -2.9173    5.7178   10.3234 C   0  0  0  0  0  0  0  0  0  0  0  0
   -2.8762    6.3177   11.5991 C   0  0  0  0  0  0  0  0  0  0  0  0
   -2.9148    6.8212   12.6301 N   0  0  0  0  0  0  0  0  0  0  0  0
   -4.2275    5.7770    9.8054 C   0  0  0  0  0  0  0  0  0  0  0  0
   -5.3196    5.8683    9.4591 N   0  0  0  0  0  0  0  0  0  0  0  0
   -0.6692   -0.7720   -6.3279 H   0  0  0  0  0  0  0  0  0  0  0  0
    3.3134   -2.4064   -9.3551 H   0  0  0  0  0  0  0  0  0  0  0  0
    4.4859   -4.0075   -4.6934 H   0  0  0  0  0  0  0  0  0  0  0  0
    7.2938   -3.8874   -6.6863 H   0  0  0  0  0  0  0  0  0  0  0  0
    7.0993   -6.3649   -6.5206 H   0  0  0  0  0  0  0  0  0  0  0  0
    4.5912   -6.9433   -6.9786 H   0  0  0  0  0  0  0  0  0  0  0  0
    3.9894   -6.1437   -9.4395 H   0  0  0  0  0  0  0  0  0  0  0  0
    6.1280   -5.0730  -10.4981 H   0  0  0  0  0  0  0  0  0  0  0  0
    8.1797   -5.3840   -8.7833 H   0  0  0  0  0  0  0  0  0  0  0  0
    7.3705   -6.9408   -9.0916 H   0  0  0  0  0  0  0  0  0  0  0  0
    6.7183   -3.1125   -9.0810 H   0  0  0  0  0  0  0  0  0  0  0  0
    1.4529   -0.8365   -3.0433 H   0  0  0  0  0  0  0  0  0  0  0  0
   -3.5933    0.4143   -4.3035 H   0  0  0  0  0  0  0  0  0  0  0  0
   -2.5822    0.2145   -5.7576 H   0  0  0  0  0  0  0  0  0  0  0  0
   -3.5655   -2.0460   -3.9390 H   0  0  0  0  0  0  0  0  0  0  0  0
   -4.2311   -1.6477   -5.5271 H   0  0  0  0  0  0  0  0  0  0  0  0
   -2.5815   -2.2689   -5.3850 H   0  0  0  0  0  0  0  0  0  0  0  0
   -6.1986    4.2354    5.2741 H   0  0  0  0  0  0  0  0  0  0  0  0
   -5.4787    5.0002    6.6975 H   0  0  0  0  0  0  0  0  0  0  0  0
   -6.1701    2.0334    6.4204 H   0  0  0  0  0  0  0  0  0  0  0  0
   -5.4237    2.7656    7.8442 H   0  0  0  0  0  0  0  0  0  0  0  0
   -7.0587    3.2285    7.3717 H   0  0  0  0  0  0  0  0  0  0  0  0
    1.4447   -0.5884   -0.6040 H   0  0  0  0  0  0  0  0  0  0  0  0
    1.2080    0.6231    0.6437 H   0  0  0  0  0  0  0  0  0  0  0  0
   -0.6464   -0.8653    1.6131 H   0  0  0  0  0  0  0  0  0  0  0  0
   -0.2809   -2.0448    0.3537 H   0  0  0  0  0  0  0  0  0  0  0  0
    0.9296   -1.6670    1.5830 H   0  0  0  0  0  0  0  0  0  0  0  0
    0.4045    1.1630    2.2879 H   0  0  0  0  0  0  0  0  0  0  0  0
   -0.1672    2.4789    3.2977 H   0  0  0  0  0  0  0  0  0  0  0  0
   -0.0842    4.0680    1.4202 H   0  0  0  0  0  0  0  0  0  0  0  0
    0.4420    2.8022    0.3128 H   0  0  0  0  0  0  0  0  0  0  0  0
    1.4930    3.3100    1.6430 H   0  0  0  0  0  0  0  0  0  0  0  0
   -3.8137    4.7025    7.9472 H   0  0  0  0  0  0  0  0  0  0  0  0
   -0.5889    6.0331   12.2179 H   0  0  0  0  0  0  0  0  0  0  0  0
  1  2  2  0  0  0  0
  2  3  1  0  0  0  0
  3  4  2  0  0  0  0
  3  5  1  0  0  0  0
  5  6  2  0  0  0  0
  6  7  1  0  0  0  0
  7  8  2  0  0  0  0
  8  9  1  0  0  0  0
  9 10  2  0  0  0  0
 10 11  1  0  0  0  0
 11 12  2  0  0  0  0
 12 13  1  0  0  0  0
 13 14  3  0  0  0  0
 12 15  1  0  0  0  0
 15 16  3  0  0  0  0
  8 17  1  0  0  0  0
 17 18  1  0  0  0  0
 18 19  1  0  0  0  0
 19 20  2  0  0  0  0
 20 21  1  0  0  0  0
 21 22  1  0  0  0  0
 21 23  1  0  0  0  0
  1 24  1  0  0  0  0
 24 25  2  0  0  0  0
 25 26  1  0  0  0  0
 26 27  2  0  0  0  0
 27 28  1  0  0  0  0
 28 29  1  0  0  0  0
 29 30  1  0  0  0  0
 27 31  1  0  0  0  0
 31 32  1  0  0  0  0
 32 33  1  0  0  0  0
 33 34  2  0  0  0  0
 34 35  1  0  0  0  0
 35 36  1  0  0  0  0
 33 37  1  0  0  0  0
 37 38  1  0  0  0  0
 38 39  1  0  0  0  0
 39 40  1  0  0  0  0
 40 41  1  0  0  0  0
 41 42  1  0  0  0  0
 42 43  1  0  0  0  0
 41 44  2  0  0  0  0
 44 45  1  0  0  0  0
 45 46  1  0  0  0  0
 46 47  1  0  0  0  0
 47 48  1  0  0  0  0
 48 49  1  0  0  0  0
 49 50  1  0  0  0  0
 50 51  1  0  0  0  0
 51 52  1  0  0  0  0
 52 53  1  0  0  0  0
 48 54  1  0  0  0  0
 54 55  1  0  0  0  0
 44 56  1  0  0  0  0
 56 57  2  0  0  0  0
 57 58  1  0  0  0  0
 58 59  2  0  0  0  0
 58 60  1  0  0  0  0
 60 61  2  0  0  0  0
 61 62  1  0  0  0  0
 62 63  2  0  0  0  0
 63 64  1  0  0  0  0
 63 65  1  0  0  0  0
 65 66  1  0  0  0  0
 65 67  2  0  0  0  0
 67 68  1  0  0  0  0
 61 69  1  0  0  0  0
 69 70  2  0  0  0  0
 70 71  1  0  0  0  0
 71 72  3  0  0  0  0
 70 73  1  0  0  0  0
 73 74  3  0  0  0  0
 11  2  1  0  0  0  0
 23 17  1  0  0  0  0
 28 24  1  0  0  0  0
 50 31  2  0  0  0  0
 69 57  1  0  0  0  0
 10  5  1  0  0  0  0
 22 18  1  0  0  0  0
 51 26  1  0  0  0  0
 67 60  1  0  0  0  0
 23  7  1  0  0  0  0
 36 32  2  0  0  0  0
 49 37  2  0  0  0  0
 47 38  2  0  0  0  0
 46 40  2  0  0  0  0
  1 75  1  0  0  0  0
  6 76  1  0  0  0  0
  9 77  1  0  0  0  0
 17 78  1  0  0  0  0
 18 79  1  0  0  0  0
 19 80  1  0  0  0  0
 20 81  1  0  0  0  0
 21 82  1  0  0  0  0
 22 83  1  0  0  0  0
 22 84  1  0  0  0  0
 23 85  1  0  0  0  0
 25 86  1  0  0  0  0
 29 87  1  0  0  0  0
 29 88  1  0  0  0  0
 30 89  1  0  0  0  0
 30 90  1  0  0  0  0
 30 91  1  0  0  0  0
 42 92  1  0  0  0  0
 42 93  1  0  0  0  0
 43 94  1  0  0  0  0
 43 95  1  0  0  0  0
 43 96  1  0  0  0  0
 52 97  1  0  0  0  0
 52 98  1  0  0  0  0
 53 99  1  0  0  0  0
 53100  1  0  0  0  0
 53101  1  0  0  0  0
 54102  1  0  0  0  0
 54103  1  0  0  0  0
 55104  1  0  0  0  0
 55105  1  0  0  0  0
 55106  1  0  0  0  0
 56107  1  0  0  0  0
 62108  1  0  0  0  0
M  END
