174

C          6.61920       -2.77640       -0.38810
C          7.56420       -1.81320       -0.15710
C          7.36060       -0.36040       -0.25770
O          6.45770        0.22740       -0.82570
C          8.47570        0.25960        0.47720
C          8.63160        1.61100        0.77910
C          9.74870        1.88880        1.52950
C         10.64740        0.89720        1.94590
C         10.50860       -0.43810        1.64910
C          9.37600       -0.74400        0.88850
C          8.87440       -2.03650        0.42570
C          9.54780       -3.22740        0.49890
C         10.83720       -3.37940        1.04980
N         11.88340       -3.57280        1.48150
C          9.07150       -4.45890        0.00180
N          8.75730       -5.49400       -0.38440
C         11.52210        1.88450        2.67780
C         12.83550        2.29720        1.98090
C         13.22070        3.58550        2.67170
C         12.37060        4.52480        2.27720
C         11.39630        3.88730        1.31290
C         12.31790        2.85600        0.64920
C         10.52060        2.99010        2.21280
C          5.27860       -2.64020       -0.78820
C          4.35790       -3.68180       -0.65590
C          3.06900       -3.28480       -0.95900
S          1.49370       -4.01880       -0.77440
C          0.76590       -2.50940       -1.21940
C         -0.54290       -1.94210       -1.11130
C         -1.71290       -2.50020       -0.57660
C         -1.75270       -3.93810       -0.32350
C         -1.74860       -4.91920       -1.26790
C         -1.74000       -6.21790       -0.71720
C         -1.71500       -6.22590        0.64150
C         -1.63260       -7.39280        1.56400
C         -0.20670       -7.57360        2.08920
S         -1.71310       -4.61190        1.27600
C         -2.75120       -1.61980       -0.32800
C         -4.10810       -1.91620        0.29120
C         -4.03860       -2.25350        1.76970
C         -2.90080       -1.98870        2.51890
C         -2.87680       -2.26110        3.87420
C         -3.98860       -2.78630        4.51760
C         -3.93160       -3.14720        5.97340
C         -3.41550       -4.57820        6.14010
C         -5.13650       -3.01550        3.76990
C         -5.16620       -2.74590        2.41530
C         -4.80090       -2.96570       -0.55780
C         -5.31660       -2.60230       -1.79530
C         -5.88480       -3.54870       -2.62650
C         -5.94760       -4.88290       -2.24790
C         -6.50730       -5.92470       -3.17240
C         -5.38470       -6.55690       -3.99780
C         -5.42740       -5.24130       -1.01190
C         -4.86040       -4.29840       -0.17610
C         -4.75510       -0.55770        0.21400
C         -3.87240        0.37510       -0.30850
C         -2.63870       -0.25150       -0.66230
C         -1.48300        0.29830       -1.23590
C         -0.43520       -0.57560       -1.45480
C          0.96830       -0.24960       -1.93230
C          1.06910       -0.14700       -3.44660
C         -0.02770       -0.33230       -4.27450
C          0.11540       -0.26930       -5.64930
C          1.35230       -0.03110       -6.23050
C          1.50960       -0.00840       -7.72360
C          1.80020       -1.41480       -8.25160
C          2.45140        0.13350       -5.39620
C          2.31530        0.07320       -4.02340
C          1.54510        0.94510       -1.20130
C          1.83050        2.14690       -1.83100
C          2.38850        3.19270       -1.12010
C          2.67690        3.06650        0.23100
C          3.38110        4.16400        0.97430
C          4.89410        3.94080        0.91400
C          2.36120        1.87170        0.86430
C          1.79830        0.82650        0.15990
C          1.67730       -1.52730       -1.56510
C          2.99310       -1.94740       -1.40220
S          4.52350       -1.16530       -1.37940
C         -1.39460        1.73320       -1.48790
C         -1.38330        2.72640       -0.55600
C         -1.27740        4.01380       -1.12240
C         -1.22360        4.00240       -2.48020
C         -1.16730        5.15760       -3.41900
C         -2.52410        5.39210       -4.08650
S         -1.29610        2.38260       -3.09350
S         -4.49140        1.98780       -0.37120
C         -5.97410        1.42140        0.35010
C         -7.13520        2.05820        0.75350
C         -8.03890        1.17660        1.33180
S         -7.41320       -0.48290        1.34160
C         -5.95280        0.03120        0.60370
C         -9.29670        1.35210        1.93000
C        -10.06510        2.46610        2.15130
C         -9.79470        3.87340        1.75920
O         -8.85260        4.33520        1.14920
C        -10.94550        4.61510        2.27230
S        -11.43750        6.25230        2.27480
C        -12.87150        5.79660        3.14860
Br       -14.12080        7.10590        3.63060
C        -12.96620        4.45980        3.42170
C        -11.84670        3.77830        2.91110
C        -11.33670        2.41940        2.85840
C        -11.98430        1.34460        3.41010
C        -11.55310        0.00280        3.41660
N        -11.28300       -1.11220        3.47560
C        -13.22230        1.49190        4.07220
N        -14.22820        1.58490        4.61630
H          6.88910       -3.79710       -0.14220
H          7.90880        2.34040        0.44800
H         11.20100       -1.19030        1.98860
H         11.64410        1.70750        3.74480
H         13.59210        1.51870        1.93840
H         14.01080        3.66540        3.39500
H         12.30870        5.54590        2.60520
H         10.84250        4.55810        0.66150
H         11.79580        2.12510        0.03450
H         13.10780        3.32550        0.06540
H          9.97500        3.55030        2.97010
H          4.63540       -4.65980       -0.30610
H         -1.77380       -4.71410       -2.32360
H         -1.74950       -7.11340       -1.31290
H         -2.31050       -7.24590        2.40830
H         -1.94210       -8.29130        1.02600
H         -0.15390       -8.43220        2.75380
H          0.48270       -7.72800        1.26230
H          0.10630       -6.68770        2.63710
H         -2.02360       -1.57320        2.04470
H         -1.97790       -2.06060        4.43920
H         -3.26550       -2.46110        6.50050
H         -4.92610       -3.06820        6.41650
H         -2.42390       -4.67470        5.70340
H         -3.36060       -4.84380        7.19320
H         -4.07930       -5.27900        5.63880
H         -6.02040       -3.40660        4.25250
H         -6.07050       -2.92740        1.85270
H         -5.27040       -1.57020       -2.11390
H         -6.28290       -3.24570       -3.58460
H         -7.23940       -5.47260       -3.84430
H         -7.00890       -6.70240       -2.59300
H         -5.78290       -7.31950       -4.66300
H         -4.88400       -5.79940       -4.59710
H         -4.64750       -7.01570       -3.34260
H         -5.46270       -6.27440       -0.69670
H         -4.46470       -4.60750        0.77890
H         -1.00300       -0.52420       -3.85240
H         -0.75250       -0.40650       -6.27830
H          2.33100        0.65570       -7.99960
H          0.59480        0.36750       -8.18640
H          2.71610       -1.80230       -7.81110
H          1.91370       -1.39990       -9.33310
H          0.98640       -2.09010       -7.99660
H          3.42660        0.31170       -5.82620
H          3.18150        0.20550       -3.39130
H          1.62390        2.27050       -2.88320
H          2.61050        4.11980       -1.62920
H          3.05890        4.17650        2.01770
H          3.14010        5.13140        0.52910
H          5.41920        4.72840        1.45050
H          5.23080        3.93500       -0.12030
H          5.15060        2.98170        1.35890
H          2.56510        1.75630        1.91950
H          1.55990       -0.09780        0.66860
H         -1.42120        2.53760        0.50220
H         -1.24080        4.91540       -0.53740
H         -0.87280        6.04910       -2.86140
H         -0.41580        4.97050       -4.19020
H         -3.28570        5.58580       -3.33470
H         -2.81810        4.51410       -4.65720
H         -2.47270        6.24440       -4.75930
H         -7.33010        3.10930        0.64990
H         -9.71440        0.42200        2.29810
H        -13.78940        4.01940        3.95280
