98

C         -3.33240        0.85910        6.32660
C         -3.07620        2.19540        6.34220
C         -3.97370        3.12530        7.07960
O         -4.80060        2.82660        7.91110
C         -3.67920        4.46450        6.53030
C         -4.34290        5.65740        6.80810
C         -3.85070        6.74490        6.12680
C         -2.78690        6.65580        5.21820
C         -2.11900        5.48830        4.93620
C         -2.59250        4.37550        5.63430
C         -2.10020        3.00140        5.64180
C         -0.82000        2.61770        5.32700
C         -0.30100        1.34730        5.65390
N          0.16280        0.33650        5.94080
C          0.14060        3.46680        4.74450
N          0.95550        4.10780        4.25090
C         -2.82490        8.13010        4.90530
C         -1.73480        9.02490        5.54490
C         -1.30150        8.33060        6.81250
C         -2.30000        8.41550        7.68140
C         -3.42630        9.16860        7.01730
C         -2.62130       10.13430        6.13290
C         -4.00220        8.23200        5.92570
C         -2.90430       -0.11580        5.39550
C         -2.95670       -1.48220        5.59370
C         -2.53130       -2.24720        4.50960
S         -2.37470       -3.97940        4.32410
C         -1.81030       -3.73410        2.71080
C         -1.39320       -4.48530        1.60340
C         -1.36320       -5.88190        1.39500
C         -0.99210       -6.38030        0.10380
N         -1.05730       -7.70040        0.03310
S         -1.53870       -8.26760        1.47050
N         -1.68590       -6.85020        2.23790
C         -0.57190       -5.46430       -0.88580
C         -0.06850       -5.67650       -2.17520
C          0.30640       -4.42540       -2.67940
N          0.02790       -3.44870       -1.75980
C          0.63760       -2.14650       -1.90790
C          1.75760       -1.93290       -0.89330
C         -0.52600       -4.05780       -0.64660
C         -1.04150       -3.55880        0.57840
N         -1.27920       -2.27860        1.05430
C         -1.74550       -2.38660        2.33690
C         -2.16300       -1.52940        3.35920
Se        -2.33660        0.30460        3.63110
C         -1.44190       -1.03240        0.34240
C         -2.53750       -1.12980       -0.71590
C          0.85500       -4.49170       -3.96340
C          0.87550       -5.82580       -4.42040
S          0.23330       -6.98150       -3.26680
C          1.38620       -6.01450       -5.69110
C          1.80630       -4.85250       -6.34160
Se         1.54770       -3.32290       -5.24490
C          2.33000       -4.90190       -7.64150
C          2.78250       -3.89850       -8.46000
C          2.82540       -2.47310       -8.12580
O          2.47970       -1.94830       -7.07460
C          3.36760       -1.80110       -9.30650
C          3.63510       -2.75760      -10.27990
S          4.28230       -2.10470      -11.73900
C          4.19980       -0.51310      -11.04960
C          4.53240        0.77150      -11.51790
C          4.27410        1.71570      -10.57440
S          3.62480        1.08310       -9.10000
C          3.69040       -0.51140       -9.74400
C          3.29390       -4.07370       -9.81220
C          3.44240       -5.22440      -10.54620
C          3.11610       -6.52480      -10.11920
N          2.87140       -7.61030       -9.83380
C          3.96190       -5.17990      -11.85670
N          4.38230       -5.15160      -12.92420
H         -4.02680        0.51040        7.08580
H         -5.16340        5.68590        7.50790
H         -1.30570        5.42470        4.23170
H         -3.02480        8.39370        3.86860
H         -0.94070        9.32380        4.86620
H         -0.36540        7.81520        6.92230
H         -2.36470        7.98520        8.66360
H         -4.17170        9.60000        7.68010
H         -2.05550       10.86250        6.71180
H         -3.22690       10.64730        5.38700
H         -4.96950        8.56960        5.55840
H         -3.26230       -1.91200        6.53190
H         -0.11390       -1.35880       -1.85460
H          1.06010       -2.11340       -2.91940
H          2.18960       -0.94420       -1.02130
H          2.53980       -2.67320       -1.04400
H          1.39250       -2.02930        0.12680
H         -1.73020       -0.28240        1.08900
H         -0.49410       -0.70330       -0.08360
H         -2.32340       -1.91940       -1.43240
H         -3.49160       -1.35170       -0.24320
H         -2.62590       -0.18610       -1.24720
H          1.45740       -6.98210       -6.15880
H          2.36840       -5.90720       -8.04730
H          4.93620        0.97850      -12.49110
H          4.42820        2.77370      -10.65370
