116

C          7.09540        0.53780       -2.09770
C          6.67870        0.35180       -3.39270
C          5.29280        0.21510       -3.84610
O          4.27820        0.27780       -3.17020
C          5.35100       -0.02160       -5.29760
C          4.27470       -0.24050       -6.15460
C          4.63730       -0.45200       -7.46310
C          5.97240       -0.44730       -7.88730
C          7.04310       -0.23430       -7.05120
C          6.69710       -0.01470       -5.71440
C          7.54520        0.23120       -4.54790
C          8.91420        0.32850       -4.57430
C          9.74720        0.56490       -3.46160
N         10.49660        0.75390       -2.61060
C          9.70210        0.21070       -5.73820
N         10.41400        0.13040       -6.63580
C          5.60130       -0.72860       -9.32230
C          5.64570        0.46820      -10.29570
C          4.79500        0.01700      -11.46100
C          3.53030        0.01180      -11.05940
C          3.50480        0.45930       -9.61560
C          4.67590        1.45030       -9.62590
C          4.11220       -0.73430       -8.84870
C          6.36880        0.63920       -0.90640
C          6.97590        0.80450        0.34970
C          8.43900        0.97240        0.59980
C          8.86500        2.42540        0.37700
C          6.03730        0.85230        1.37210
Se         6.19830        1.04130        3.25580
C          4.34280        0.90810        3.24920
C          3.28080        0.93920        4.15970
C          3.28830        1.17430        5.55080
C          2.03860        1.25240        6.24110
N          2.18220        1.52250        7.52880
S          3.76670        1.66660        7.84330
N          4.32430        1.38660        6.34670
C          0.85330        0.97860        5.52670
C         -0.45930        0.83790        5.99060
Se        -1.41640        1.01130        7.57520
C         -2.89280        0.41560        6.55010
C         -4.23630        0.18790        6.86400
C         -4.78700        0.38820        8.23750
C         -4.56430       -0.86490        9.08750
C         -4.95870       -0.24640        5.76030
S         -3.93530       -0.40920        4.33460
C         -2.56270        0.14870        5.21500
C         -1.22330        0.40020        4.90170
N         -0.43090        0.29300        3.79130
C          0.85300        0.66620        4.13610
C          2.07710        0.76210        3.41800
N          2.41190        0.66340        2.07740
C          3.77830        0.75320        1.97780
C          4.70860        0.72690        0.93170
S          4.61290        0.55200       -0.78060
C          1.63270        0.98670        0.90080
C          1.47750        2.49940        0.75450
C         -0.96670       -0.31220        2.59500
C         -1.76650        0.68850        1.76070
C         -6.31490       -0.63660        5.72970
C         -7.12170       -0.82680        4.64850
C         -8.31800       -1.70160        4.75880
O         -8.82920       -2.08900        5.78800
C         -8.68400       -2.02750        3.36590
C         -7.87370       -1.30370        2.49090
C         -8.00600       -1.45090        1.10460
C         -8.94880       -2.32110        0.62310
C         -9.79230       -3.06160        1.48010
C        -10.76700       -3.94670        0.97600
C        -11.57290       -4.65400        1.82510
C        -11.44290       -4.51080        3.21600
C        -10.50950       -3.66220        3.74360
C         -9.66530       -2.91960        2.89290
C         -6.99840       -0.42980        3.26520
C         -6.40690        0.71970        2.80680
C         -6.33450        1.09630        1.45280
N         -6.20590        1.43680        0.36320
C         -5.86420        1.69500        3.66990
N         -5.46340        2.53340        4.34440
H          8.16420        0.60800       -1.95010
H          3.26200       -0.24190       -5.78290
H          8.06360       -0.24290       -7.39490
H          6.01610       -1.63980       -9.74910
H          6.64390        0.82880      -10.52840
H          5.19280       -0.29510      -12.40880
H          2.66080       -0.30580      -11.60450
H          2.55230        0.81240       -9.22950
H          4.98890        1.77760       -8.63620
H          4.47400        2.31930      -10.24990
H          3.53450       -1.65030       -8.95950
H          8.63510        0.69910        1.64160
H          9.02980        0.31750       -0.04240
H          8.31020        3.08570        1.04040
H          8.67940        2.72740       -0.65100
H          9.92640        2.53430        0.58040
H         -4.25910        1.22930        8.69640
H         -5.84880        0.62960        8.19370
H         -5.07640       -1.72050        8.65290
H         -4.94420       -0.70630       10.09310
H         -3.50120       -1.09140        9.14910
H          0.65760        0.51550        0.93210
H          2.17420        0.58810        0.03930
H          0.89300        2.72560       -0.13270
H          0.97720        2.92000        1.62530
H          2.45220        2.97160        0.65630
H         -0.15420       -0.77290        2.03150
H         -1.63810       -1.11810        2.91170
H         -2.11800        0.21520        0.84820
H         -2.63210        1.03130        2.32190
H         -1.17130        1.55950        1.50120
H         -6.75050       -0.91700        6.68330
H         -7.37090       -0.90010        0.42940
H         -9.06100       -2.45320       -0.44350
H        -10.86600       -4.05450       -0.09460
H        -12.31700       -5.32980        1.43000
H        -12.08910       -5.07920        3.86810
H        -10.39970       -3.54370        4.81000
