111

C         -3.43280        2.27870        6.72400
C         -4.03580        1.05380        6.83360
C         -3.95560       -0.03370        5.85190
O         -3.25040       -0.08400        4.85770
C         -4.91080       -1.06190        6.29450
C         -5.22680       -2.25090        5.64150
C         -6.18410       -3.00190        6.28010
C         -6.77920       -2.60270        7.48420
C         -6.46960       -1.43670        8.14360
C         -5.50190       -0.65420        7.50810
C         -4.93740        0.63870        7.89140
C         -5.19380        1.30100        9.06380
C         -6.06720        0.83630       10.06960
N         -6.76160        0.52210       10.92840
C         -4.61180        2.52310        9.46170
N         -4.18140        3.50680        9.87060
C         -7.66690       -3.82010        7.54210
C         -9.15460       -3.64410        7.14870
C         -9.21190       -2.47480        6.19730
C         -8.64930       -2.85250        5.05720
C         -8.20120       -4.28440        5.21720
C         -9.30000       -4.80820        6.15570
C         -7.00420       -4.26510        6.20030
C         -2.56860        2.78140        5.73910
C         -2.11930        4.10270        5.75890
C         -1.27400        4.39510        4.70570
S         -0.43730        5.84930        4.20290
C          0.22310        4.97080        2.86630
C          1.09490        5.18200        1.78700
C          1.91190        6.27270        1.40870
C          2.83610        6.11150        0.31730
N          3.58440        7.18640        0.12920
S          3.16290        8.30620        1.21860
N          2.00880        7.46360        1.97700
C          2.80400        4.91880       -0.44180
C          3.47270        4.50730       -1.60630
C          2.91760        3.27740       -1.99100
N          1.93930        2.90450       -1.10180
C          0.84540        2.05120       -1.52150
C          0.14210        2.61730       -2.75490
C          1.88690        3.88190       -0.12510
C          1.15390        3.95050        1.07890
N          0.39490        3.00330        1.73760
C         -0.18150        3.62840        2.81670
C         -1.04060        3.28920        3.86470
S         -1.91220        1.88950        4.37160
C          0.62690        1.57190        1.76750
C          1.46800        1.17390        2.97970
C          3.52450        2.76920       -3.14060
S          3.39070        1.35050       -4.11090
C          4.70730        1.90040       -5.14410
C          5.17170        3.14310       -4.75750
C          4.53270        3.62210       -3.61810
S          4.73320        5.06170       -2.65080
C          5.15410        1.16360       -6.26610
C          5.02370       -0.16230       -6.53450
C          5.15870       -0.65570       -7.93250
O          5.61150       -0.04490       -8.87400
C          4.57240       -2.01000       -7.92440
C          4.36420       -2.84610       -9.01910
C          3.78900       -4.05300       -8.70130
C          3.42770       -4.40190       -7.39250
C          3.62890       -3.59000       -6.30200
C          4.23040       -2.36580       -6.60210
C          4.66120       -1.29410       -5.70920
C          4.95360       -1.44090       -4.37810
C          5.67820       -0.48310       -3.63790
N          6.31340        0.24490       -3.01780
C          4.66260       -2.59480       -3.62510
N          4.42800       -3.49800       -2.95590
C          2.91110       -5.75530       -7.81070
C          3.80490       -6.98450       -7.51270
C          5.22590       -6.47910       -7.46730
C          5.57810       -6.15150       -8.70330
C          4.40190       -6.42940       -9.60670
C          3.79900       -7.65220       -8.89700
C          3.32280       -5.37090       -9.26690
H         -3.65820        3.00640        7.49430
H         -4.74390       -2.51970        4.71500
H         -6.93930       -1.14460        9.06770
H         -7.54090       -4.46210        8.41150
H         -9.84270       -3.61290        7.98910
H         -9.59240       -1.50560        6.46200
H         -8.46530       -2.26170        4.17900
H         -8.02220       -4.83680        4.29850
H         -9.07250       -5.78050        6.59040
H        -10.27990       -4.83730        5.68160
H         -6.44560       -5.19900        6.19260
H         -2.41340        4.80130        6.52100
H          0.11760        1.98680       -0.71460
H          1.23950        1.05400       -1.74310
H         -0.21370        3.62570       -2.55420
H         -0.70900        1.99020       -3.00510
H          0.81090        2.64640       -3.61040
H          1.16360        1.27590        0.86870
H         -0.34130        1.06330        1.80600
H          0.94570        1.39170        3.90660
H          2.41420        1.71090        2.97380
H          1.67160        0.10760        2.94210
H          5.97130        3.64960       -5.26580
H          5.60820        1.75360       -7.05690
H          4.65080       -2.54020      -10.01300
H          3.34400       -3.86290       -5.29890
H          1.85860       -5.94800       -7.61250
H          3.48140       -7.58300       -6.66550
H          5.79020       -6.36120       -6.56090
H          6.49670       -5.70510       -9.03640
H          4.62260       -6.52390      -10.66670
H          2.80170       -7.91120       -9.25010
H          4.44510       -8.52740       -8.94480
H          2.54110       -5.31870      -10.02240
