
  xtb     02022211053D
 energy: -158.677770407260 gnorm: 0.000648092735 xtb: 6.4.1 (unknown)
 85 97  0     0  0            999 V2000
   -2.4264    1.3298   -3.2528 C   0  0  0  0  0  0  0  0  0  0  0  0
   -2.1385    0.2564   -4.0585 C   0  0  0  0  0  0  0  0  0  0  0  0
   -1.2570   -0.8498   -3.7059 C   0  0  0  0  0  0  0  0  0  0  0  0
   -0.6764   -1.0205   -2.6384 O   0  0  0  0  0  0  0  0  0  0  0  0
   -1.1841   -1.7289   -4.8782 C   0  0  0  0  0  0  0  0  0  0  0  0
   -0.4393   -2.8996   -5.0090 C   0  0  0  0  0  0  0  0  0  0  0  0
   -0.5614   -3.5035   -6.2372 C   0  0  0  0  0  0  0  0  0  0  0  0
   -1.3611   -2.9793   -7.2615 C   0  0  0  0  0  0  0  0  0  0  0  0
   -2.1001   -1.8250   -7.1452 C   0  0  0  0  0  0  0  0  0  0  0  0
   -1.9961   -1.1958   -5.9014 C   0  0  0  0  0  0  0  0  0  0  0  0
   -2.6206    0.0329   -5.4096 C   0  0  0  0  0  0  0  0  0  0  0  0
   -3.5084    0.8056   -6.1112 C   0  0  0  0  0  0  0  0  0  0  0  0
   -4.1261    1.9842   -5.6414 C   0  0  0  0  0  0  0  0  0  0  0  0
   -4.6735    2.9478   -5.3390 N   0  0  0  0  0  0  0  0  0  0  0  0
   -3.9504    0.5257   -7.4221 C   0  0  0  0  0  0  0  0  0  0  0  0
   -4.3562    0.3635   -8.4835 N   0  0  0  0  0  0  0  0  0  0  0  0
   -1.0140   -4.0967   -8.2133 C   0  0  0  0  0  0  0  0  0  0  0  0
   -2.0838   -5.1916   -8.4100 C   0  0  0  0  0  0  0  0  0  0  0  0
   -1.3080   -6.3569   -8.9806 C   0  0  0  0  0  0  0  0  0  0  0  0
   -0.5539   -6.8544   -8.0088 C   0  0  0  0  0  0  0  0  0  0  0  0
   -0.8067   -6.0332   -6.7649 C   0  0  0  0  0  0  0  0  0  0  0  0
   -2.2872   -5.6888   -6.9729 C   0  0  0  0  0  0  0  0  0  0  0  0
   -0.1245   -4.6825   -7.0699 C   0  0  0  0  0  0  0  0  0  0  0  0
   -1.9952    1.6359   -1.9533 C   0  0  0  0  0  0  0  0  0  0  0  0
   -2.3870    2.8240   -1.3318 C   0  0  0  0  0  0  0  0  0  0  0  0
   -1.8836    3.0151   -0.0583 C   0  0  0  0  0  0  0  0  0  0  0  0
   -2.0660    4.3618    1.0530 S   0  0  0  0  0  0  0  0  0  0  0  0
   -1.0387    3.5366    2.1718 C   0  0  0  0  0  0  0  0  0  0  0  0
   -0.4414    3.7425    3.4217 C   0  0  0  0  0  0  0  0  0  0  0  0
   -0.4284    4.8795    4.2600 C   0  0  0  0  0  0  0  0  0  0  0  0
    0.3949    4.8652    5.4321 C   0  0  0  0  0  0  0  0  0  0  0  0
    0.3616    6.0138    6.0891 N   0  0  0  0  0  0  0  0  0  0  0  0
   -0.6269    7.0254    5.3018 S   0  0  0  0  0  0  0  0  0  0  0  0
   -1.0480    6.0372    4.0922 N   0  0  0  0  0  0  0  0  0  0  0  0
    1.0682    3.6718    5.7754 C   0  0  0  0  0  0  0  0  0  0  0  0
    1.8117    3.3382    6.9134 C   0  0  0  0  0  0  0  0  0  0  0  0
    2.1222    1.9750    6.8143 C   0  0  0  0  0  0  0  0  0  0  0  0
    1.6127    1.4662    5.6487 N   0  0  0  0  0  0  0  0  0  0  0  0
    1.5471    0.0332    5.4781 C   0  0  0  0  0  0  0  0  0  0  0  0
    2.8688   -0.5499    4.9790 C   0  0  0  0  0  0  0  0  0  0  0  0
    0.9789    2.4932    4.9743 C   0  0  0  0  0  0  0  0  0  0  0  0
    0.3166    2.5691    3.7213 C   0  0  0  0  0  0  0  0  0  0  0  0
    0.1984    1.6944    2.6540 N   0  0  0  0  0  0  0  0  0  0  0  0
   -0.6059    2.2866    1.7158 C   0  0  0  0  0  0  0  0  0  0  0  0
   -1.0668    1.9766    0.4333 C   0  0  0  0  0  0  0  0  0  0  0  0
   -0.8682    0.6091   -0.8213 Se  0  0  0  0  0  2  0  0  0  0  0  0
    1.0477    0.6124    2.2095 C   0  0  0  0  0  0  0  0  0  0  0  0
    2.2696    1.1453    1.4647 C   0  0  0  0  0  0  0  0  0  0  0  0
    2.8069    1.4972    7.9323 C   0  0  0  0  0  0  0  0  0  0  0  0
    3.0218    2.5281    8.8709 C   0  0  0  0  0  0  0  0  0  0  0  0
    2.3750    4.0757    8.3697 S   0  0  0  0  0  0  0  0  0  0  0  0
    3.6942    2.1631   10.0273 C   0  0  0  0  0  0  0  0  0  0  0  0
    4.0533    0.8216   10.0887 C   0  0  0  0  0  0  0  0  0  0  0  0
    3.5034   -0.1226    8.5282 Se  0  0  0  0  0  2  0  0  0  0  0  0
    4.7438    0.2407   11.1830 C   0  0  0  0  0  0  0  0  0  0  0  0
    5.1417   -1.0777   11.3134 C   0  0  0  0  0  0  0  0  0  0  0  0
    5.8274   -1.5392   12.4534 C   0  0  0  0  0  0  0  0  0  0  0  0
    6.3870   -1.9384   13.3713 N   0  0  0  0  0  0  0  0  0  0  0  0
    4.8780   -2.0144   10.3059 C   0  0  0  0  0  0  0  0  0  0  0  0
    4.6375   -2.7439    9.4486 N   0  0  0  0  0  0  0  0  0  0  0  0
    5.0602    1.1113   12.2600 C   0  0  0  0  0  0  0  0  0  0  0  0
    5.3126    1.8138   13.1283 N   0  0  0  0  0  0  0  0  0  0  0  0
   -3.0819    2.0870   -3.6683 H   0  0  0  0  0  0  0  0  0  0  0  0
    0.1694   -3.2630   -4.1960 H   0  0  0  0  0  0  0  0  0  0  0  0
   -2.7040   -1.4346   -7.9469 H   0  0  0  0  0  0  0  0  0  0  0  0
   -0.5362   -3.7958   -9.1435 H   0  0  0  0  0  0  0  0  0  0  0  0
   -2.9646   -4.8730   -8.9603 H   0  0  0  0  0  0  0  0  0  0  0  0
   -1.3452   -6.6548  -10.0118 H   0  0  0  0  0  0  0  0  0  0  0  0
    0.1647   -7.6507   -8.0658 H   0  0  0  0  0  0  0  0  0  0  0  0
   -0.5247   -6.4821   -5.8164 H   0  0  0  0  0  0  0  0  0  0  0  0
   -2.6674   -4.9309   -6.2904 H   0  0  0  0  0  0  0  0  0  0  0  0
   -2.9244   -6.5703   -6.9292 H   0  0  0  0  0  0  0  0  0  0  0  0
    0.9468   -4.7750   -7.2378 H   0  0  0  0  0  0  0  0  0  0  0  0
   -3.0283    3.5355   -1.8245 H   0  0  0  0  0  0  0  0  0  0  0  0
    0.7086   -0.2106    4.8238 H   0  0  0  0  0  0  0  0  0  0  0  0
    1.3269   -0.4034    6.4622 H   0  0  0  0  0  0  0  0  0  0  0  0
    3.6294   -0.4674    5.7555 H   0  0  0  0  0  0  0  0  0  0  0  0
    3.2322   -0.0257    4.0989 H   0  0  0  0  0  0  0  0  0  0  0  0
    2.7427   -1.6023    4.7412 H   0  0  0  0  0  0  0  0  0  0  0  0
    0.4470   -0.0049    1.5289 H   0  0  0  0  0  0  0  0  0  0  0  0
    1.3616   -0.0081    3.0395 H   0  0  0  0  0  0  0  0  0  0  0  0
    2.8605    1.7914    2.1114 H   0  0  0  0  0  0  0  0  0  0  0  0
    1.9609    1.7175    0.5922 H   0  0  0  0  0  0  0  0  0  0  0  0
    2.8872    0.3165    1.1308 H   0  0  0  0  0  0  0  0  0  0  0  0
    3.9219    2.8558   10.8200 H   0  0  0  0  0  0  0  0  0  0  0  0
  1  2  2  0  0  0  0
  2  3  1  0  0  0  0
  3  4  2  0  0  0  0
  3  5  1  0  0  0  0
  5  6  2  0  0  0  0
  6  7  1  0  0  0  0
  7  8  2  0  0  0  0
  8  9  1  0  0  0  0
  9 10  2  0  0  0  0
 10 11  1  0  0  0  0
 11 12  2  0  0  0  0
 12 13  1  0  0  0  0
 13 14  3  0  0  0  0
 12 15  1  0  0  0  0
 15 16  3  0  0  0  0
  8 17  1  0  0  0  0
 17 18  1  0  0  0  0
 18 19  1  0  0  0  0
 19 20  2  0  0  0  0
 20 21  1  0  0  0  0
 21 22  1  0  0  0  0
 21 23  1  0  0  0  0
  1 24  1  0  0  0  0
 24 25  2  0  0  0  0
 25 26  1  0  0  0  0
 26 27  1  0  0  0  0
 27 28  1  0  0  0  0
 28 29  1  0  0  0  0
 29 30  1  0  0  0  0
 30 31  1  0  0  0  0
 31 32  2  0  0  0  0
 32 33  1  0  0  0  0
 33 34  1  0  0  0  0
 31 35  1  0  0  0  0
 35 36  1  0  0  0  0
 36 37  2  0  0  0  0
 37 38  1  0  0  0  0
 38 39  1  0  0  0  0
 39 40  1  0  0  0  0
 38 41  1  0  0  0  0
 41 42  1  0  0  0  0
 42 43  1  0  0  0  0
 43 44  1  0  0  0  0
 44 45  1  0  0  0  0
 45 46  1  0  0  0  0
 43 47  1  0  0  0  0
 47 48  1  0  0  0  0
 37 49  1  0  0  0  0
 49 50  2  0  0  0  0
 50 51  1  0  0  0  0
 50 52  1  0  0  0  0
 52 53  2  0  0  0  0
 53 54  1  0  0  0  0
 53 55  1  0  0  0  0
 55 56  2  0  0  0  0
 56 57  1  0  0  0  0
 57 58  3  0  0  0  0
 56 59  1  0  0  0  0
 59 60  3  0  0  0  0
 55 61  1  0  0  0  0
 61 62  3  0  0  0  0
 11  2  1  0  0  0  0
 23 17  1  0  0  0  0
 46 24  1  0  0  0  0
 54 49  1  0  0  0  0
 10  5  1  0  0  0  0
 22 18  1  0  0  0  0
 45 26  2  0  0  0  0
 23  7  1  0  0  0  0
 44 28  2  0  0  0  0
 42 29  2  0  0  0  0
 34 30  2  0  0  0  0
 41 35  2  0  0  0  0
 51 36  1  0  0  0  0
  1 63  1  0  0  0  0
  6 64  1  0  0  0  0
  9 65  1  0  0  0  0
 17 66  1  0  0  0  0
 18 67  1  0  0  0  0
 19 68  1  0  0  0  0
 20 69  1  0  0  0  0
 21 70  1  0  0  0  0
 22 71  1  0  0  0  0
 22 72  1  0  0  0  0
 23 73  1  0  0  0  0
 25 74  1  0  0  0  0
 39 75  1  0  0  0  0
 39 76  1  0  0  0  0
 40 77  1  0  0  0  0
 40 78  1  0  0  0  0
 40 79  1  0  0  0  0
 47 80  1  0  0  0  0
 47 81  1  0  0  0  0
 48 82  1  0  0  0  0
 48 83  1  0  0  0  0
 48 84  1  0  0  0  0
 52 85  1  0  0  0  0
M  END
