
  xtb     02112207583D
 energy: -196.361175102143 gnorm: 0.000830391925 xtb: 6.4.1 (unknown)
111125  0     0  0            999 V2000
   -3.2247    4.4649   -4.3663 C   0  0  0  0  0  0  0  0  0  0  0  0
   -2.4026    4.4392   -5.4648 C   0  0  0  0  0  0  0  0  0  0  0  0
   -1.1879    3.6358   -5.6205 C   0  0  0  0  0  0  0  0  0  0  0  0
   -0.7138    2.8411   -4.8243 O   0  0  0  0  0  0  0  0  0  0  0  0
   -0.6347    3.9686   -6.9426 C   0  0  0  0  0  0  0  0  0  0  0  0
    0.5228    3.4517   -7.5206 C   0  0  0  0  0  0  0  0  0  0  0  0
    0.7956    3.9554   -8.7695 C   0  0  0  0  0  0  0  0  0  0  0  0
   -0.0241    4.9019   -9.3982 C   0  0  0  0  0  0  0  0  0  0  0  0
   -1.1719    5.4146   -8.8412 C   0  0  0  0  0  0  0  0  0  0  0  0
   -1.4681    4.9174   -7.5683 C   0  0  0  0  0  0  0  0  0  0  0  0
   -2.5852    5.2193   -6.6734 C   0  0  0  0  0  0  0  0  0  0  0  0
   -3.6142    6.0816   -6.9569 C   0  0  0  0  0  0  0  0  0  0  0  0
   -3.7387    6.8113   -8.1578 C   0  0  0  0  0  0  0  0  0  0  0  0
   -3.9073    7.4432   -9.1018 N   0  0  0  0  0  0  0  0  0  0  0  0
   -4.7062    6.3715   -6.1130 C   0  0  0  0  0  0  0  0  0  0  0  0
   -5.6294    6.6617   -5.4927 N   0  0  0  0  0  0  0  0  0  0  0  0
    0.8555    4.9689  -10.6218 C   0  0  0  0  0  0  0  0  0  0  0  0
    1.7824    6.1977  -10.7377 C   0  0  0  0  0  0  0  0  0  0  0  0
    2.8322    5.7653  -11.7358 C   0  0  0  0  0  0  0  0  0  0  0  0
    3.6079    4.8672  -11.1422 C   0  0  0  0  0  0  0  0  0  0  0  0
    3.0954    4.6775   -9.7327 C   0  0  0  0  0  0  0  0  0  0  0  0
    2.5955    6.0981   -9.4404 C   0  0  0  0  0  0  0  0  0  0  0  0
    1.7685    3.9119   -9.9214 C   0  0  0  0  0  0  0  0  0  0  0  0
   -3.1538    3.7740   -3.1512 C   0  0  0  0  0  0  0  0  0  0  0  0
   -4.0910    3.9454   -2.1185 C   0  0  0  0  0  0  0  0  0  0  0  0
   -5.2419    4.8976   -2.1315 C   0  0  0  0  0  0  0  0  0  0  0  0
   -4.7885    6.3025   -1.7243 C   0  0  0  0  0  0  0  0  0  0  0  0
   -3.7877    3.1487   -1.0217 C   0  0  0  0  0  0  0  0  0  0  0  0
   -4.5705    2.9321    0.5343 S   0  0  0  0  0  0  0  0  0  0  0  0
   -3.3496    1.7814    0.9512 C   0  0  0  0  0  0  0  0  0  0  0  0
   -3.0124    0.9292    2.0108 C   0  0  0  0  0  0  0  0  0  0  0  0
   -3.7027    0.6577    3.2164 C   0  0  0  0  0  0  0  0  0  0  0  0
   -3.1856   -0.3647    4.0845 C   0  0  0  0  0  0  0  0  0  0  0  0
   -3.9080   -0.5989    5.1625 N   0  0  0  0  0  0  0  0  0  0  0  0
   -5.3042    0.4784    5.1500 Se  0  0  0  0  0  2  0  0  0  0  0  0
   -4.8228    1.2210    3.6250 N   0  0  0  0  0  0  0  0  0  0  0  0
   -1.9546   -0.9754    3.7448 C   0  0  0  0  0  0  0  0  0  0  0  0
   -1.1772   -1.8938    4.4636 C   0  0  0  0  0  0  0  0  0  0  0  0
   -1.2496   -2.8007    5.9320 S   0  0  0  0  0  0  0  0  0  0  0  0
    0.3548   -3.4182    5.5981 C   0  0  0  0  0  0  0  0  0  0  0  0
    1.1858   -4.2850    6.3196 C   0  0  0  0  0  0  0  0  0  0  0  0
    0.6929   -4.9822    7.5424 C   0  0  0  0  0  0  0  0  0  0  0  0
    0.8075   -6.5028    7.4529 C   0  0  0  0  0  0  0  0  0  0  0  0
    2.4038   -4.4628    5.6678 C   0  0  0  0  0  0  0  0  0  0  0  0
    2.4519   -3.6072    4.1149 S   0  0  0  0  0  0  0  0  0  0  0  0
    0.8905   -2.9413    4.3946 C   0  0  0  0  0  0  0  0  0  0  0  0
    0.0102   -2.0718    3.7448 C   0  0  0  0  0  0  0  0  0  0  0  0
   -0.0206   -1.3266    2.5973 N   0  0  0  0  0  0  0  0  0  0  0  0
   -1.2237   -0.6428    2.5676 C   0  0  0  0  0  0  0  0  0  0  0  0
   -1.8156    0.2508    1.6338 C   0  0  0  0  0  0  0  0  0  0  0  0
   -1.4659    0.6654    0.3619 N   0  0  0  0  0  0  0  0  0  0  0  0
   -2.3927    1.5838   -0.0509 C   0  0  0  0  0  0  0  0  0  0  0  0
   -2.6384    2.3586   -1.1886 C   0  0  0  0  0  0  0  0  0  0  0  0
   -1.9046    2.6017   -2.7288 S   0  0  0  0  0  0  0  0  0  0  0  0
   -0.5789    0.0701   -0.6130 C   0  0  0  0  0  0  0  0  0  0  0  0
   -0.9819   -1.3684   -0.9282 C   0  0  0  0  0  0  0  0  0  0  0  0
    1.2046   -1.1074    1.8615 C   0  0  0  0  0  0  0  0  0  0  0  0
    1.7374    0.3077    2.0726 C   0  0  0  0  0  0  0  0  0  0  0  0
    3.5591   -5.2252    5.9354 C   0  0  0  0  0  0  0  0  0  0  0  0
    4.1397   -5.5403    7.1346 C   0  0  0  0  0  0  0  0  0  0  0  0
    3.9253   -4.8447    8.4134 C   0  0  0  0  0  0  0  0  0  0  0  0
    3.1387   -3.9426    8.6814 O   0  0  0  0  0  0  0  0  0  0  0  0
    4.9398   -5.3637    9.3238 C   0  0  0  0  0  0  0  0  0  0  0  0
    5.1478   -4.9754   10.6428 C   0  0  0  0  0  0  0  0  0  0  0  0
    4.3868   -4.0446   11.2298 O   0  0  0  0  0  0  0  0  0  0  0  0
    6.1897   -5.6058   11.3359 C   0  0  0  0  0  0  0  0  0  0  0  0
    6.9690   -6.5558   10.7051 C   0  0  0  0  0  0  0  0  0  0  0  0
    6.7660   -6.9313    9.3771 C   0  0  0  0  0  0  0  0  0  0  0  0
    5.7367   -6.3259    8.6809 C   0  0  0  0  0  0  0  0  0  0  0  0
    5.2446   -6.4685    7.3117 C   0  0  0  0  0  0  0  0  0  0  0  0
    5.7006   -7.3764    6.3928 C   0  0  0  0  0  0  0  0  0  0  0  0
    6.7754   -8.2595    6.6283 C   0  0  0  0  0  0  0  0  0  0  0  0
    7.6474   -8.9948    6.7555 N   0  0  0  0  0  0  0  0  0  0  0  0
    5.1543   -7.5774    5.1077 C   0  0  0  0  0  0  0  0  0  0  0  0
    4.7431   -7.8158    4.0620 N   0  0  0  0  0  0  0  0  0  0  0  0
   -4.0744    5.1307   -4.4268 H   0  0  0  0  0  0  0  0  0  0  0  0
    1.1229    2.7213   -7.0009 H   0  0  0  0  0  0  0  0  0  0  0  0
   -1.7924    6.1379   -9.3426 H   0  0  0  0  0  0  0  0  0  0  0  0
    0.3794    4.7047  -11.5641 H   0  0  0  0  0  0  0  0  0  0  0  0
    1.2718    7.1353  -10.9389 H   0  0  0  0  0  0  0  0  0  0  0  0
    2.8674    6.1047  -12.7543 H   0  0  0  0  0  0  0  0  0  0  0  0
    4.4203    4.3063  -11.5657 H   0  0  0  0  0  0  0  0  0  0  0  0
    3.7819    4.2305   -9.0184 H   0  0  0  0  0  0  0  0  0  0  0  0
    1.9980    6.1810   -8.5343 H   0  0  0  0  0  0  0  0  0  0  0  0
    3.4082    6.8218   -9.4079 H   0  0  0  0  0  0  0  0  0  0  0  0
    1.9002    2.9413  -10.3960 H   0  0  0  0  0  0  0  0  0  0  0  0
   -5.7081    4.9390   -3.1169 H   0  0  0  0  0  0  0  0  0  0  0  0
   -5.9858    4.5424   -1.4156 H   0  0  0  0  0  0  0  0  0  0  0  0
   -5.6387    6.9785   -1.7268 H   0  0  0  0  0  0  0  0  0  0  0  0
   -4.3568    6.2860   -0.7262 H   0  0  0  0  0  0  0  0  0  0  0  0
   -4.0435    6.6834   -2.4191 H   0  0  0  0  0  0  0  0  0  0  0  0
    1.2536   -4.6191    8.4071 H   0  0  0  0  0  0  0  0  0  0  0  0
   -0.3540   -4.7045    7.6837 H   0  0  0  0  0  0  0  0  0  0  0  0
    1.8445   -6.8185    7.3739 H   0  0  0  0  0  0  0  0  0  0  0  0
    0.2695   -6.8733    6.5829 H   0  0  0  0  0  0  0  0  0  0  0  0
    0.3779   -6.9555    8.3429 H   0  0  0  0  0  0  0  0  0  0  0  0
   -0.6650    0.6732   -1.5199 H   0  0  0  0  0  0  0  0  0  0  0  0
    0.4575    0.1366   -0.2823 H   0  0  0  0  0  0  0  0  0  0  0  0
   -0.9847   -1.9858   -0.0324 H   0  0  0  0  0  0  0  0  0  0  0  0
   -1.9818   -1.3871   -1.3553 H   0  0  0  0  0  0  0  0  0  0  0  0
   -0.2914   -1.7958   -1.6499 H   0  0  0  0  0  0  0  0  0  0  0  0
    1.9309   -1.8268    2.2479 H   0  0  0  0  0  0  0  0  0  0  0  0
    1.0631   -1.3324    0.8047 H   0  0  0  0  0  0  0  0  0  0  0  0
    1.9656    0.4650    3.1243 H   0  0  0  0  0  0  0  0  0  0  0  0
    2.6475    0.4507    1.4964 H   0  0  0  0  0  0  0  0  0  0  0  0
    1.0068    1.0542    1.7696 H   0  0  0  0  0  0  0  0  0  0  0  0
    4.0844   -5.5458    5.0419 H   0  0  0  0  0  0  0  0  0  0  0  0
    3.7401   -3.7124   10.5759 H   0  0  0  0  0  0  0  0  0  0  0  0
    6.3694   -5.3313   12.3630 H   0  0  0  0  0  0  0  0  0  0  0  0
    7.7695   -7.0237   11.2580 H   0  0  0  0  0  0  0  0  0  0  0  0
    7.4063   -7.6687    8.9231 H   0  0  0  0  0  0  0  0  0  0  0  0
  1  2  2  0  0  0  0
  2  3  1  0  0  0  0
  3  4  2  0  0  0  0
  3  5  1  0  0  0  0
  5  6  2  0  0  0  0
  6  7  1  0  0  0  0
  7  8  2  0  0  0  0
  8  9  1  0  0  0  0
  9 10  2  0  0  0  0
 10 11  1  0  0  0  0
 11 12  2  0  0  0  0
 12 13  1  0  0  0  0
 13 14  3  0  0  0  0
 12 15  1  0  0  0  0
 15 16  3  0  0  0  0
  8 17  1  0  0  0  0
 17 18  1  0  0  0  0
 18 19  1  0  0  0  0
 19 20  2  0  0  0  0
 20 21  1  0  0  0  0
 21 22  1  0  0  0  0
 21 23  1  0  0  0  0
  1 24  1  0  0  0  0
 24 25  2  0  0  0  0
 25 26  1  0  0  0  0
 26 27  1  0  0  0  0
 25 28  1  0  0  0  0
 28 29  1  0  0  0  0
 29 30  1  0  0  0  0
 30 31  1  0  0  0  0
 31 32  1  0  0  0  0
 32 33  1  0  0  0  0
 33 34  2  0  0  0  0
 34 35  1  0  0  0  0
 35 36  1  0  0  0  0
 33 37  1  0  0  0  0
 37 38  1  0  0  0  0
 38 39  1  0  0  0  0
 39 40  1  0  0  0  0
 40 41  1  0  0  0  0
 41 42  1  0  0  0  0
 42 43  1  0  0  0  0
 41 44  2  0  0  0  0
 44 45  1  0  0  0  0
 45 46  1  0  0  0  0
 46 47  1  0  0  0  0
 47 48  1  0  0  0  0
 48 49  1  0  0  0  0
 49 50  1  0  0  0  0
 50 51  1  0  0  0  0
 51 52  1  0  0  0  0
 52 53  1  0  0  0  0
 53 54  1  0  0  0  0
 51 55  1  0  0  0  0
 55 56  1  0  0  0  0
 48 57  1  0  0  0  0
 57 58  1  0  0  0  0
 44 59  1  0  0  0  0
 59 60  2  0  0  0  0
 60 61  1  0  0  0  0
 61 62  2  0  0  0  0
 61 63  1  0  0  0  0
 63 64  2  0  0  0  0
 64 65  1  0  0  0  0
 64 66  1  0  0  0  0
 66 67  2  0  0  0  0
 67 68  1  0  0  0  0
 68 69  2  0  0  0  0
 69 70  1  0  0  0  0
 70 71  2  0  0  0  0
 71 72  1  0  0  0  0
 72 73  3  0  0  0  0
 71 74  1  0  0  0  0
 74 75  3  0  0  0  0
 11  2  1  0  0  0  0
 23 17  1  0  0  0  0
 54 24  1  0  0  0  0
 70 60  1  0  0  0  0
 10  5  1  0  0  0  0
 22 18  1  0  0  0  0
 53 28  2  0  0  0  0
 69 63  1  0  0  0  0
 23  7  1  0  0  0  0
 52 30  2  0  0  0  0
 50 31  2  0  0  0  0
 36 32  2  0  0  0  0
 49 37  2  0  0  0  0
 47 38  2  0  0  0  0
 46 40  2  0  0  0  0
  1 76  1  0  0  0  0
  6 77  1  0  0  0  0
  9 78  1  0  0  0  0
 17 79  1  0  0  0  0
 18 80  1  0  0  0  0
 19 81  1  0  0  0  0
 20 82  1  0  0  0  0
 21 83  1  0  0  0  0
 22 84  1  0  0  0  0
 22 85  1  0  0  0  0
 23 86  1  0  0  0  0
 26 87  1  0  0  0  0
 26 88  1  0  0  0  0
 27 89  1  0  0  0  0
 27 90  1  0  0  0  0
 27 91  1  0  0  0  0
 42 92  1  0  0  0  0
 42 93  1  0  0  0  0
 43 94  1  0  0  0  0
 43 95  1  0  0  0  0
 43 96  1  0  0  0  0
 55 97  1  0  0  0  0
 55 98  1  0  0  0  0
 56 99  1  0  0  0  0
 56100  1  0  0  0  0
 56101  1  0  0  0  0
 57102  1  0  0  0  0
 57103  1  0  0  0  0
 58104  1  0  0  0  0
 58105  1  0  0  0  0
 58106  1  0  0  0  0
 59107  1  0  0  0  0
 65108  1  0  0  0  0
 66109  1  0  0  0  0
 67110  1  0  0  0  0
 68111  1  0  0  0  0
M  END
