97

C          1.93140       -1.61340       -6.24390
C          1.07800       -1.56780       -7.30180
C          1.46110       -0.81570       -8.52750
O          2.57760       -0.49010       -8.86190
C          0.18060       -0.48830       -9.18650
C         -0.01880        0.37100      -10.26570
C         -1.33720        0.52650      -10.62150
C         -2.38740       -0.12240       -9.95720
C         -2.20750       -0.97940       -8.89750
C         -0.87350       -1.14940       -8.52030
C         -0.30370       -1.96600       -7.45350
C         -0.87310       -3.08200       -6.89980
C         -2.18710       -3.51090       -7.16840
N         -3.25460       -3.89120       -7.35220
C         -0.14460       -3.97200       -6.08250
N          0.44410       -4.73420       -5.45820
C         -3.43930        0.51050      -10.83320
C         -4.04700       -0.38030      -11.93720
C         -4.65800        0.60940      -12.90290
C         -3.66500        1.22350      -13.53330
C         -2.36600        0.65900      -13.00470
C         -2.79840       -0.78700      -12.73040
C         -2.26900        1.23240      -11.57530
C          1.64630       -1.77390       -4.86950
S          0.00750       -1.64350       -4.22460
C          0.62000       -1.69210       -2.62060
C          0.20590       -1.59360       -1.29590
S         -1.24110       -1.38370       -0.35900
C         -0.26900       -1.31920        1.09030
C          1.10430       -1.47560        0.85480
C          1.37770       -1.64900       -0.50570
N          2.47340       -1.81460       -1.30100
C          2.03140       -1.81770       -2.59870
C          2.60060       -1.85370       -3.86750
C          3.84420       -1.84270       -0.85680
C          4.43460       -0.43760       -0.77160
S          2.08290       -1.31100        2.28930
C          0.64450       -1.00220        3.21470
C          0.25970       -0.66570        4.51030
C         -1.15850       -0.54890        4.48150
N         -1.62650       -0.82060        3.21970
C         -2.99050       -0.72290        2.76470
C         -3.32190        0.68640        2.28080
C         -0.53560       -1.06500        2.43790
C         -1.69200       -0.17450        5.69840
C         -0.70250        0.02810        6.66810
S          0.92240       -0.28700        6.05190
C         -1.03220        0.47030        7.95500
C         -0.23170        0.82990        9.01180
C          1.23480        0.82760        9.01160
O          1.97730        0.42340        8.13370
C          1.64590        1.42150       10.29480
C          2.90450        1.68370       10.75130
C          3.06420        2.28890       12.01800
C          4.33970        2.59240       12.53540
C          4.48030        3.18560       13.75940
C          3.33090        3.48960       14.50090
F          3.48890        4.07440       15.70290
C          2.07090        3.21520       14.04640
C          1.90750        2.60570       12.78740
C          0.61540        2.31560       12.28840
C          0.48450        1.73190       11.05700
C         -0.69430        1.34120       10.28550
C         -1.99120        1.44430       10.72340
C         -3.13960        1.06210       10.00110
N         -4.12490        0.77750        9.48200
C         -2.36010        1.94830       11.98780
N         -2.73150        2.34810       12.99830
H          2.96220       -1.35880       -6.47200
H          0.81350        0.85950      -10.74770
H         -3.01860       -1.46480       -8.37920
H         -4.18230        1.11670      -10.31820
H         -4.69260       -1.17580      -11.57570
H         -5.71290        0.79460      -12.98480
H         -3.72480        2.02430      -14.24690
H         -1.48140        0.81080      -13.61740
H         -2.07690       -1.36500      -12.15590
H         -3.04830       -1.32220      -13.64480
H         -2.23180        2.32020      -11.55470
H          3.65150       -1.93200       -4.07880
H          3.87190       -2.31820        0.12720
H          4.41560       -2.45380       -1.55990
H          3.87740        0.16160       -0.05560
H          4.39490        0.05090       -1.74250
H          5.46970       -0.49110       -0.44770
H         -3.64460       -1.00290        3.59400
H         -3.12870       -1.43850        1.94950
H         -4.35780        0.73180        1.95800
H         -3.17140        1.40740        3.08090
H         -2.68460        0.95590        1.44200
H         -2.73600       -0.02630        5.90880
H         -2.10070        0.57020        8.10370
H          3.76770        1.43750       10.15100
H          5.21010        2.34880       11.94500
H          5.44850        3.42590       14.16920
H          1.20820        3.46340       14.64480
H         -0.23780        2.57110       12.89570
