142

C         -2.23660        6.50220       -1.42380
C         -1.65460        6.93300       -2.57820
C         -0.58910        6.18470       -3.29160
O          0.12460        5.30570       -2.85810
C         -0.65930        6.65260       -4.68930
C          0.04880        6.13800       -5.77350
C         -0.25890        6.73040       -6.97450
C         -1.20200        7.76060       -7.09340
C         -1.90730        8.27880       -6.03330
C         -1.61050        7.68730       -4.80140
C         -2.18280        7.93400       -3.48330
C         -3.01080        8.96490       -3.12740
C         -3.48290        9.95020       -4.01790
N         -3.89870       10.77460       -4.70010
C         -3.44820        9.18780       -1.80430
N         -3.81380        9.42820       -0.74300
C         -1.01900        7.86330       -8.58730
C         -0.17060        9.04460       -9.10320
C          0.22550        8.62090      -10.49930
C          1.11790        7.64530      -10.38720
C          1.34010        7.39300       -8.91340
C          1.15810        8.81640       -8.37100
C          0.03220        6.71480       -8.45420
C         -1.68490        5.51830       -0.56330
C         -0.39040        5.34480       -0.10710
C          0.71430        6.33330       -0.27330
C          1.25040        6.80750        1.07710
C         -0.27030        4.15450        0.62930
S          1.10270        3.34240        1.34780
C          0.08900        1.98940        1.70060
C          0.20840        0.67010        2.16160
C          1.36880       -0.02630        2.57780
N          2.51620        0.60200        2.81780
C          3.57790       -0.11690        3.14450
C          4.71580        0.64630        3.59470
S          4.86670        2.28400        3.03710
C          6.26290        2.55210        4.01970
C          7.00800        3.84210        4.01130
C          7.64510        4.11050        2.64730
C          6.54460        1.42370        4.73670
C          5.67950        0.33880        4.51670
F          7.57560        1.35280        5.60020
C          3.52880       -1.54260        3.08490
C          4.68100       -2.41530        3.10880
C          4.66580       -3.73720        3.46370
C          5.92240       -4.34060        3.28520
F          6.15250       -5.63010        3.59280
C          6.89580       -3.52500        2.78330
C          8.30870       -3.86400        2.45650
C          8.56020       -3.82000        0.94860
S          6.24780       -1.94240        2.52070
N          2.36640       -2.16070        2.94740
C          1.27200       -1.42800        2.75480
C         -0.00870       -2.02310        2.65630
C         -0.36750       -3.37350        2.77720
S          0.38970       -4.90960        2.98770
C         -1.17420       -5.68000        2.83500
C         -1.56680       -7.02360        2.75480
C         -0.65590       -8.17570        3.01270
C          0.08920       -8.03090        4.33890
C         -2.93180       -7.12960        2.51860
S         -3.73710       -5.55760        2.49950
C         -2.22040       -4.75990        2.67130
C         -1.75510       -3.44270        2.62980
N         -2.26800       -2.19050        2.40940
C         -3.68340       -1.96220        2.59970
C         -3.95410       -1.19170        3.89000
C         -1.20710       -1.29820        2.39230
C         -1.08230        0.07380        2.05790
N         -1.95900        1.02710        1.56970
C         -1.24430        2.16860        1.32380
C         -1.45510        3.41410        0.72260
S         -2.77480        4.24510       -0.01170
C         -3.29630        0.90230        1.04010
C         -3.30720        0.10910       -0.26500
C         -3.74770       -8.25870        2.29350
C         -3.39900       -9.36410        1.56590
C         -2.30850       -9.38830        0.56300
O         -1.46180       -8.54450        0.35770
C         -2.53990      -10.61270       -0.23150
C         -1.83060      -11.06800       -1.32530
C         -2.22340      -12.24490       -1.95300
C         -1.50330      -12.79720       -3.13910
C         -3.33580      -12.91180       -1.43540
F         -3.72730      -14.04810       -2.04190
C         -4.06600      -12.47600       -0.34160
C         -3.65700      -11.30160        0.26980
C         -4.18990      -10.56680        1.41210
C         -5.20210      -10.97930        2.23820
C         -5.93240      -12.17140        2.05530
N         -6.56270      -13.12480        1.94870
C         -5.61730      -10.28250        3.39240
N         -5.98510       -9.77610        4.35510
H         -3.24250        6.83210       -1.18860
H          0.75920        5.33710       -5.64080
H         -2.64390        9.05830       -6.13770
H         -1.91070        7.68660       -9.18580
H         -0.63870       10.01970       -9.00130
H         -0.21140        9.02240      -11.39470
H          1.57510        7.06900      -11.17010
H          2.24850        6.86350       -8.63900
H          1.93930        9.49130       -8.71630
H          1.08220        8.87150       -7.28660
H         -0.15970        5.77190       -8.96320
H          0.35380        7.18960       -0.84450
H          1.51670        5.85920       -0.84350
H          0.45450        7.26500        1.66100
H          1.66700        5.97870        1.64300
H          2.03240        7.54630        0.92210
H          7.78110        3.79890        4.78140
H          6.32450        4.65940        4.25500
H          8.34370        3.31700        2.39280
H          8.18300        5.05470        2.66470
H          6.87800        4.15760        1.87810
H          5.76150       -0.59750        5.03640
H          3.79500       -4.24170        3.83710
H          8.97770       -3.15660        2.95330
H          8.51870       -4.86490        2.83930
H          8.35560       -2.82410        0.56190
H          9.59550       -4.07210        0.73480
H          7.91610       -4.53060        0.43600
H         -1.23570       -9.09980        3.02170
H          0.06160       -8.23910        2.19030
H          0.69770       -8.91440        4.51340
H         -0.61610       -7.92970        5.16120
H          0.74150       -7.16240        4.32970
H         -4.11550       -1.46160        1.73330
H         -4.15020       -2.94810        2.66490
H         -5.02050       -1.01460        4.00000
H         -3.43440       -0.23600        3.89450
H         -3.60910       -1.76730        4.74580
H         -3.65150        1.91760        0.84620
H         -3.95970        0.46640        1.78580
H         -2.87260       -0.87860       -0.12770
H         -4.32580        0.00140       -0.62780
H         -2.72550        0.63320       -1.01970
H         -4.76540       -8.18170        2.65920
H         -0.97940      -10.50900       -1.68330
H         -0.68310      -12.14770       -3.43030
H         -2.18960      -12.90560       -3.97830
H         -1.11090      -13.78820       -2.91270
H         -4.91780      -13.04710       -0.01090
