130

C         -1.80560        3.42620        5.28090
C         -1.20780        4.05300        6.33550
C          0.23730        3.99640        6.65060
O          1.09750        3.37950        6.05770
C          0.44930        4.97540        7.73250
C          1.65690        5.27620        8.35830
C          1.56230        6.25960        9.31340
C          0.35650        6.90640        9.61720
C         -0.84010        6.62560        9.00260
C         -0.76720        5.62100        8.03170
C         -1.81560        5.05470        7.18880
C         -3.15250        5.35450        7.25650
C         -3.71170        6.33160        8.10510
N         -4.23400        7.11740        8.75960
C         -4.16210        4.70270        6.51800
N         -5.04330        4.20440        5.97490
C          0.99650        7.77960       10.66740
C          0.75410        7.37800       12.13780
C          1.85580        8.08690       12.89200
C          2.99860        7.47680       12.60470
C          2.68840        6.34450       11.65240
C          1.29830        5.94370       12.16270
C          2.34070        7.05860       10.32900
C         -1.30320        2.33420        4.53780
C         -0.50150        1.25600        4.89910
C         -0.00300        0.92750        6.23890
C          1.37580        0.75120        6.36630
C          1.94160        0.44880        7.58740
C          1.12750        0.29060        8.69550
C         -0.24210        0.41840        8.56380
C         -0.83440        0.74170        7.34780
C         -2.33800        0.79690        7.26520
C         -2.95560        1.73100        8.30660
C         -0.23860        0.43070        3.79380
S          0.71300       -1.02650        3.61790
C          0.29990       -1.05940        1.93750
C          0.59100       -1.79930        0.78390
C          1.46550       -2.89310        0.60600
C          1.68270       -3.39220       -0.71690
N          2.55570       -4.38710       -0.74760
S          3.05760       -4.67210        0.76470
N          2.18250       -3.53590        1.51460
C          0.95980       -2.82020       -1.78600
C          0.94950       -3.15420       -3.14550
S          1.73040       -4.24970       -4.23170
C          0.77220       -3.58900       -5.53840
C          0.72210       -3.88960       -6.90380
C          1.55890       -4.94110       -7.48810
C          1.05430       -6.03870       -8.19440
C         -0.42370       -6.31690       -8.29660
C         -0.85490       -6.87470       -9.65300
C          1.96370       -6.93760       -8.73880
C          3.32950       -6.77040       -8.59620
C          3.81940       -5.70760       -7.85960
C          2.93640       -4.80430       -7.30380
C         -0.20550       -3.07600       -7.56440
S         -1.05920       -2.00680       -6.44370
C         -0.11800       -2.58510       -5.12360
C         -0.00350       -2.33080       -3.75570
N         -0.57460       -1.50720       -2.82420
C          0.01790       -1.76160       -1.60020
C         -0.11590       -1.19440       -0.30070
N         -0.79010       -0.09480        0.20100
C         -0.54470       -0.01800        1.54300
C         -0.85550        0.83780        2.60450
S         -1.79990        2.25820        2.84530
C         -1.57700        0.94980       -0.41060
C         -3.07500        0.71640       -0.21260
C         -1.69070       -0.68390       -3.22810
C         -1.23050        0.58570       -3.94560
C         -0.61610       -3.01200       -8.90500
C          0.08960       -3.38680      -10.02240
C          1.55420       -3.47310      -10.10090
O          2.36010       -3.18360       -9.24330
C          1.85710       -3.78520      -11.51760
C          3.09170       -3.97810      -12.10850
Cl         4.51110       -4.09520      -11.16940
C          3.14830       -4.08870      -13.50480
Cl         4.64560       -4.37340      -14.27880
C          1.99150       -3.92000      -14.26360
Cl         2.10120       -3.94200      -15.97090
C          0.74060       -3.72180      -13.65590
Cl        -0.60060       -3.34990      -14.65850
C          0.66520       -3.73480      -12.26890
C         -0.45740       -3.63980      -11.33640
C         -1.76230       -3.99560      -11.57140
C         -2.27880       -4.61240      -12.72990
N         -2.78880       -5.20420      -13.57090
C         -2.76360       -3.97380      -10.57530
N         -3.62840       -3.99380       -9.81990
H         -2.74960        3.82000        4.92080
H          2.56320        4.75780        8.08710
H         -1.75660        7.14050        9.23770
H          0.92390        8.85270       10.50170
H         -0.26130        7.53540       12.49080
H          1.70320        8.96450       13.49220
H          3.99130        7.74320       12.91700
H          3.43580        5.56050       11.56420
H          1.33240        5.53420       13.17090
H          0.76690        5.25540       11.50790
H          3.16480        7.65110        9.93570
H          2.00240        0.88800        5.49920
H          3.01130        0.33240        7.67220
H          1.55570        0.05200        9.65800
H         -0.87260        0.25300        9.42470
H         -2.65260        1.11310        6.27120
H         -2.72830       -0.21330        7.42370
H         -2.44280        2.68990        8.30920
H         -2.88670        1.31030        9.30610
H         -4.00560        1.90080        8.08040
H         -0.99220       -5.41110       -8.08890
H         -0.68500       -7.04220       -7.51860
H         -0.58350       -7.92160       -9.75820
H         -1.93480       -6.79840       -9.75790
H         -0.38790       -6.31930      -10.46400
H          1.59590       -7.79420       -9.28190
H          4.00710       -7.47910       -9.04890
H          4.88180       -5.57730       -7.72220
H          3.30850       -3.95590       -6.75150
H         -1.30370        1.88830        0.08320
H         -1.31460        1.04480       -1.45930
H         -3.37560       -0.26920       -0.56270
H         -3.32640        0.78760        0.84230
H         -3.64110        1.47090       -0.75140
H         -2.31370       -0.46270       -2.36650
H         -2.29270       -1.27680       -3.92530
H         -0.77450        0.33160       -4.89850
H         -2.08310        1.23160       -4.13530
H         -0.49460        1.13260       -3.35950
H         -1.60160       -2.58540       -9.05420
