
  xtb     02022213013D
 energy: -171.422072160474 gnorm: 0.000336944043 xtb: 6.4.1 (unknown)
 94108  0     0  0            999 V2000
   -3.1198    4.9069   -0.0633 C   0  0  0  0  0  0  0  0  0  0  0  0
   -4.3441    4.2825   -0.0361 C   0  0  0  0  0  0  0  0  0  0  0  0
   -4.5551    2.8450    0.0651 C   0  0  0  0  0  0  0  0  0  0  0  0
   -3.6952    1.9777    0.1881 O   0  0  0  0  0  0  0  0  0  0  0  0
   -6.0037    2.6187   -0.0112 C   0  0  0  0  0  0  0  0  0  0  0  0
   -6.6697    1.3959    0.0220 C   0  0  0  0  0  0  0  0  0  0  0  0
   -8.0360    1.5017   -0.0812 C   0  0  0  0  0  0  0  0  0  0  0  0
   -8.6913    2.7340   -0.2013 C   0  0  0  0  0  0  0  0  0  0  0  0
   -8.0454    3.9482   -0.2301 C   0  0  0  0  0  0  0  0  0  0  0  0
   -6.6545    3.8643   -0.1338 C   0  0  0  0  0  0  0  0  0  0  0  0
   -5.6418    4.9215   -0.1371 C   0  0  0  0  0  0  0  0  0  0  0  0
   -5.9021    6.2656   -0.2090 C   0  0  0  0  0  0  0  0  0  0  0  0
   -4.9373    7.2948   -0.1889 C   0  0  0  0  0  0  0  0  0  0  0  0
   -4.2226    8.1942   -0.1748 N   0  0  0  0  0  0  0  0  0  0  0  0
   -7.1930    6.8265   -0.3061 C   0  0  0  0  0  0  0  0  0  0  0  0
   -8.2076    7.3579   -0.3887 N   0  0  0  0  0  0  0  0  0  0  0  0
  -10.0545    2.0931   -0.2697 C   0  0  0  0  0  0  0  0  0  0  0  0
  -10.7334    1.9902   -1.6578 C   0  0  0  0  0  0  0  0  0  0  0  0
   -9.6222    1.9618   -2.6778 C   0  0  0  0  0  0  0  0  0  0  0  0
   -9.0009    0.7953   -2.5671 C   0  0  0  0  0  0  0  0  0  0  0  0
   -9.6809    0.0136   -1.4702 C   0  0  0  0  0  0  0  0  0  0  0  0
  -11.1270    0.5044   -1.6447 C   0  0  0  0  0  0  0  0  0  0  0  0
   -9.3241    0.7194   -0.1382 C   0  0  0  0  0  0  0  0  0  0  0  0
   -1.8254    4.3779    0.0157 C   0  0  0  0  0  0  0  0  0  0  0  0
   -0.7044    5.2091   -0.0637 C   0  0  0  0  0  0  0  0  0  0  0  0
    0.5136    4.5645    0.0303 C   0  0  0  0  0  0  0  0  0  0  0  0
    2.1489    5.2012   -0.0151 S   0  0  0  0  0  0  0  0  0  0  0  0
    2.7481    3.5939    0.1978 C   0  0  0  0  0  0  0  0  0  0  0  0
    3.9671    2.9274    0.3730 C   0  0  0  0  0  0  0  0  0  0  0  0
    5.2822    3.4258    0.5055 C   0  0  0  0  0  0  0  0  0  0  0  0
    6.3369    2.5131    0.8358 C   0  0  0  0  0  0  0  0  0  0  0  0
    7.5024    3.1211    0.9901 N   0  0  0  0  0  0  0  0  0  0  0  0
    7.2916    4.7059    0.7354 S   0  0  0  0  0  0  0  0  0  0  0  0
    5.7038    4.6774    0.4206 N   0  0  0  0  0  0  0  0  0  0  0  0
    6.0487    1.1318    0.9021 C   0  0  0  0  0  0  0  0  0  0  0  0
    6.8925    0.0283    1.0864 C   0  0  0  0  0  0  0  0  0  0  0  0
    6.1061   -1.1167    0.9278 C   0  0  0  0  0  0  0  0  0  0  0  0
    4.8025   -0.7643    0.6889 N   0  0  0  0  0  0  0  0  0  0  0  0
    3.9495   -1.7621    0.0835 C   0  0  0  0  0  0  0  0  0  0  0  0
    4.2152   -1.8710   -1.4165 C   0  0  0  0  0  0  0  0  0  0  0  0
    4.7364    0.6193    0.6730 C   0  0  0  0  0  0  0  0  0  0  0  0
    3.6656    1.5396    0.5248 C   0  0  0  0  0  0  0  0  0  0  0  0
    2.2930    1.3928    0.4888 N   0  0  0  0  0  0  0  0  0  0  0  0
    1.7380    2.6281    0.2831 C   0  0  0  0  0  0  0  0  0  0  0  0
    0.4515    3.1644    0.1966 C   0  0  0  0  0  0  0  0  0  0  0  0
   -1.3154    2.5621    0.2331 Se  0  0  0  0  0  2  0  0  0  0  0  0
    1.4386    0.3027    0.8960 C   0  0  0  0  0  0  0  0  0  0  0  0
    0.7548   -0.3681   -0.2952 C   0  0  0  0  0  0  0  0  0  0  0  0
    6.8338   -2.3063    1.0297 C   0  0  0  0  0  0  0  0  0  0  0  0
    8.1907   -2.0300    1.2925 C   0  0  0  0  0  0  0  0  0  0  0  0
    8.5578   -0.3167    1.3971 S   0  0  0  0  0  0  0  0  0  0  0  0
    9.0114   -3.1373    1.4136 C   0  0  0  0  0  0  0  0  0  0  0  0
    8.3733   -4.3661    1.2510 C   0  0  0  0  0  0  0  0  0  0  0  0
    6.5188   -4.1418    0.9016 Se  0  0  0  0  0  2  0  0  0  0  0  0
    9.0635   -5.5831    1.3484 C   0  0  0  0  0  0  0  0  0  0  0  0
    8.6076   -6.8667    1.2192 C   0  0  0  0  0  0  0  0  0  0  0  0
    7.2595   -7.3174    0.9351 C   0  0  0  0  0  0  0  0  0  0  0  0
    6.2668   -6.6213    0.7522 O   0  0  0  0  0  0  0  0  0  0  0  0
    7.3084   -8.7960    0.9033 C   0  0  0  0  0  0  0  0  0  0  0  0
    6.2963   -9.7083    0.6739 C   0  0  0  0  0  0  0  0  0  0  0  0
    6.6170  -11.0604    0.6978 C   0  0  0  0  0  0  0  0  0  0  0  0
    7.9149  -11.4831    0.9447 C   0  0  0  0  0  0  0  0  0  0  0  0
    8.9348  -10.5668    1.1763 C   0  0  0  0  0  0  0  0  0  0  0  0
    8.6203   -9.2227    1.1533 C   0  0  0  0  0  0  0  0  0  0  0  0
    9.4940   -8.0381    1.3623 C   0  0  0  0  0  0  0  0  0  0  0  0
   10.6819   -8.0330    1.5994 O   0  0  0  0  0  0  0  0  0  0  0  0
   -3.1286    5.9855   -0.1729 H   0  0  0  0  0  0  0  0  0  0  0  0
   -6.1245    0.4701    0.1194 H   0  0  0  0  0  0  0  0  0  0  0  0
   -8.5678    4.8854   -0.3226 H   0  0  0  0  0  0  0  0  0  0  0  0
  -10.7538    2.3760    0.5144 H   0  0  0  0  0  0  0  0  0  0  0  0
  -11.5232    2.7167   -1.8287 H   0  0  0  0  0  0  0  0  0  0  0  0
   -9.3741    2.7896   -3.3159 H   0  0  0  0  0  0  0  0  0  0  0  0
   -8.1294    0.4537   -3.0943 H   0  0  0  0  0  0  0  0  0  0  0  0
   -9.5131   -1.0603   -1.4711 H   0  0  0  0  0  0  0  0  0  0  0  0
  -11.7795    0.2357   -0.8151 H   0  0  0  0  0  0  0  0  0  0  0  0
  -11.5720    0.1784   -2.5835 H   0  0  0  0  0  0  0  0  0  0  0  0
   -9.5484    0.1036    0.7305 H   0  0  0  0  0  0  0  0  0  0  0  0
   -0.7991    6.2748   -0.1881 H   0  0  0  0  0  0  0  0  0  0  0  0
    4.1862   -2.7189    0.5669 H   0  0  0  0  0  0  0  0  0  0  0  0
    2.9033   -1.5452    0.2587 H   0  0  0  0  0  0  0  0  0  0  0  0
    4.0388   -0.9145   -1.9054 H   0  0  0  0  0  0  0  0  0  0  0  0
    5.2462   -2.1678   -1.5975 H   0  0  0  0  0  0  0  0  0  0  0  0
    3.5599   -2.6190   -1.8537 H   0  0  0  0  0  0  0  0  0  0  0  0
    2.0165   -0.3992    1.4994 H   0  0  0  0  0  0  0  0  0  0  0  0
    0.6583    0.7249    1.5442 H   0  0  0  0  0  0  0  0  0  0  0  0
    1.4695   -0.6419   -1.0671 H   0  0  0  0  0  0  0  0  0  0  0  0
    0.2261   -1.2581    0.0347 H   0  0  0  0  0  0  0  0  0  0  0  0
    0.0278    0.3149   -0.7347 H   0  0  0  0  0  0  0  0  0  0  0  0
   10.0669   -3.0689    1.6159 H   0  0  0  0  0  0  0  0  0  0  0  0
   10.1265   -5.4944    1.5614 H   0  0  0  0  0  0  0  0  0  0  0  0
    5.2889   -9.3717    0.4825 H   0  0  0  0  0  0  0  0  0  0  0  0
    5.8441  -11.7939    0.5212 H   0  0  0  0  0  0  0  0  0  0  0  0
    8.1360  -12.5401    0.9571 H   0  0  0  0  0  0  0  0  0  0  0  0
    9.9471  -10.8874    1.3693 H   0  0  0  0  0  0  0  0  0  0  0  0
  1  2  2  0  0  0  0
  2  3  1  0  0  0  0
  3  4  2  0  0  0  0
  3  5  1  0  0  0  0
  5  6  2  0  0  0  0
  6  7  1  0  0  0  0
  7  8  2  0  0  0  0
  8  9  1  0  0  0  0
  9 10  2  0  0  0  0
 10 11  1  0  0  0  0
 11 12  2  0  0  0  0
 12 13  1  0  0  0  0
 13 14  3  0  0  0  0
 12 15  1  0  0  0  0
 15 16  3  0  0  0  0
  8 17  1  0  0  0  0
 17 18  1  0  0  0  0
 18 19  1  0  0  0  0
 19 20  2  0  0  0  0
 20 21  1  0  0  0  0
 21 22  1  0  0  0  0
 21 23  1  0  0  0  0
  1 24  1  0  0  0  0
 24 25  2  0  0  0  0
 25 26  1  0  0  0  0
 26 27  1  0  0  0  0
 27 28  1  0  0  0  0
 28 29  1  0  0  0  0
 29 30  1  0  0  0  0
 30 31  1  0  0  0  0
 31 32  2  0  0  0  0
 32 33  1  0  0  0  0
 33 34  1  0  0  0  0
 31 35  1  0  0  0  0
 35 36  1  0  0  0  0
 36 37  2  0  0  0  0
 37 38  1  0  0  0  0
 38 39  1  0  0  0  0
 39 40  1  0  0  0  0
 38 41  1  0  0  0  0
 41 42  1  0  0  0  0
 42 43  1  0  0  0  0
 43 44  1  0  0  0  0
 44 45  1  0  0  0  0
 45 46  1  0  0  0  0
 43 47  1  0  0  0  0
 47 48  1  0  0  0  0
 37 49  1  0  0  0  0
 49 50  2  0  0  0  0
 50 51  1  0  0  0  0
 50 52  1  0  0  0  0
 52 53  2  0  0  0  0
 53 54  1  0  0  0  0
 53 55  1  0  0  0  0
 55 56  2  0  0  0  0
 56 57  1  0  0  0  0
 57 58  2  0  0  0  0
 57 59  1  0  0  0  0
 59 60  2  0  0  0  0
 60 61  1  0  0  0  0
 61 62  2  0  0  0  0
 62 63  1  0  0  0  0
 63 64  2  0  0  0  0
 64 65  1  0  0  0  0
 65 66  2  0  0  0  0
 11  2  1  0  0  0  0
 23 17  1  0  0  0  0
 46 24  1  0  0  0  0
 54 49  1  0  0  0  0
 65 56  1  0  0  0  0
 10  5  1  0  0  0  0
 22 18  1  0  0  0  0
 45 26  2  0  0  0  0
 64 59  1  0  0  0  0
 23  7  1  0  0  0  0
 44 28  2  0  0  0  0
 42 29  2  0  0  0  0
 34 30  2  0  0  0  0
 41 35  2  0  0  0  0
 51 36  1  0  0  0  0
  1 67  1  0  0  0  0
  6 68  1  0  0  0  0
  9 69  1  0  0  0  0
 17 70  1  0  0  0  0
 18 71  1  0  0  0  0
 19 72  1  0  0  0  0
 20 73  1  0  0  0  0
 21 74  1  0  0  0  0
 22 75  1  0  0  0  0
 22 76  1  0  0  0  0
 23 77  1  0  0  0  0
 25 78  1  0  0  0  0
 39 79  1  0  0  0  0
 39 80  1  0  0  0  0
 40 81  1  0  0  0  0
 40 82  1  0  0  0  0
 40 83  1  0  0  0  0
 47 84  1  0  0  0  0
 47 85  1  0  0  0  0
 48 86  1  0  0  0  0
 48 87  1  0  0  0  0
 48 88  1  0  0  0  0
 52 89  1  0  0  0  0
 55 90  1  0  0  0  0
 60 91  1  0  0  0  0
 61 92  1  0  0  0  0
 62 93  1  0  0  0  0
 63 94  1  0  0  0  0
M  END
