100

C          1.54330        1.55860       -4.44420
C          1.11560        1.61080       -5.74640
C          0.31490        0.58990       -6.41610
O          0.05380       -0.53120       -6.00140
C         -0.12970        1.17400       -7.69040
C         -0.99930        0.60800       -8.62010
C         -1.27600        1.42180       -9.69280
C         -0.72630        2.70280       -9.83280
C          0.13860        3.27030       -8.92650
C          0.43290        2.46060       -7.82590
C          1.26610        2.73100       -6.65420
C          2.05800        3.83660       -6.47960
C          2.88080        4.08410       -5.36110
N          3.57720        4.36120       -4.48990
C          2.18470        4.88430       -7.41550
N          2.34020        5.77070       -8.12880
C         -1.45060        2.95960      -11.13080
C         -0.61910        2.83670      -12.42490
C         -1.66030        2.66310      -13.50710
C         -2.18070        1.44960      -13.37530
C         -1.49990        0.78240      -12.20190
C         -0.09950        1.39670      -12.32450
C         -2.06300        1.53050      -10.97520
C          1.35400        0.57840       -3.45680
Se         0.54970       -1.14960       -3.63480
C          0.81800       -1.30300       -1.81480
C          0.55430       -2.18260       -0.75680
C          0.05530       -3.50180       -0.77280
C         -0.08310       -4.21040        0.46480
N         -0.51520       -5.44960        0.29080
S         -0.73080       -5.69960       -1.29500
N         -0.28350       -4.23390       -1.82110
C          0.16120       -3.51420        1.67100
C         -0.10620       -3.86060        3.00110
S         -0.71770       -5.20280        3.90690
C         -0.69310       -4.20240        5.34670
C         -1.09940       -4.43590        6.65630
C         -1.68080       -5.73880        7.10100
C         -3.20830       -5.71650        7.00070
C         -0.96310       -3.28620        7.44600
S         -0.28340       -1.93410        6.54200
C         -0.21280       -2.90290        5.11930
C          0.13660       -2.72070        3.77770
N          0.59750       -1.70550        2.98660
C          0.61910       -2.16140        1.68070
C          0.94240       -1.53810        0.44840
N          1.50990       -0.31610        0.12190
C          1.41940       -0.16530       -1.24360
C          1.73720        0.84430       -2.13720
C          2.45150        0.47520        0.88420
C          3.58170       -0.38170        1.44930
C          0.65250       -0.35700        3.50410
C         -0.45670        0.51480        2.92180
C         -1.36790       -3.20670        8.78670
C         -1.39990       -2.14090        9.64010
S         -2.05380       -2.31800       11.26490
C         -1.82890       -0.61630       11.58840
C         -2.20790       -0.08460       12.79620
C         -2.77870       -0.92910       13.77110
N         -3.24590       -1.60940       14.56770
C         -2.10310        1.25880       13.19240
N         -2.05500        2.34070       13.57610
N         -1.25770        0.01350       10.52810
C         -0.96320        1.43310       10.46220
C         -2.18910        2.24010       10.05160
C         -0.99380       -0.77400        9.41600
O         -0.47480       -0.31610        8.41230
H          2.06580        2.43560       -4.07720
H         -1.40830       -0.37830       -8.46740
H          0.54310        4.26170       -9.04400
H         -2.12180        3.81630      -11.13600
H          0.11350        3.62560      -12.57160
H         -1.94150        3.43560      -14.19840
H         -2.98350        1.00610      -13.93470
H         -1.56970       -0.30060      -12.14670
H          0.54140        1.21540      -11.46370
H          0.41090        1.07940      -13.23220
H         -3.14280        1.43470      -10.87700
H         -1.29350       -6.52450        6.44960
H         -1.37960       -5.96610        8.12490
H         -3.62600       -4.93740        7.63450
H         -3.61640       -6.67460        7.31120
H         -3.51310       -5.52650        5.97450
H          2.20200        1.78020       -1.87340
H          1.94270        1.03470        1.67170
H          2.87420        1.20670        0.19290
H          3.20110       -1.15730        2.10950
H          4.12330       -0.86330        0.63830
H          4.27550        0.24260        2.00610
H          0.51940       -0.43270        4.58600
H          1.63740        0.07740        3.33010
H         -0.38780        1.51950        3.32960
H         -0.39160        0.56830        1.83770
H         -1.42790        0.10180        3.18430
H         -1.74380       -4.13540        9.19900
H         -0.58110        1.76680       11.42780
H         -0.18090        1.53950        9.70520
H         -1.92120        3.29020        9.98460
H         -2.98780        2.13810       10.78250
H         -2.54900        1.90710        9.08060
