130

C         -5.71230       -3.36330       -1.86510
C         -6.04440       -4.13670       -0.78130
C         -5.48770       -4.01670        0.56820
O         -4.65320       -3.21560        0.95860
C         -6.12860       -5.06460        1.37810
C         -5.89630       -5.34520        2.72220
C         -6.62990       -6.40100        3.20750
C         -7.53430       -7.11930        2.41450
C         -7.77610       -6.84890        1.08840
C         -7.03430       -5.78330        0.57150
C         -7.00560       -5.22120       -0.77900
C         -7.76480       -5.66250       -1.83310
C         -7.75740       -5.15170       -3.14780
N         -7.83270       -4.81690       -4.24490
C         -8.69430       -6.72160       -1.75850
N         -9.47110       -7.56720       -1.78040
C         -7.90730       -8.04940        3.54120
C         -7.30070       -9.47420        3.52790
C         -6.00090       -9.37990        2.76810
C         -5.14230       -8.70180        3.51770
C         -5.84600       -8.32520        4.79800
C         -6.76810       -9.54310        4.96800
C         -6.89750       -7.25070        4.42440
C         -4.78200       -2.32460       -1.99230
C         -4.55900       -1.66210       -3.21510
C         -5.37540       -1.84390       -4.41060
C         -6.76680       -1.78440       -4.34370
C         -7.52830       -1.98740       -5.47570
C         -6.92810       -2.25330       -6.70030
C         -7.76180       -2.57760       -7.90280
C         -7.97860       -4.09120       -7.97800
C         -5.53990       -2.27660       -6.77010
C         -4.76900       -2.06690       -5.64510
C         -3.46480       -0.80320       -3.13890
S         -2.69130        0.23970       -4.31640
C         -1.57480        0.73570       -3.09240
C         -0.43600        1.54200       -2.95950
C          0.32960        2.23310       -3.92530
C          1.56620        2.83900       -3.52480
N          2.21480        3.38540       -4.54070
S          1.34150        3.16160       -5.88600
N          0.10340        2.35760       -5.22330
C          1.90430        2.85320       -2.15290
C          2.94060        3.49950       -1.46690
S          4.36320        4.41900       -1.80900
C          4.61350        4.62100       -0.08920
C          5.58450        5.30320        0.64930
C          6.71050        6.00100        0.03220
C          7.01660        7.32310        0.34610
C          8.08020        7.95470       -0.26760
C          8.86340        7.29060       -1.20430
C         10.05650        7.95820       -1.82120
C         11.31180        7.66210       -0.99700
C          8.54430        5.97620       -1.52430
C          7.47830        5.33860       -0.92340
C          5.35850        5.18330        2.02630
S          3.87330        4.29460        2.36890
C          3.61990        4.00810        0.69030
C          2.68210        3.34230       -0.09760
N          1.55140        2.59220        0.08030
C          1.06670        2.25250       -1.16650
C         -0.03410        1.46570       -1.59390
N         -0.88490        0.59510       -0.93190
C         -1.80440        0.14600       -1.84370
C         -2.87760       -0.75130       -1.86510
S         -3.66210       -1.79800       -0.73870
C         -0.62880       -0.21650        0.24000
C          0.49540       -1.21470       -0.02750
C          0.93990        2.51920        1.38780
C          1.64710        1.51700        2.29880
C          6.16040        5.71430        3.04530
C          6.09920        5.52070        4.40050
C          6.65150        6.56320        5.29540
O          7.37550        7.48100        4.98560
C          6.06740        6.26920        6.62790
C          5.33270        5.06990        6.56250
C          4.66400        4.59660        7.67780
C          4.73810        5.32980        8.85330
C          5.47110        6.50450        8.91980
Br         5.54050        7.45100       10.55440
C          6.15330        6.99920        7.80200
Cl         7.05980        8.44890        7.88390
C          5.47490        4.51360        5.21720
C          5.32080        3.18720        4.89560
C          4.73770        2.22950        5.74510
N          4.23000        1.41850        6.38040
C          5.81920        2.62570        3.70170
N          6.26980        2.12450        2.77190
H         -6.22210       -3.59000       -2.79380
H         -5.19150       -4.76380        3.29590
H         -8.47560       -7.41380        0.49580
H         -8.95490       -8.04710        3.83500
H         -7.98720      -10.25380        3.20910
H         -5.86180       -9.75460        1.77100
H         -4.14220       -8.39640        3.27180
H         -5.20750       -8.05980        5.63650
H         -7.53960       -9.40120        5.72340
H         -6.21930      -10.46140        5.17060
H         -7.28490       -6.72860        5.29710
H         -7.24750       -1.55720       -3.40270
H         -8.60510       -1.94830       -5.40670
H         -7.26310       -2.23420       -8.81160
H         -8.72940       -2.07780       -7.83070
H         -8.62830       -4.34240       -8.81310
H         -8.43060       -4.45020       -7.05690
H         -7.02760       -4.60210       -8.10990
H         -5.05740       -2.46940       -7.71740
H         -3.69170       -2.10640       -5.70970
H          6.40030        7.86830        1.04610
H          8.30360        8.98170       -0.01800
H          9.89920        9.03750       -1.86280
H         10.20020        7.59230       -2.83970
H         11.49240        6.59040       -0.95390
H         11.19250        8.02950        0.01960
H         12.17960        8.14340       -1.44120
H          9.13750        5.44690       -2.25560
H          7.24840        4.31380       -1.17280
H         -1.55470       -0.75480        0.45650
H         -0.39260        0.39840        1.10330
H          1.42010       -0.69720       -0.27600
H          0.23130       -1.86310       -0.85970
H          0.66010       -1.83130        0.85170
H         -0.12120        2.29610        1.27030
H          1.01670        3.51500        1.83980
H          1.14050        1.47040        3.25870
H          2.67420        1.82820        2.47120
H          1.66830        0.52300        1.86230
H          6.88460        6.45830        2.73110
H          4.08660        3.68720        7.64770
H          4.22060        4.98520        9.73550
