
  xtb     02022211473D
 energy: -214.004104590661 gnorm: 0.000341425869 xtb: 6.4.1 (unknown)
126142  0     0  0            999 V2000
    2.8371    5.5798   -2.5729 C   0  0  0  0  0  0  0  0  0  0  0  0
    1.9916    5.7473   -3.6274 C   0  0  0  0  0  0  0  0  0  0  0  0
    2.4688    6.3642   -4.8909 C   0  0  0  0  0  0  0  0  0  0  0  0
    3.4917    6.9910   -5.0550 O   0  0  0  0  0  0  0  0  0  0  0  0
    1.4626    5.9884   -5.9067 C   0  0  0  0  0  0  0  0  0  0  0  0
    1.5231    6.2158   -7.2801 C   0  0  0  0  0  0  0  0  0  0  0  0
    0.4466    5.7222   -7.9778 C   0  0  0  0  0  0  0  0  0  0  0  0
   -0.6177    5.0509   -7.3606 C   0  0  0  0  0  0  0  0  0  0  0  0
   -0.6987    4.8293   -6.0065 C   0  0  0  0  0  0  0  0  0  0  0  0
    0.3880    5.3221   -5.2802 C   0  0  0  0  0  0  0  0  0  0  0  0
    0.6326    5.3072   -3.8416 C   0  0  0  0  0  0  0  0  0  0  0  0
   -0.3224    5.1820   -2.8643 C   0  0  0  0  0  0  0  0  0  0  0  0
   -0.0645    5.5138   -1.5185 C   0  0  0  0  0  0  0  0  0  0  0  0
    0.1125    5.8338   -0.4299 N   0  0  0  0  0  0  0  0  0  0  0  0
   -1.6585    4.8097   -3.0994 C   0  0  0  0  0  0  0  0  0  0  0  0
   -2.7507    4.4799   -3.2313 N   0  0  0  0  0  0  0  0  0  0  0  0
   -1.3332    4.8156   -8.6673 C   0  0  0  0  0  0  0  0  0  0  0  0
   -1.2300    3.3957   -9.2635 C   0  0  0  0  0  0  0  0  0  0  0  0
   -1.5923    3.5870  -10.7185 C   0  0  0  0  0  0  0  0  0  0  0  0
   -0.5872    4.2254  -11.3038 C   0  0  0  0  0  0  0  0  0  0  0  0
    0.4716    4.4759  -10.2544 C   0  0  0  0  0  0  0  0  0  0  0  0
    0.2889    3.2210   -9.3909 C   0  0  0  0  0  0  0  0  0  0  0  0
   -0.1489    5.5669   -9.3557 C   0  0  0  0  0  0  0  0  0  0  0  0
    2.7464    4.6507   -1.5140 C   0  0  0  0  0  0  0  0  0  0  0  0
    3.4791    4.7025   -0.3320 C   0  0  0  0  0  0  0  0  0  0  0  0
    4.2903    5.8723    0.0235 C   0  0  0  0  0  0  0  0  0  0  0  0
    3.6365    7.0970    0.1372 C   0  0  0  0  0  0  0  0  0  0  0  0
    4.3376    8.2374    0.4779 C   0  0  0  0  0  0  0  0  0  0  0  0
    5.7025    8.1617    0.6957 C   0  0  0  0  0  0  0  0  0  0  0  0
    6.3555    6.9490    0.5662 C   0  0  0  0  0  0  0  0  0  0  0  0
    5.6699    5.7889    0.2324 C   0  0  0  0  0  0  0  0  0  0  0  0
    6.4248    4.5080    0.0148 C   0  0  0  0  0  0  0  0  0  0  0  0
    6.5770    4.2110   -1.4786 C   0  0  0  0  0  0  0  0  0  0  0  0
    3.2389    3.5820    0.4726 C   0  0  0  0  0  0  0  0  0  0  0  0
    3.7864    3.1153    2.0670 S   0  0  0  0  0  0  0  0  0  0  0  0
    2.8360    1.6756    1.9499 C   0  0  0  0  0  0  0  0  0  0  0  0
    2.5480    0.5260    2.7057 C   0  0  0  0  0  0  0  0  0  0  0  0
    3.0723    0.0050    3.9114 C   0  0  0  0  0  0  0  0  0  0  0  0
    2.6715   -1.3101    4.3414 C   0  0  0  0  0  0  0  0  0  0  0  0
    3.3031   -1.6932    5.4390 N   0  0  0  0  0  0  0  0  0  0  0  0
    4.3045   -0.5086    5.9004 S   0  0  0  0  0  0  0  0  0  0  0  0
    3.9769    0.5422    4.7136 N   0  0  0  0  0  0  0  0  0  0  0  0
    1.6524   -1.9878    3.6326 C   0  0  0  0  0  0  0  0  0  0  0  0
    0.9554   -3.1862    3.8602 C   0  0  0  0  0  0  0  0  0  0  0  0
    0.9957   -4.5388    4.9398 S   0  0  0  0  0  0  0  0  0  0  0  0
   -0.3941   -5.2069    4.1049 C   0  0  0  0  0  0  0  0  0  0  0  0
   -1.1171   -6.3862    4.2645 C   0  0  0  0  0  0  0  0  0  0  0  0
   -0.8190   -7.4229    5.2637 C   0  0  0  0  0  0  0  0  0  0  0  0
   -1.0155   -7.1989    6.6288 C   0  0  0  0  0  0  0  0  0  0  0  0
   -1.6422   -5.9298    7.1325 C   0  0  0  0  0  0  0  0  0  0  0  0
   -3.1598   -5.9637    6.9375 C   0  0  0  0  0  0  0  0  0  0  0  0
   -0.6920   -8.2147    7.5181 C   0  0  0  0  0  0  0  0  0  0  0  0
   -0.1834   -9.4232    7.0779 C   0  0  0  0  0  0  0  0  0  0  0  0
    0.0017   -9.6411    5.7237 C   0  0  0  0  0  0  0  0  0  0  0  0
   -0.3184   -8.6443    4.8222 C   0  0  0  0  0  0  0  0  0  0  0  0
   -2.1412   -6.4950    3.3143 C   0  0  0  0  0  0  0  0  0  0  0  0
   -2.1964   -5.1118    2.2249 S   0  0  0  0  0  0  0  0  0  0  0  0
   -0.8521   -4.4083    3.0445 C   0  0  0  0  0  0  0  0  0  0  0  0
   -0.0727   -3.2549    2.9101 C   0  0  0  0  0  0  0  0  0  0  0  0
   -0.0275   -2.1567    2.0873 N   0  0  0  0  0  0  0  0  0  0  0  0
    1.0459   -1.3907    2.4952 C   0  0  0  0  0  0  0  0  0  0  0  0
    1.6123   -0.2218    1.9442 C   0  0  0  0  0  0  0  0  0  0  0  0
    1.3883    0.4090    0.7352 N   0  0  0  0  0  0  0  0  0  0  0  0
    2.1250    1.5677    0.7463 C   0  0  0  0  0  0  0  0  0  0  0  0
    2.3547    2.6556   -0.0971 C   0  0  0  0  0  0  0  0  0  0  0  0
    1.7961    3.1723   -1.6439 S   0  0  0  0  0  0  0  0  0  0  0  0
    1.0450   -0.2323   -0.5185 C   0  0  0  0  0  0  0  0  0  0  0  0
    2.2924   -0.5085   -1.3577 C   0  0  0  0  0  0  0  0  0  0  0  0
   -1.2300   -1.6793    1.4320 C   0  0  0  0  0  0  0  0  0  0  0  0
   -2.3434   -1.4159    2.4450 C   0  0  0  0  0  0  0  0  0  0  0  0
   -3.0351   -7.5756    3.2708 C   0  0  0  0  0  0  0  0  0  0  0  0
   -4.0735   -7.8224    2.4191 C   0  0  0  0  0  0  0  0  0  0  0  0
   -4.5543   -7.0255    1.2956 C   0  0  0  0  0  0  0  0  0  0  0  0
   -4.1190   -5.9590    0.8950 O   0  0  0  0  0  0  0  0  0  0  0  0
   -5.6986   -7.7749    0.7233 C   0  0  0  0  0  0  0  0  0  0  0  0
   -6.5055   -7.4563   -0.3522 C   0  0  0  0  0  0  0  0  0  0  0  0
   -7.5248   -8.3380   -0.6895 C   0  0  0  0  0  0  0  0  0  0  0  0
   -7.7273   -9.5058    0.0322 C   0  0  0  0  0  0  0  0  0  0  0  0
   -6.9170   -9.8282    1.1143 C   0  0  0  0  0  0  0  0  0  0  0  0
   -5.9030   -8.9534    1.4527 C   0  0  0  0  0  0  0  0  0  0  0  0
   -4.9002   -9.0383    2.5447 C   0  0  0  0  0  0  0  0  0  0  0  0
   -4.7810   -9.9205    3.3673 O   0  0  0  0  0  0  0  0  0  0  0  0
    3.7451    6.1754   -2.5944 H   0  0  0  0  0  0  0  0  0  0  0  0
    2.3570    6.7405   -7.7193 H   0  0  0  0  0  0  0  0  0  0  0  0
   -1.5194    4.3119   -5.5366 H   0  0  0  0  0  0  0  0  0  0  0  0
   -2.3334    5.2377   -8.7435 H   0  0  0  0  0  0  0  0  0  0  0  0
   -1.7788    2.6323   -8.7186 H   0  0  0  0  0  0  0  0  0  0  0  0
   -2.5350    3.2981  -11.1449 H   0  0  0  0  0  0  0  0  0  0  0  0
   -0.5225    4.5763  -12.3171 H   0  0  0  0  0  0  0  0  0  0  0  0
    1.4735    4.6961  -10.6129 H   0  0  0  0  0  0  0  0  0  0  0  0
    0.8209    3.2542   -8.4419 H   0  0  0  0  0  0  0  0  0  0  0  0
    0.5552    2.3109   -9.9262 H   0  0  0  0  0  0  0  0  0  0  0  0
   -0.3594    6.4910   -9.8906 H   0  0  0  0  0  0  0  0  0  0  0  0
    2.5689    7.1364   -0.0244 H   0  0  0  0  0  0  0  0  0  0  0  0
    3.8205    9.1803    0.5703 H   0  0  0  0  0  0  0  0  0  0  0  0
    6.2603    9.0477    0.9601 H   0  0  0  0  0  0  0  0  0  0  0  0
    7.4235    6.8986    0.7236 H   0  0  0  0  0  0  0  0  0  0  0  0
    7.4156    4.5955    0.4639 H   0  0  0  0  0  0  0  0  0  0  0  0
    5.9127    3.6749    0.4972 H   0  0  0  0  0  0  0  0  0  0  0  0
    7.0759    5.0371   -1.9805 H   0  0  0  0  0  0  0  0  0  0  0  0
    5.6047    4.0661   -1.9445 H   0  0  0  0  0  0  0  0  0  0  0  0
    7.1668    3.3091   -1.6256 H   0  0  0  0  0  0  0  0  0  0  0  0
   -1.4203   -5.8153    8.1949 H   0  0  0  0  0  0  0  0  0  0  0  0
   -1.2312   -5.0659    6.6092 H   0  0  0  0  0  0  0  0  0  0  0  0
   -3.5886   -6.8203    7.4527 H   0  0  0  0  0  0  0  0  0  0  0  0
   -3.4110   -6.0407    5.8820 H   0  0  0  0  0  0  0  0  0  0  0  0
   -3.6117   -5.0577    7.3345 H   0  0  0  0  0  0  0  0  0  0  0  0
   -0.8448   -8.0528    8.5756 H   0  0  0  0  0  0  0  0  0  0  0  0
    0.0634  -10.1961    7.7904 H   0  0  0  0  0  0  0  0  0  0  0  0
    0.3918  -10.5832    5.3696 H   0  0  0  0  0  0  0  0  0  0  0  0
   -0.1727   -8.8009    3.7629 H   0  0  0  0  0  0  0  0  0  0  0  0
    0.5561   -1.1819   -0.3107 H   0  0  0  0  0  0  0  0  0  0  0  0
    0.3611    0.4200   -1.0710 H   0  0  0  0  0  0  0  0  0  0  0  0
    2.0104   -1.0448   -2.2594 H   0  0  0  0  0  0  0  0  0  0  0  0
    2.9960   -1.1175   -0.7940 H   0  0  0  0  0  0  0  0  0  0  0  0
    2.7839    0.4161   -1.6470 H   0  0  0  0  0  0  0  0  0  0  0  0
   -1.5594   -2.4327    0.7098 H   0  0  0  0  0  0  0  0  0  0  0  0
   -1.0087   -0.7460    0.9177 H   0  0  0  0  0  0  0  0  0  0  0  0
   -2.0063   -0.7076    3.1991 H   0  0  0  0  0  0  0  0  0  0  0  0
   -2.6499   -2.3346    2.9362 H   0  0  0  0  0  0  0  0  0  0  0  0
   -3.2045   -0.9971    1.9323 H   0  0  0  0  0  0  0  0  0  0  0  0
   -2.8750   -8.3323    4.0348 H   0  0  0  0  0  0  0  0  0  0  0  0
   -6.3409   -6.5457   -0.9080 H   0  0  0  0  0  0  0  0  0  0  0  0
   -8.1700   -8.1119   -1.5257 H   0  0  0  0  0  0  0  0  0  0  0  0
   -8.5273  -10.1734   -0.2519 H   0  0  0  0  0  0  0  0  0  0  0  0
   -7.0678  -10.7343    1.6810 H   0  0  0  0  0  0  0  0  0  0  0  0
  1  2  2  0  0  0  0
  2  3  1  0  0  0  0
  3  4  2  0  0  0  0
  3  5  1  0  0  0  0
  5  6  2  0  0  0  0
  6  7  1  0  0  0  0
  7  8  2  0  0  0  0
  8  9  1  0  0  0  0
  9 10  2  0  0  0  0
 10 11  1  0  0  0  0
 11 12  2  0  0  0  0
 12 13  1  0  0  0  0
 13 14  3  0  0  0  0
 12 15  1  0  0  0  0
 15 16  3  0  0  0  0
  8 17  1  0  0  0  0
 17 18  1  0  0  0  0
 18 19  1  0  0  0  0
 19 20  2  0  0  0  0
 20 21  1  0  0  0  0
 21 22  1  0  0  0  0
 21 23  1  0  0  0  0
  1 24  1  0  0  0  0
 24 25  2  0  0  0  0
 25 26  1  0  0  0  0
 26 27  2  0  0  0  0
 27 28  1  0  0  0  0
 28 29  2  0  0  0  0
 29 30  1  0  0  0  0
 30 31  2  0  0  0  0
 31 32  1  0  0  0  0
 32 33  1  0  0  0  0
 25 34  1  0  0  0  0
 34 35  1  0  0  0  0
 35 36  1  0  0  0  0
 36 37  1  0  0  0  0
 37 38  1  0  0  0  0
 38 39  1  0  0  0  0
 39 40  2  0  0  0  0
 40 41  1  0  0  0  0
 41 42  1  0  0  0  0
 39 43  1  0  0  0  0
 43 44  1  0  0  0  0
 44 45  1  0  0  0  0
 45 46  1  0  0  0  0
 46 47  1  0  0  0  0
 47 48  1  0  0  0  0
 48 49  2  0  0  0  0
 49 50  1  0  0  0  0
 50 51  1  0  0  0  0
 49 52  1  0  0  0  0
 52 53  2  0  0  0  0
 53 54  1  0  0  0  0
 54 55  2  0  0  0  0
 47 56  2  0  0  0  0
 56 57  1  0  0  0  0
 57 58  1  0  0  0  0
 58 59  1  0  0  0  0
 59 60  1  0  0  0  0
 60 61  1  0  0  0  0
 61 62  1  0  0  0  0
 62 63  1  0  0  0  0
 63 64  1  0  0  0  0
 64 65  1  0  0  0  0
 65 66  1  0  0  0  0
 63 67  1  0  0  0  0
 67 68  1  0  0  0  0
 60 69  1  0  0  0  0
 69 70  1  0  0  0  0
 56 71  1  0  0  0  0
 71 72  2  0  0  0  0
 72 73  1  0  0  0  0
 73 74  2  0  0  0  0
 73 75  1  0  0  0  0
 75 76  2  0  0  0  0
 76 77  1  0  0  0  0
 77 78  2  0  0  0  0
 78 79  1  0  0  0  0
 79 80  2  0  0  0  0
 80 81  1  0  0  0  0
 81 82  2  0  0  0  0
 11  2  1  0  0  0  0
 23 17  1  0  0  0  0
 66 24  1  0  0  0  0
 81 72  1  0  0  0  0
 10  5  1  0  0  0  0
 22 18  1  0  0  0  0
 31 26  1  0  0  0  0
 65 34  2  0  0  0  0
 80 75  1  0  0  0  0
 23  7  1  0  0  0  0
 64 36  2  0  0  0  0
 62 37  2  0  0  0  0
 42 38  2  0  0  0  0
 61 43  2  0  0  0  0
 59 44  2  0  0  0  0
 58 46  2  0  0  0  0
 55 48  1  0  0  0  0
  1 83  1  0  0  0  0
  6 84  1  0  0  0  0
  9 85  1  0  0  0  0
 17 86  1  0  0  0  0
 18 87  1  0  0  0  0
 19 88  1  0  0  0  0
 20 89  1  0  0  0  0
 21 90  1  0  0  0  0
 22 91  1  0  0  0  0
 22 92  1  0  0  0  0
 23 93  1  0  0  0  0
 27 94  1  0  0  0  0
 28 95  1  0  0  0  0
 29 96  1  0  0  0  0
 30 97  1  0  0  0  0
 32 98  1  0  0  0  0
 32 99  1  0  0  0  0
 33100  1  0  0  0  0
 33101  1  0  0  0  0
 33102  1  0  0  0  0
 50103  1  0  0  0  0
 50104  1  0  0  0  0
 51105  1  0  0  0  0
 51106  1  0  0  0  0
 51107  1  0  0  0  0
 52108  1  0  0  0  0
 53109  1  0  0  0  0
 54110  1  0  0  0  0
 55111  1  0  0  0  0
 67112  1  0  0  0  0
 67113  1  0  0  0  0
 68114  1  0  0  0  0
 68115  1  0  0  0  0
 68116  1  0  0  0  0
 69117  1  0  0  0  0
 69118  1  0  0  0  0
 70119  1  0  0  0  0
 70120  1  0  0  0  0
 70121  1  0  0  0  0
 71122  1  0  0  0  0
 76123  1  0  0  0  0
 77124  1  0  0  0  0
 78125  1  0  0  0  0
 79126  1  0  0  0  0
M  END
