98

C         -6.55450        2.08620        1.76490
C         -6.81500        1.18970        2.77210
C         -5.90610        0.14560        3.22800
O         -4.76100       -0.05980        2.83780
C         -6.62140       -0.62790        4.24970
C         -6.15760       -1.74630        4.93990
C         -7.06530       -2.26850        5.82970
C         -8.34090       -1.72010        6.01770
C         -8.81080       -0.61780        5.34240
C         -7.90300       -0.06740        4.43350
C         -8.04080        1.08490        3.54170
C         -9.13020        1.91410        3.48230
C         -9.26360        3.04020        2.64250
N         -9.45510        3.97260        1.99930
C        -10.28790        1.77160        4.27660
N        -11.25830        1.72240        4.88810
C         -8.71650       -2.74590        7.05750
C         -8.67600       -2.28300        8.52940
C         -8.61290       -3.57490        9.31200
C         -7.40570       -4.09590        9.13410
C         -6.63210       -3.16480        8.22830
C         -7.22060       -1.81850        8.66960
C         -7.29430       -3.35800        6.84750
C         -5.41230        2.25620        0.96960
C         -5.37340        3.22960       -0.03140
C         -4.18790        3.30030       -0.73900
S         -3.70840        4.35740       -2.05550
C         -2.16550        3.57900       -2.07490
C         -0.93870        3.66880       -2.74230
C         -0.49710        4.58150       -3.72570
C          0.86340        4.51660       -4.16520
N          1.15520        5.45470       -5.05210
S         -0.17340        6.34180       -5.31440
N         -1.17020        5.56330       -4.30450
C          1.69300        3.49020       -3.66170
C          3.01540        3.15900       -3.97390
C          3.32650        1.99670       -3.25680
N          2.25100        1.61650       -2.49750
C          2.23720        0.29100       -1.92290
C          1.32530       -0.64860       -2.70770
C          1.22700        2.52170       -2.71940
C         -0.08450        2.66450       -2.19140
N         -0.79110        2.00160       -1.20150
C         -2.03890        2.55980       -1.12410
C         -3.18740        2.38790       -0.34510
Se        -3.77460        1.29870        1.05470
C         -0.34370        1.14490       -0.12820
C          0.61340        1.87770        0.80860
C          4.62390        1.53650       -3.49090
C          5.29050        2.38990       -4.39970
S          4.31200        3.73490       -4.95980
C          6.59150        2.04380       -4.69960
C          7.06830        0.89540       -4.05560
Se         5.72910        0.13630       -2.93860
C          8.37650        0.45010       -4.26040
C          9.05390       -0.62450       -3.72470
C          8.49830       -1.57800       -2.77780
O          7.35950       -1.60170       -2.32500
C          9.57730       -2.52850       -2.45900
C          9.55620       -3.61090       -1.60410
C         10.71720       -4.36220       -1.46650
Cl        10.73470       -5.71630       -0.41060
C         11.86790       -4.01840       -2.18320
Cl        13.29610       -4.95450       -2.00400
C         11.88280       -2.92540       -3.04510
C         10.72910       -2.17360       -3.18430
C         10.43100       -0.98850       -3.99110
C         11.31600       -0.36640       -4.83290
C         11.04430        0.77240       -5.62030
N         10.90800        1.69420       -6.29210
C         12.64730       -0.78980       -5.03360
N         13.73840       -1.07720       -5.24390
H         -7.34870        2.78110        1.51630
H         -5.16940       -2.13910        4.75870
H         -9.79820       -0.21590        5.49510
H         -9.58690       -3.35740        6.82770
H         -9.45620       -1.57960        8.80660
H         -9.44360       -3.99060        9.85130
H         -7.02630       -5.03380        9.49510
H         -5.55010       -3.26500        8.23280
H         -6.96420       -1.57520        9.69930
H         -6.95620       -0.98450        8.02200
H         -7.21580       -4.37820        6.47640
H         -6.21400        3.87420       -0.22650
H          1.97070        0.33030       -0.86760
H          3.26670       -0.08330       -1.97660
H          1.68950       -0.75100       -3.72740
H          1.31800       -1.63130       -2.24440
H          0.30700       -0.26800       -2.74830
H         -1.23940        0.85390        0.43350
H          0.09260        0.22820       -0.52270
H          0.95020        1.20740        1.59440
H          1.47940        2.25760        0.27050
H          0.10450        2.72110        1.26960
H          7.21060        2.60930       -5.37560
H          8.93300        1.07340       -4.95120
H          8.66190       -3.86480       -1.05740
H         12.78940       -2.69300       -3.57900
