106

C          4.88910        1.33230       -2.97980
C          5.31080        0.04530       -3.12840
C          4.68230       -1.12620       -2.46500
O          3.59770       -1.18520       -1.92400
C          5.69580       -2.19610       -2.52100
C          5.59090       -3.47020       -1.96730
C          6.69600       -4.26130       -2.16880
C          7.82940       -3.81790       -2.86450
C          7.94540       -2.56580       -3.41980
C          6.82900       -1.74660       -3.23000
C          6.58440       -0.37960       -3.67410
C          7.35480        0.34940       -4.54060
C          6.97600        1.61060       -5.04810
N          6.70140        2.61740       -5.52690
C          8.58180       -0.08780       -5.07930
N          9.58850       -0.38690       -5.54300
C          8.55980       -5.12180       -2.66430
C          9.66180       -5.17170       -1.57690
C          9.30260       -4.12550       -0.55100
C          8.22850       -4.54950        0.10140
C          7.84150       -5.89030       -0.47220
C          9.23050       -6.44340       -0.82880
C          7.29470       -5.61820       -1.89550
C          3.61940        1.73270       -2.48210
S          3.61890        3.00230       -1.25470
C          1.93590        2.78800       -1.04980
C          0.90400        3.22800       -0.20000
C          0.81030        4.22540        0.79780
C         -0.46490        4.48260        1.41980
N         -0.41130        5.48980        2.27660
S          1.10160        6.06220        2.30860
N          1.75210        5.04840        1.23040
C         -1.55630        3.62970        1.13400
C         -2.83860        3.47570        1.69180
S         -3.86630        4.23980        2.85200
C         -5.06570        2.98780        2.60570
C         -6.34440        2.75560        3.14170
C         -6.94810        3.55670        4.24860
C         -5.94560        3.91770        5.34320
C         -6.91730        1.61430        2.58910
S         -5.84200        0.81230        1.44100
C         -4.65730        2.03870        1.66050
C         -3.39450        2.31630        1.13540
N         -2.52710        1.76250        0.22630
C         -1.40840        2.57250        0.19950
C         -0.23900        2.48850       -0.58030
N          0.04210        1.70010       -1.68810
C          1.39420        1.86120       -1.95400
C          2.35340        1.24960       -2.78130
C          2.08160        0.33270       -3.93340
C          1.80420        1.12470       -5.21430
C         -0.92470        1.56210       -2.76340
C         -1.12260        2.89440       -3.48860
C         -2.54650        0.33950       -0.04600
C         -2.34330       -0.47120        1.23360
C         -8.19030        1.04510        2.84020
C         -9.36320        1.68660        3.15890
C         -9.62370        3.06040        3.05360
N         -9.79850        4.18200        2.88810
C        -10.35570        0.67820        3.45270
C        -11.65310        0.85640        3.84720
C        -12.48790       -0.25360        4.08950
N        -13.17090       -1.15470        4.28160
C        -12.22100        2.12650        4.05550
N        -12.72300        3.13760        4.25870
O         -9.82630       -0.54350        3.30380
C         -8.46910       -0.44610        2.85140
C         -7.57020       -1.17990        3.84790
C         -8.41320       -1.09800        1.46550
H          5.60190        2.13320       -3.14180
H          4.70150       -3.77170       -1.43640
H          8.82280       -2.23420       -3.95020
H          8.84770       -5.65120       -3.57020
H         10.67710       -5.13690       -1.96230
H          9.81650       -3.18790       -0.44660
H          7.66550       -4.03690        0.85930
H          7.19940       -6.51080        0.14750
H          9.19560       -7.32870       -1.46220
H          9.84210       -6.64320        0.04960
H          6.75340       -6.46990       -2.30280
H         -7.76730        2.98970        4.69470
H         -7.37890        4.47340        3.83560
H         -5.21070        4.63360        4.98740
H         -5.42540        3.03020        5.69760
H         -6.47590        4.36470        6.17980
H          2.94650       -0.30040       -4.11160
H          1.24250       -0.32080       -3.69180
H          2.66370        1.74470       -5.45990
H          1.62740        0.44010       -6.04040
H          0.93580        1.76870       -5.11030
H         -0.56360        0.80050       -3.45370
H         -1.88590        1.24370       -2.36180
H         -0.17200        3.28820       -3.84150
H         -1.78580        2.76010       -4.33890
H         -1.56350        3.62610       -2.81470
H         -3.50810        0.08450       -0.50290
H         -1.73750        0.09770       -0.73290
H         -3.14950       -0.29670        1.94070
H         -1.40100       -0.19730        1.70310
H         -2.31730       -1.53000        0.99250
H         -7.86740       -2.22350        3.89950
H         -6.53340       -1.11530        3.53040
H         -7.66880       -0.73940        4.83810
H         -8.90020       -2.06820        1.52630
H         -7.38770       -1.23590        1.13950
H         -8.94340       -0.48720        0.73780
