
  xtb     02022216383D
 energy: -201.802090955668 gnorm: 0.000407262001 xtb: 6.4.1 (unknown)
124139  0     0  0            999 V2000
    3.4203    3.4448   -4.9110 C   0  0  0  0  0  0  0  0  0  0  0  0
    3.4896    3.0498   -6.2243 C   0  0  0  0  0  0  0  0  0  0  0  0
    2.8877    1.8499   -6.8173 C   0  0  0  0  0  0  0  0  0  0  0  0
    2.2748    0.9641   -6.2495 O   0  0  0  0  0  0  0  0  0  0  0  0
    3.1646    1.9200   -8.2637 C   0  0  0  0  0  0  0  0  0  0  0  0
    2.7551    1.0142   -9.2382 C   0  0  0  0  0  0  0  0  0  0  0  0
    3.1461    1.3497  -10.5123 C   0  0  0  0  0  0  0  0  0  0  0  0
    3.8856    2.5051  -10.7954 C   0  0  0  0  0  0  0  0  0  0  0  0
    4.2955    3.4068   -9.8421 C   0  0  0  0  0  0  0  0  0  0  0  0
    3.9136    3.0812   -8.5376 C   0  0  0  0  0  0  0  0  0  0  0  0
    4.1541    3.7875   -7.2795 C   0  0  0  0  0  0  0  0  0  0  0  0
    4.8985    4.9351   -7.1534 C   0  0  0  0  0  0  0  0  0  0  0  0
    5.5359    5.5982   -8.2224 C   0  0  0  0  0  0  0  0  0  0  0  0
    6.0874    6.1968   -9.0328 N   0  0  0  0  0  0  0  0  0  0  0  0
    5.1641    5.6265   -5.9545 C   0  0  0  0  0  0  0  0  0  0  0  0
    5.4380    6.2548   -5.0310 N   0  0  0  0  0  0  0  0  0  0  0  0
    3.9244    2.2148  -12.2749 C   0  0  0  0  0  0  0  0  0  0  0  0
    5.2391    1.6487  -12.8655 C   0  0  0  0  0  0  0  0  0  0  0  0
    5.9366    0.9238  -11.7414 C   0  0  0  0  0  0  0  0  0  0  0  0
    5.2394   -0.1718  -11.4721 C   0  0  0  0  0  0  0  0  0  0  0  0
    4.0579   -0.2077  -12.4096 C   0  0  0  0  0  0  0  0  0  0  0  0
    4.6773    0.4531  -13.6514 C   0  0  0  0  0  0  0  0  0  0  0  0
    3.1028    0.9253  -11.9590 C   0  0  0  0  0  0  0  0  0  0  0  0
    2.8059    2.8611   -3.7958 C   0  0  0  0  0  0  0  0  0  0  0  0
    2.8296    3.4574   -2.5160 C   0  0  0  0  0  0  0  0  0  0  0  0
    3.4945    4.7714   -2.2316 C   0  0  0  0  0  0  0  0  0  0  0  0
    5.0038    4.6179   -2.0154 C   0  0  0  0  0  0  0  0  0  0  0  0
    2.1406    2.6697   -1.5961 C   0  0  0  0  0  0  0  0  0  0  0  0
    1.5774    1.5156   -2.1677 C   0  0  0  0  0  0  0  0  0  0  0  0
    1.9063    1.3420   -3.8341 S   0  0  0  0  0  0  0  0  0  0  0  0
    0.8723    0.8452   -1.1571 C   0  0  0  0  0  0  0  0  0  0  0  0
    0.2067   -0.3956   -1.1372 C   0  0  0  0  0  0  0  0  0  0  0  0
    0.0131   -1.3370   -2.0628 N   0  0  0  0  0  0  0  0  0  0  0  0
   -0.6333   -2.2801   -1.4259 N   0  0  0  0  0  0  0  0  0  0  0  0
   -0.9972   -3.5095   -2.0683 C   0  0  0  0  0  0  0  0  0  0  0  0
    0.1204   -4.5389   -1.9280 C   0  0  0  0  0  0  0  0  0  0  0  0
   -0.8945   -2.0634   -0.1610 N   0  0  0  0  0  0  0  0  0  0  0  0
   -0.3730   -0.8584    0.0748 C   0  0  0  0  0  0  0  0  0  0  0  0
   -0.3998   -0.0068    1.1968 C   0  0  0  0  0  0  0  0  0  0  0  0
   -1.0834   -0.0933    2.4133 C   0  0  0  0  0  0  0  0  0  0  0  0
   -2.0491   -1.2265    3.2499 S   0  0  0  0  0  0  0  0  0  0  0  0
   -2.3408   -0.0174    4.5007 C   0  0  0  0  0  0  0  0  0  0  0  0
   -1.7010    1.2169    4.2470 C   0  0  0  0  0  0  0  0  0  0  0  0
   -1.9477    2.4291    5.0942 C   0  0  0  0  0  0  0  0  0  0  0  0
   -3.2729    3.0934    4.7050 C   0  0  0  0  0  0  0  0  0  0  0  0
   -0.9537    1.1481    3.0684 C   0  0  0  0  0  0  0  0  0  0  0  0
   -0.1416    1.9645    2.3061 N   0  0  0  0  0  0  0  0  0  0  0  0
    0.0759    3.3605    2.5917 C   0  0  0  0  0  0  0  0  0  0  0  0
    1.1378    3.5757    3.6737 C   0  0  0  0  0  0  0  0  0  0  0  0
    0.2146    1.2776    1.1565 C   0  0  0  0  0  0  0  0  0  0  0  0
    0.9710    1.6422    0.0150 C   0  0  0  0  0  0  0  0  0  0  0  0
    1.7989    2.7421   -0.2511 N   0  0  0  0  0  0  0  0  0  0  0  0
    2.7925    3.2294    0.6929 C   0  0  0  0  0  0  0  0  0  0  0  0
    3.5729    2.0799    1.3288 C   0  0  0  0  0  0  0  0  0  0  0  0
   -3.1239   -0.2420    5.6399 C   0  0  0  0  0  0  0  0  0  0  0  0
   -3.7925   -1.3558    6.0854 C   0  0  0  0  0  0  0  0  0  0  0  0
   -3.8528   -2.6710    5.4374 C   0  0  0  0  0  0  0  0  0  0  0  0
   -3.3551   -3.0058    4.3780 O   0  0  0  0  0  0  0  0  0  0  0  0
   -4.6424   -3.5366    6.3331 C   0  0  0  0  0  0  0  0  0  0  0  0
   -4.9455   -4.8825    6.1416 C   0  0  0  0  0  0  0  0  0  0  0  0
   -5.6901   -5.4368    7.1550 C   0  0  0  0  0  0  0  0  0  0  0  0
   -6.1077   -4.7035    8.2731 C   0  0  0  0  0  0  0  0  0  0  0  0
   -5.8193   -3.3741    8.4711 C   0  0  0  0  0  0  0  0  0  0  0  0
   -5.0560   -2.7915    7.4544 C   0  0  0  0  0  0  0  0  0  0  0  0
   -4.5463   -1.4269    7.3205 C   0  0  0  0  0  0  0  0  0  0  0  0
   -4.7611   -0.4161    8.2261 C   0  0  0  0  0  0  0  0  0  0  0  0
   -5.5095   -0.5498    9.4136 C   0  0  0  0  0  0  0  0  0  0  0  0
   -6.1021   -0.5719   10.3975 N   0  0  0  0  0  0  0  0  0  0  0  0
   -4.2806    0.9052    8.1288 C   0  0  0  0  0  0  0  0  0  0  0  0
   -3.9322    2.0014    8.1399 N   0  0  0  0  0  0  0  0  0  0  0  0
   -6.8028   -5.8905    8.8927 C   0  0  0  0  0  0  0  0  0  0  0  0
   -6.0666   -6.5885   10.0557 C   0  0  0  0  0  0  0  0  0  0  0  0
   -6.7176   -7.9507   10.1307 C   0  0  0  0  0  0  0  0  0  0  0  0
   -6.3213   -8.6460    9.0723 C   0  0  0  0  0  0  0  0  0  0  0  0
   -5.3957   -7.7653    8.2643 C   0  0  0  0  0  0  0  0  0  0  0  0
   -4.7345   -6.9689    9.3966 C   0  0  0  0  0  0  0  0  0  0  0  0
   -6.3361   -6.7088    7.6462 C   0  0  0  0  0  0  0  0  0  0  0  0
    3.9164    4.3794   -4.6900 H   0  0  0  0  0  0  0  0  0  0  0  0
    2.1802    0.1402   -8.9744 H   0  0  0  0  0  0  0  0  0  0  0  0
    4.8594    4.2928  -10.0807 H   0  0  0  0  0  0  0  0  0  0  0  0
    3.4688    2.9640  -12.9194 H   0  0  0  0  0  0  0  0  0  0  0  0
    5.8363    2.3727  -13.4132 H   0  0  0  0  0  0  0  0  0  0  0  0
    6.8055    1.3007  -11.2344 H   0  0  0  0  0  0  0  0  0  0  0  0
    5.4092   -0.8936  -10.6947 H   0  0  0  0  0  0  0  0  0  0  0  0
    3.5799   -1.1748  -12.5430 H   0  0  0  0  0  0  0  0  0  0  0  0
    5.4568   -0.1551  -14.1079 H   0  0  0  0  0  0  0  0  0  0  0  0
    3.9427    0.7357  -14.4044 H   0  0  0  0  0  0  0  0  0  0  0  0
    2.1119    0.8317  -12.3996 H   0  0  0  0  0  0  0  0  0  0  0  0
    3.0339    5.2239   -1.3513 H   0  0  0  0  0  0  0  0  0  0  0  0
    3.3313    5.4610   -3.0614 H   0  0  0  0  0  0  0  0  0  0  0  0
    5.2209    3.9223   -1.2068 H   0  0  0  0  0  0  0  0  0  0  0  0
    5.4424    5.5826   -1.7754 H   0  0  0  0  0  0  0  0  0  0  0  0
    5.4812    4.2448   -2.9173 H   0  0  0  0  0  0  0  0  0  0  0  0
   -1.1814   -3.2868   -3.1210 H   0  0  0  0  0  0  0  0  0  0  0  0
   -1.9103   -3.8697   -1.5908 H   0  0  0  0  0  0  0  0  0  0  0  0
    1.0318   -4.1657   -2.3884 H   0  0  0  0  0  0  0  0  0  0  0  0
    0.3117   -4.7412   -0.8770 H   0  0  0  0  0  0  0  0  0  0  0  0
   -0.1668   -5.4652   -2.4174 H   0  0  0  0  0  0  0  0  0  0  0  0
   -1.1458    3.1525    4.9748 H   0  0  0  0  0  0  0  0  0  0  0  0
   -1.9822    2.1640    6.1519 H   0  0  0  0  0  0  0  0  0  0  0  0
   -3.4432    3.9696    5.3247 H   0  0  0  0  0  0  0  0  0  0  0  0
   -4.1030    2.4066    4.8476 H   0  0  0  0  0  0  0  0  0  0  0  0
   -3.2599    3.3979    3.6598 H   0  0  0  0  0  0  0  0  0  0  0  0
    0.3485    3.8596    1.6605 H   0  0  0  0  0  0  0  0  0  0  0  0
   -0.8728    3.7945    2.9221 H   0  0  0  0  0  0  0  0  0  0  0  0
    1.2944    4.6401    3.8308 H   0  0  0  0  0  0  0  0  0  0  0  0
    0.8247    3.1302    4.6141 H   0  0  0  0  0  0  0  0  0  0  0  0
    2.0824    3.1152    3.4019 H   0  0  0  0  0  0  0  0  0  0  0  0
    2.3340    3.8522    1.4582 H   0  0  0  0  0  0  0  0  0  0  0  0
    3.4853    3.8553    0.1362 H   0  0  0  0  0  0  0  0  0  0  0  0
    2.9161    1.4274    1.8998 H   0  0  0  0  0  0  0  0  0  0  0  0
    4.3406    2.4741    1.9902 H   0  0  0  0  0  0  0  0  0  0  0  0
    4.0536    1.4833    0.5561 H   0  0  0  0  0  0  0  0  0  0  0  0
   -3.2013    0.6182    6.2888 H   0  0  0  0  0  0  0  0  0  0  0  0
   -4.6055   -5.4061    5.2619 H   0  0  0  0  0  0  0  0  0  0  0  0
   -6.1519   -2.8270    9.3369 H   0  0  0  0  0  0  0  0  0  0  0  0
   -7.8703   -5.7766    9.0716 H   0  0  0  0  0  0  0  0  0  0  0  0
   -6.0243   -6.0143   10.9773 H   0  0  0  0  0  0  0  0  0  0  0  0
   -7.4200   -8.2390   10.8907 H   0  0  0  0  0  0  0  0  0  0  0  0
   -6.6267   -9.6311    8.7716 H   0  0  0  0  0  0  0  0  0  0  0  0
   -4.7415   -8.2644    7.5543 H   0  0  0  0  0  0  0  0  0  0  0  0
   -4.1482   -6.1172    9.0566 H   0  0  0  0  0  0  0  0  0  0  0  0
   -4.1222   -7.5989   10.0399 H   0  0  0  0  0  0  0  0  0  0  0  0
   -7.0926   -7.1417    6.9941 H   0  0  0  0  0  0  0  0  0  0  0  0
  1  2  2  0  0  0  0
  2  3  1  0  0  0  0
  3  4  2  0  0  0  0
  3  5  1  0  0  0  0
  5  6  2  0  0  0  0
  6  7  1  0  0  0  0
  7  8  2  0  0  0  0
  8  9  1  0  0  0  0
  9 10  2  0  0  0  0
 10 11  1  0  0  0  0
 11 12  2  0  0  0  0
 12 13  1  0  0  0  0
 13 14  3  0  0  0  0
 12 15  1  0  0  0  0
 15 16  3  0  0  0  0
  8 17  1  0  0  0  0
 17 18  1  0  0  0  0
 18 19  1  0  0  0  0
 19 20  2  0  0  0  0
 20 21  1  0  0  0  0
 21 22  1  0  0  0  0
 21 23  1  0  0  0  0
  1 24  1  0  0  0  0
 24 25  2  0  0  0  0
 25 26  1  0  0  0  0
 26 27  1  0  0  0  0
 25 28  1  0  0  0  0
 28 29  2  0  0  0  0
 29 30  1  0  0  0  0
 29 31  1  0  0  0  0
 31 32  1  0  0  0  0
 32 33  2  0  0  0  0
 33 34  1  0  0  0  0
 34 35  1  0  0  0  0
 35 36  1  0  0  0  0
 34 37  1  0  0  0  0
 37 38  2  0  0  0  0
 38 39  1  0  0  0  0
 39 40  1  0  0  0  0
 40 41  1  0  0  0  0
 41 42  1  0  0  0  0
 42 43  2  0  0  0  0
 43 44  1  0  0  0  0
 44 45  1  0  0  0  0
 43 46  1  0  0  0  0
 46 47  1  0  0  0  0
 47 48  1  0  0  0  0
 48 49  1  0  0  0  0
 47 50  1  0  0  0  0
 50 51  1  0  0  0  0
 51 52  1  0  0  0  0
 52 53  1  0  0  0  0
 53 54  1  0  0  0  0
 42 55  1  0  0  0  0
 55 56  2  0  0  0  0
 56 57  1  0  0  0  0
 57 58  2  0  0  0  0
 57 59  1  0  0  0  0
 59 60  2  0  0  0  0
 60 61  1  0  0  0  0
 61 62  2  0  0  0  0
 62 63  1  0  0  0  0
 63 64  2  0  0  0  0
 64 65  1  0  0  0  0
 65 66  2  0  0  0  0
 66 67  1  0  0  0  0
 67 68  3  0  0  0  0
 66 69  1  0  0  0  0
 69 70  3  0  0  0  0
 62 71  1  0  0  0  0
 71 72  1  0  0  0  0
 72 73  1  0  0  0  0
 73 74  2  0  0  0  0
 74 75  1  0  0  0  0
 75 76  1  0  0  0  0
 75 77  1  0  0  0  0
 11  2  1  0  0  0  0
 23 17  1  0  0  0  0
 30 24  1  0  0  0  0
 51 31  2  0  0  0  0
 65 56  1  0  0  0  0
 77 71  1  0  0  0  0
 10  5  1  0  0  0  0
 22 18  1  0  0  0  0
 52 28  1  0  0  0  0
 64 59  1  0  0  0  0
 76 72  1  0  0  0  0
 23  7  1  0  0  0  0
 38 32  1  0  0  0  0
 50 39  2  0  0  0  0
 77 61  1  0  0  0  0
 46 40  2  0  0  0  0
  1 78  1  0  0  0  0
  6 79  1  0  0  0  0
  9 80  1  0  0  0  0
 17 81  1  0  0  0  0
 18 82  1  0  0  0  0
 19 83  1  0  0  0  0
 20 84  1  0  0  0  0
 21 85  1  0  0  0  0
 22 86  1  0  0  0  0
 22 87  1  0  0  0  0
 23 88  1  0  0  0  0
 26 89  1  0  0  0  0
 26 90  1  0  0  0  0
 27 91  1  0  0  0  0
 27 92  1  0  0  0  0
 27 93  1  0  0  0  0
 35 94  1  0  0  0  0
 35 95  1  0  0  0  0
 36 96  1  0  0  0  0
 36 97  1  0  0  0  0
 36 98  1  0  0  0  0
 44 99  1  0  0  0  0
 44100  1  0  0  0  0
 45101  1  0  0  0  0
 45102  1  0  0  0  0
 45103  1  0  0  0  0
 48104  1  0  0  0  0
 48105  1  0  0  0  0
 49106  1  0  0  0  0
 49107  1  0  0  0  0
 49108  1  0  0  0  0
 53109  1  0  0  0  0
 53110  1  0  0  0  0
 54111  1  0  0  0  0
 54112  1  0  0  0  0
 54113  1  0  0  0  0
 55114  1  0  0  0  0
 60115  1  0  0  0  0
 63116  1  0  0  0  0
 71117  1  0  0  0  0
 72118  1  0  0  0  0
 73119  1  0  0  0  0
 74120  1  0  0  0  0
 75121  1  0  0  0  0
 76122  1  0  0  0  0
 76123  1  0  0  0  0
 77124  1  0  0  0  0
M  END
