114

C         -2.21470        5.66240        0.18460
C         -1.36080        6.68130        0.53030
C          0.06760        6.62480        0.90020
O          0.82740        5.67450        0.89310
C          0.43700        7.99360        1.30940
C          1.68100        8.41120        1.77500
C          1.73820        9.74530        2.09800
C          0.63770       10.60170        1.96380
C         -0.59300       10.20240        1.49960
C         -0.67310        8.84660        1.16800
C         -1.79320        8.06250        0.65190
C         -3.01820        8.58470        0.31240
C         -3.37470        9.94250        0.44850
N         -3.75130       11.02470        0.52890
C         -4.10680        7.88090       -0.24120
N         -5.04260        7.39640       -0.70300
C          1.40090       11.79380        2.48490
C          1.13300       12.23920        3.94370
C          0.67250       11.01160        4.68950
C          1.71410       10.20040        4.81680
C          2.89810       10.86490        4.15900
C          2.57920       12.33910        4.45460
C          2.62720       10.83920        2.63430
C         -2.01900        4.28660       -0.00590
C         -0.84100        3.51110        0.02470
C         -1.22910        2.21610       -0.25570
C         -2.63170        2.20760       -0.43800
N         -3.10410        3.46020       -0.30410
C         -4.50260        3.81550       -0.36200
C         -5.10890        3.93640        1.03440
C         -3.01640        0.86910       -0.64160
C         -4.27360        0.22610       -0.70470
C         -4.33340       -1.21150       -0.68400
N         -5.57540       -1.66610       -0.65930
S         -6.59030       -0.40720       -0.67420
N         -5.47980        0.77510       -0.70840
C         -3.13040       -1.94920       -0.75340
C         -2.85740       -3.32200       -0.84450
S         -3.69700       -4.83370       -0.78560
C         -2.16680       -5.66050       -1.02080
C         -1.82850       -7.00330       -1.09660
C         -2.82880       -8.10000       -0.93010
C         -2.87720       -8.57210        0.52580
C         -0.44200       -7.17330       -1.27600
S          0.41280       -5.63000       -1.36640
C         -1.07180       -4.78680       -1.14730
C         -1.47470       -3.45540       -1.03960
N         -0.88090       -2.21930       -1.05480
C         -1.87390       -1.28450       -0.84200
C         -1.80940        0.11000       -0.62690
N         -0.73130        0.93900       -0.37600
C          0.54380        0.60260        0.22360
C          1.71800        1.15990       -0.57800
C          0.37120       -2.02420       -1.75530
C          0.25060       -2.43080       -3.22350
C          0.16480       -8.42920       -1.34750
C          1.48630       -8.78650       -1.48390
C          2.61950       -7.87090       -1.62280
O          2.59560       -6.65330       -1.66950
C          3.82340       -8.72100       -1.71600
C          5.13730       -8.32270       -1.85060
C          6.10350       -9.32200       -1.92070
O          7.44840       -9.06860       -2.10400
C          8.06140       -7.98760       -1.57080
O          7.52940       -7.18580       -0.85810
C          9.50560       -7.97300       -1.98690
C          5.74090      -10.66700       -1.86840
C          4.41780      -11.05410       -1.73630
C          3.44230      -10.07120       -1.65480
C          1.98820      -10.14510       -1.51300
C          1.26440      -11.30800       -1.42710
C          1.83470      -12.59750       -1.46510
N          2.22980      -13.67530       -1.48890
C         -0.13580      -11.40310       -1.29220
N         -1.26790      -11.56900       -1.18180
H         -3.24020        5.97010        0.04000
H          2.50140        7.71590        1.86110
H         -1.42720       10.87660        1.40430
H          1.49130       12.63760        1.80370
H          0.50580       13.12150        4.03820
H         -0.34510       10.83870        4.98750
H          1.74060        9.21410        5.24220
H          3.87850       10.49650        4.45020
H          3.19250       13.03790        3.88720
H          2.63570       12.57780        5.51570
H          3.51900       11.06030        2.05080
H          0.13300        3.90080        0.23260
H         -5.01290        3.01350       -0.90010
H         -4.63140        4.75010       -0.91420
H         -4.58650        4.68420        1.62680
H         -6.15190        4.22600        0.95150
H         -5.05150        2.98010        1.54870
H         -2.59770       -8.94640       -1.57810
H         -3.80990       -7.71170       -1.21070
H         -3.14590       -7.74740        1.18180
H         -1.91120       -8.96300        0.83620
H         -3.61700       -9.36000        0.63270
H          0.56880        1.04550        1.22690
H          0.61400       -0.47930        0.33910
H          1.69260        2.24540       -0.57300
H          1.69310        0.82740       -1.61330
H          2.65230        0.83270       -0.13050
H          0.63930       -0.97340       -1.71030
H          1.14370       -2.62660       -1.26780
H          0.04370       -3.49270       -3.31920
H          1.18460       -2.21710       -3.73510
H         -0.54920       -1.87170       -3.70530
H         -0.53750       -9.24760       -1.26780
H          5.38800       -7.27530       -1.89180
H          9.57570       -8.03360       -3.07000
H          9.97850       -7.06440       -1.62780
H         10.00930       -8.84040       -1.56640
H          6.52000      -11.41020       -1.93560
H          4.17310      -12.10260       -1.69720
