
  xtb     02112205553D
 energy: -189.031455897546 gnorm: 0.000509157056 xtb: 6.4.1 (unknown)
107120  0     0  0            999 V2000
   -3.2680   -4.5208    1.0902 C   0  0  0  0  0  0  0  0  0  0  0  0
   -3.5614   -5.6569    0.3812 C   0  0  0  0  0  0  0  0  0  0  0  0
   -2.7617   -6.2542   -0.6957 C   0  0  0  0  0  0  0  0  0  0  0  0
   -1.6785   -5.8848   -1.1107 O   0  0  0  0  0  0  0  0  0  0  0  0
   -3.5313   -7.4090   -1.1897 C   0  0  0  0  0  0  0  0  0  0  0  0
   -3.1769   -8.2651   -2.2286 C   0  0  0  0  0  0  0  0  0  0  0  0
   -4.1048   -9.2458   -2.4844 C   0  0  0  0  0  0  0  0  0  0  0  0
   -5.2969   -9.3664   -1.7582 C   0  0  0  0  0  0  0  0  0  0  0  0
   -5.6531   -8.5333   -0.7241 C   0  0  0  0  0  0  0  0  0  0  0  0
   -4.7234   -7.5266   -0.4475 C   0  0  0  0  0  0  0  0  0  0  0  0
   -4.7535   -6.4640    0.5566 C   0  0  0  0  0  0  0  0  0  0  0  0
   -5.7370   -6.2969    1.5000 C   0  0  0  0  0  0  0  0  0  0  0  0
   -5.7731   -5.2951    2.4911 C   0  0  0  0  0  0  0  0  0  0  0  0
   -5.8855   -4.5189    3.3323 N   0  0  0  0  0  0  0  0  0  0  0  0
   -6.8707   -7.1259    1.6305 C   0  0  0  0  0  0  0  0  0  0  0  0
   -7.8196   -7.7491    1.8045 N   0  0  0  0  0  0  0  0  0  0  0  0
   -5.7625  -10.5512   -2.5670 C   0  0  0  0  0  0  0  0  0  0  0  0
   -6.8437  -10.3045   -3.6485 C   0  0  0  0  0  0  0  0  0  0  0  0
   -6.7035   -8.8647   -4.0762 C   0  0  0  0  0  0  0  0  0  0  0  0
   -5.5734   -8.7538   -4.7615 C   0  0  0  0  0  0  0  0  0  0  0  0
   -4.9285  -10.1169   -4.8090 C   0  0  0  0  0  0  0  0  0  0  0  0
   -6.1806  -11.0076   -4.8438 C   0  0  0  0  0  0  0  0  0  0  0  0
   -4.4321  -10.4189   -3.3733 C   0  0  0  0  0  0  0  0  0  0  0  0
   -2.1810   -3.6377    1.0222 C   0  0  0  0  0  0  0  0  0  0  0  0
   -0.8042   -3.8315   -0.0676 S   0  0  0  0  0  0  0  0  0  0  0  0
   -0.1416   -2.3797    0.5386 C   0  0  0  0  0  0  0  0  0  0  0  0
    0.9698   -1.5489    0.3119 C   0  0  0  0  0  0  0  0  0  0  0  0
    2.1181   -1.6879   -0.4996 C   0  0  0  0  0  0  0  0  0  0  0  0
    3.1143   -0.6512   -0.4811 C   0  0  0  0  0  0  0  0  0  0  0  0
    4.1552   -0.9372   -1.2471 N   0  0  0  0  0  0  0  0  0  0  0  0
    3.9045   -2.3809   -1.9353 S   0  0  0  0  0  0  0  0  0  0  0  0
    2.4590   -2.6967   -1.2850 N   0  0  0  0  0  0  0  0  0  0  0  0
    2.8539    0.5369    0.2393 C   0  0  0  0  0  0  0  0  0  0  0  0
    3.4948    1.7833    0.2526 C   0  0  0  0  0  0  0  0  0  0  0  0
    4.8965    2.5286   -0.4240 S   0  0  0  0  0  0  0  0  0  0  0  0
    4.3687    4.0667    0.2213 C   0  0  0  0  0  0  0  0  0  0  0  0
    4.8738    5.3673    0.0965 C   0  0  0  0  0  0  0  0  0  0  0  0
    6.1981    5.6996   -0.5025 C   0  0  0  0  0  0  0  0  0  0  0  0
    7.3212    4.8168    0.0389 C   0  0  0  0  0  0  0  0  0  0  0  0
    4.0329    6.2881    0.7158 C   0  0  0  0  0  0  0  0  0  0  0  0
    2.6743    5.5128    1.5334 S   0  0  0  0  0  0  0  0  0  0  0  0
    3.1696    3.9715    0.9461 C   0  0  0  0  0  0  0  0  0  0  0  0
    2.6764    2.6641    0.9749 C   0  0  0  0  0  0  0  0  0  0  0  0
    1.5755    1.9950    1.4447 N   0  0  0  0  0  0  0  0  0  0  0  0
    1.6680    0.6858    1.0110 C   0  0  0  0  0  0  0  0  0  0  0  0
    0.8006   -0.4206    1.1518 C   0  0  0  0  0  0  0  0  0  0  0  0
   -0.3325   -0.5873    1.9362 N   0  0  0  0  0  0  0  0  0  0  0  0
   -0.9288   -1.7751    1.5363 C   0  0  0  0  0  0  0  0  0  0  0  0
   -2.0973   -2.4788    1.8214 C   0  0  0  0  0  0  0  0  0  0  0  0
   -3.1893   -2.0179    2.7381 C   0  0  0  0  0  0  0  0  0  0  0  0
   -4.2474   -1.2344    1.9552 C   0  0  0  0  0  0  0  0  0  0  0  0
   -0.3885   -0.1333    3.3120 C   0  0  0  0  0  0  0  0  0  0  0  0
    0.0005   -1.2440    4.2879 C   0  0  0  0  0  0  0  0  0  0  0  0
    0.4076    2.7130    1.9105 C   0  0  0  0  0  0  0  0  0  0  0  0
    0.5994    3.3065    3.3047 C   0  0  0  0  0  0  0  0  0  0  0  0
    4.1131    7.6900    0.8215 C   0  0  0  0  0  0  0  0  0  0  0  0
    4.5783    8.5517   -0.1377 C   0  0  0  0  0  0  0  0  0  0  0  0
    4.6467    8.2337   -1.5800 C   0  0  0  0  0  0  0  0  0  0  0  0
    4.4613    7.1646   -2.1214 O   0  0  0  0  0  0  0  0  0  0  0  0
    4.8687    9.5335   -2.2541 C   0  0  0  0  0  0  0  0  0  0  0  0
    4.9738    9.7846   -3.6067 C   0  0  0  0  0  0  0  0  0  0  0  0
    5.1717   11.1048   -3.9835 C   0  0  0  0  0  0  0  0  0  0  0  0
    5.2857   11.3978   -5.2898 F   0  0  0  0  0  0  0  0  0  0  0  0
    5.2555   12.1374   -3.0615 C   0  0  0  0  0  0  0  0  0  0  0  0
    5.1439   11.8712   -1.7050 C   0  0  0  0  0  0  0  0  0  0  0  0
    4.9501   10.5596   -1.2967 C   0  0  0  0  0  0  0  0  0  0  0  0
    4.8012    9.9713    0.0318 C   0  0  0  0  0  0  0  0  0  0  0  0
    4.9389   10.6292    1.2263 C   0  0  0  0  0  0  0  0  0  0  0  0
    4.9012   10.0002    2.4886 C   0  0  0  0  0  0  0  0  0  0  0  0
    4.9047    9.5466    3.5436 N   0  0  0  0  0  0  0  0  0  0  0  0
    5.1730   12.0144    1.3444 C   0  0  0  0  0  0  0  0  0  0  0  0
    5.3525   13.1374    1.5011 N   0  0  0  0  0  0  0  0  0  0  0  0
   -4.0066   -4.2367    1.8263 H   0  0  0  0  0  0  0  0  0  0  0  0
   -2.2486   -8.1333   -2.7621 H   0  0  0  0  0  0  0  0  0  0  0  0
   -6.5735   -8.6428   -0.1755 H   0  0  0  0  0  0  0  0  0  0  0  0
   -5.9342  -11.4712   -2.0119 H   0  0  0  0  0  0  0  0  0  0  0  0
   -7.8431  -10.6267   -3.3688 H   0  0  0  0  0  0  0  0  0  0  0  0
   -7.3904   -8.0874   -3.7964 H   0  0  0  0  0  0  0  0  0  0  0  0
   -5.1269   -7.8653   -5.1683 H   0  0  0  0  0  0  0  0  0  0  0  0
   -4.1838  -10.2690   -5.5858 H   0  0  0  0  0  0  0  0  0  0  0  0
   -5.9689  -12.0609   -4.6649 H   0  0  0  0  0  0  0  0  0  0  0  0
   -6.7498  -10.8981   -5.7657 H   0  0  0  0  0  0  0  0  0  0  0  0
   -3.7325  -11.2520   -3.3422 H   0  0  0  0  0  0  0  0  0  0  0  0
    6.4314    6.7458   -0.2969 H   0  0  0  0  0  0  0  0  0  0  0  0
    6.1257    5.5837   -1.5876 H   0  0  0  0  0  0  0  0  0  0  0  0
    7.3695    4.8867    1.1235 H   0  0  0  0  0  0  0  0  0  0  0  0
    8.2721    5.1483   -0.3702 H   0  0  0  0  0  0  0  0  0  0  0  0
    7.1750    3.7768   -0.2375 H   0  0  0  0  0  0  0  0  0  0  0  0
   -3.6656   -2.8627    3.2374 H   0  0  0  0  0  0  0  0  0  0  0  0
   -2.7780   -1.3735    3.5134 H   0  0  0  0  0  0  0  0  0  0  0  0
   -5.0333   -0.8990    2.6267 H   0  0  0  0  0  0  0  0  0  0  0  0
   -3.8011   -0.3665    1.4739 H   0  0  0  0  0  0  0  0  0  0  0  0
   -4.6949   -1.8595    1.1866 H   0  0  0  0  0  0  0  0  0  0  0  0
    0.3265    0.6769    3.4254 H   0  0  0  0  0  0  0  0  0  0  0  0
   -1.3912    0.2433    3.5361 H   0  0  0  0  0  0  0  0  0  0  0  0
   -0.6753   -2.0916    4.2163 H   0  0  0  0  0  0  0  0  0  0  0  0
    1.0089   -1.5914    4.0725 H   0  0  0  0  0  0  0  0  0  0  0  0
   -0.0263   -0.8620    5.3051 H   0  0  0  0  0  0  0  0  0  0  0  0
    0.2184    3.5337    1.2087 H   0  0  0  0  0  0  0  0  0  0  0  0
   -0.4506    2.0415    1.8783 H   0  0  0  0  0  0  0  0  0  0  0  0
    0.8511    2.5460    4.0398 H   0  0  0  0  0  0  0  0  0  0  0  0
   -0.3171    3.7993    3.6157 H   0  0  0  0  0  0  0  0  0  0  0  0
    1.3975    4.0433    3.2954 H   0  0  0  0  0  0  0  0  0  0  0  0
    3.6921    8.1120    1.7271 H   0  0  0  0  0  0  0  0  0  0  0  0
    4.9078    8.9928   -4.3356 H   0  0  0  0  0  0  0  0  0  0  0  0
    5.4054   13.1456   -3.4141 H   0  0  0  0  0  0  0  0  0  0  0  0
    5.2027   12.6806   -0.9960 H   0  0  0  0  0  0  0  0  0  0  0  0
  1  2  2  0  0  0  0
  2  3  1  0  0  0  0
  3  4  2  0  0  0  0
  3  5  1  0  0  0  0
  5  6  2  0  0  0  0
  6  7  1  0  0  0  0
  7  8  2  0  0  0  0
  8  9  1  0  0  0  0
  9 10  2  0  0  0  0
 10 11  1  0  0  0  0
 11 12  2  0  0  0  0
 12 13  1  0  0  0  0
 13 14  3  0  0  0  0
 12 15  1  0  0  0  0
 15 16  3  0  0  0  0
  8 17  1  0  0  0  0
 17 18  1  0  0  0  0
 18 19  1  0  0  0  0
 19 20  2  0  0  0  0
 20 21  1  0  0  0  0
 21 22  1  0  0  0  0
 21 23  1  0  0  0  0
  1 24  1  0  0  0  0
 24 25  1  0  0  0  0
 25 26  1  0  0  0  0
 26 27  1  0  0  0  0
 27 28  1  0  0  0  0
 28 29  1  0  0  0  0
 29 30  2  0  0  0  0
 30 31  1  0  0  0  0
 31 32  1  0  0  0  0
 29 33  1  0  0  0  0
 33 34  1  0  0  0  0
 34 35  1  0  0  0  0
 35 36  1  0  0  0  0
 36 37  1  0  0  0  0
 37 38  1  0  0  0  0
 38 39  1  0  0  0  0
 37 40  2  0  0  0  0
 40 41  1  0  0  0  0
 41 42  1  0  0  0  0
 42 43  1  0  0  0  0
 43 44  1  0  0  0  0
 44 45  1  0  0  0  0
 45 46  1  0  0  0  0
 46 47  1  0  0  0  0
 47 48  1  0  0  0  0
 48 49  1  0  0  0  0
 49 50  1  0  0  0  0
 50 51  1  0  0  0  0
 47 52  1  0  0  0  0
 52 53  1  0  0  0  0
 44 54  1  0  0  0  0
 54 55  1  0  0  0  0
 40 56  1  0  0  0  0
 56 57  2  0  0  0  0
 57 58  1  0  0  0  0
 58 59  2  0  0  0  0
 58 60  1  0  0  0  0
 60 61  2  0  0  0  0
 61 62  1  0  0  0  0
 62 63  1  0  0  0  0
 62 64  2  0  0  0  0
 64 65  1  0  0  0  0
 65 66  2  0  0  0  0
 66 67  1  0  0  0  0
 67 68  2  0  0  0  0
 68 69  1  0  0  0  0
 69 70  3  0  0  0  0
 68 71  1  0  0  0  0
 71 72  3  0  0  0  0
 11  2  1  0  0  0  0
 23 17  1  0  0  0  0
 49 24  2  0  0  0  0
 67 57  1  0  0  0  0
 10  5  1  0  0  0  0
 22 18  1  0  0  0  0
 48 26  2  0  0  0  0
 66 60  1  0  0  0  0
 23  7  1  0  0  0  0
 46 27  2  0  0  0  0
 32 28  2  0  0  0  0
 45 33  2  0  0  0  0
 43 34  2  0  0  0  0
 42 36  2  0  0  0  0
  1 73  1  0  0  0  0
  6 74  1  0  0  0  0
  9 75  1  0  0  0  0
 17 76  1  0  0  0  0
 18 77  1  0  0  0  0
 19 78  1  0  0  0  0
 20 79  1  0  0  0  0
 21 80  1  0  0  0  0
 22 81  1  0  0  0  0
 22 82  1  0  0  0  0
 23 83  1  0  0  0  0
 38 84  1  0  0  0  0
 38 85  1  0  0  0  0
 39 86  1  0  0  0  0
 39 87  1  0  0  0  0
 39 88  1  0  0  0  0
 50 89  1  0  0  0  0
 50 90  1  0  0  0  0
 51 91  1  0  0  0  0
 51 92  1  0  0  0  0
 51 93  1  0  0  0  0
 52 94  1  0  0  0  0
 52 95  1  0  0  0  0
 53 96  1  0  0  0  0
 53 97  1  0  0  0  0
 53 98  1  0  0  0  0
 54 99  1  0  0  0  0
 54100  1  0  0  0  0
 55101  1  0  0  0  0
 55102  1  0  0  0  0
 55103  1  0  0  0  0
 56104  1  0  0  0  0
 61105  1  0  0  0  0
 64106  1  0  0  0  0
 65107  1  0  0  0  0
M  END
