
  xtb     02022212523D
 energy: -254.324366136908 gnorm: 0.000207987216 xtb: 6.4.1 (unknown)
160178  0     0  0            999 V2000
   -4.2054    0.0188    4.5745 C   0  0  0  0  0  0  0  0  0  0  0  0
   -4.2532    1.2082    5.2527 C   0  0  0  0  0  0  0  0  0  0  0  0
   -3.1792    2.2085    5.3145 C   0  0  0  0  0  0  0  0  0  0  0  0
   -2.0020    2.0559    5.0392 O   0  0  0  0  0  0  0  0  0  0  0  0
   -3.8115    3.4587    5.7690 C   0  0  0  0  0  0  0  0  0  0  0  0
   -3.2172    4.7161    5.8507 C   0  0  0  0  0  0  0  0  0  0  0  0
   -4.0751    5.7130    6.2492 C   0  0  0  0  0  0  0  0  0  0  0  0
   -5.4222    5.4758    6.5538 C   0  0  0  0  0  0  0  0  0  0  0  0
   -6.0164    4.2372    6.4931 C   0  0  0  0  0  0  0  0  0  0  0  0
   -5.1633    3.2095    6.0806 C   0  0  0  0  0  0  0  0  0  0  0  0
   -5.4374    1.7915    5.8540 C   0  0  0  0  0  0  0  0  0  0  0  0
   -6.5922    1.1367    6.1933 C   0  0  0  0  0  0  0  0  0  0  0  0
   -7.7080    1.7522    6.7974 C   0  0  0  0  0  0  0  0  0  0  0  0
   -8.6505    2.1898    7.2859 N   0  0  0  0  0  0  0  0  0  0  0  0
   -6.8166   -0.2464    6.0280 C   0  0  0  0  0  0  0  0  0  0  0  0
   -7.0710   -1.3629    5.9379 N   0  0  0  0  0  0  0  0  0  0  0  0
   -5.6964    6.9310    6.8415 C   0  0  0  0  0  0  0  0  0  0  0  0
   -6.4376    7.7191    5.7403 C   0  0  0  0  0  0  0  0  0  0  0  0
   -6.1414    9.1649    6.0675 C   0  0  0  0  0  0  0  0  0  0  0  0
   -4.8654    9.3900    5.7815 C   0  0  0  0  0  0  0  0  0  0  0  0
   -4.2780    8.1001    5.2559 C   0  0  0  0  0  0  0  0  0  0  0  0
   -5.5056    7.5257    4.5370 C   0  0  0  0  0  0  0  0  0  0  0  0
   -4.1940    7.1952    6.5040 C   0  0  0  0  0  0  0  0  0  0  0  0
   -3.1597   -0.5400    3.8214 C   0  0  0  0  0  0  0  0  0  0  0  0
   -3.3579   -1.6054    2.9415 C   0  0  0  0  0  0  0  0  0  0  0  0
   -2.2269   -1.9186    2.1992 C   0  0  0  0  0  0  0  0  0  0  0  0
   -2.2012   -2.8217    1.2028 O   0  0  0  0  0  0  0  0  0  0  0  0
   -0.8928   -3.2430    0.7680 C   0  0  0  0  0  0  0  0  0  0  0  0
   -1.0790   -3.8637   -0.6049 C   0  0  0  0  0  0  0  0  0  0  0  0
   -0.5985   -5.1240   -0.9266 C   0  0  0  0  0  0  0  0  0  0  0  0
   -0.6875   -5.5897   -2.2258 C   0  0  0  0  0  0  0  0  0  0  0  0
   -1.2498   -4.8126   -3.2298 C   0  0  0  0  0  0  0  0  0  0  0  0
   -1.2375   -5.2835   -4.6547 C   0  0  0  0  0  0  0  0  0  0  0  0
    0.1595   -5.1023   -5.2542 C   0  0  0  0  0  0  0  0  0  0  0  0
   -1.7631   -3.5672   -2.8918 C   0  0  0  0  0  0  0  0  0  0  0  0
   -1.6823   -3.0980   -1.5956 C   0  0  0  0  0  0  0  0  0  0  0  0
   -0.3270   -4.2287    1.7849 C   0  0  0  0  0  0  0  0  0  0  0  0
   -1.1891   -4.9828    2.5691 C   0  0  0  0  0  0  0  0  0  0  0  0
   -0.6909   -5.8741    3.5007 C   0  0  0  0  0  0  0  0  0  0  0  0
    0.6772   -6.0385    3.6697 C   0  0  0  0  0  0  0  0  0  0  0  0
    1.2150   -7.0392    4.6514 C   0  0  0  0  0  0  0  0  0  0  0  0
    1.3576   -8.4118    3.9905 C   0  0  0  0  0  0  0  0  0  0  0  0
    1.5348   -5.2928    2.8712 C   0  0  0  0  0  0  0  0  0  0  0  0
    1.0433   -4.3964    1.9410 C   0  0  0  0  0  0  0  0  0  0  0  0
    0.0584   -2.0626    0.6701 C   0  0  0  0  0  0  0  0  0  0  0  0
    0.0219   -1.1059    1.7029 C   0  0  0  0  0  0  0  0  0  0  0  0
   -1.1321   -1.1204    2.5396 C   0  0  0  0  0  0  0  0  0  0  0  0
   -1.5095    0.0308    3.7600 S   0  0  0  0  0  0  0  0  0  0  0  0
    1.0062   -0.1165    1.7821 C   0  0  0  0  0  0  0  0  0  0  0  0
    1.9589   -0.0071    0.7959 C   0  0  0  0  0  0  0  0  0  0  0  0
    1.8777   -0.8507   -0.3296 C   0  0  0  0  0  0  0  0  0  0  0  0
    0.9621   -1.9066   -0.3544 C   0  0  0  0  0  0  0  0  0  0  0  0
    2.6508   -0.4750   -1.4662 C   0  0  0  0  0  0  0  0  0  0  0  0
    2.5478   -1.1842   -3.0302 S   0  0  0  0  0  0  0  0  0  0  0  0
    3.4143    0.1638   -3.7260 C   0  0  0  0  0  0  0  0  0  0  0  0
    3.7792    1.0879   -2.7456 C   0  0  0  0  0  0  0  0  0  0  0  0
    3.3226    0.7494   -1.4782 C   0  0  0  0  0  0  0  0  0  0  0  0
    3.4263    1.5492   -0.4044 O   0  0  0  0  0  0  0  0  0  0  0  0
    3.1245    0.9617    0.8784 C   0  0  0  0  0  0  0  0  0  0  0  0
    2.7661    2.1091    1.8068 C   0  0  0  0  0  0  0  0  0  0  0  0
    1.9972    3.1600    1.3266 C   0  0  0  0  0  0  0  0  0  0  0  0
    1.5679    4.1591    2.1796 C   0  0  0  0  0  0  0  0  0  0  0  0
    1.8806    4.1245    3.5317 C   0  0  0  0  0  0  0  0  0  0  0  0
    1.4173    5.2089    4.4609 C   0  0  0  0  0  0  0  0  0  0  0  0
    2.5006    6.2763    4.6263 C   0  0  0  0  0  0  0  0  0  0  0  0
    2.6635    3.0784    4.0022 C   0  0  0  0  0  0  0  0  0  0  0  0
    3.1041    2.0806    3.1532 C   0  0  0  0  0  0  0  0  0  0  0  0
    4.3694    0.2224    1.3609 C   0  0  0  0  0  0  0  0  0  0  0  0
    5.6116    0.8018    1.1354 C   0  0  0  0  0  0  0  0  0  0  0  0
    6.7659    0.1728    1.5591 C   0  0  0  0  0  0  0  0  0  0  0  0
    6.7096   -1.0450    2.2253 C   0  0  0  0  0  0  0  0  0  0  0  0
    7.9669   -1.7474    2.6498 C   0  0  0  0  0  0  0  0  0  0  0  0
    8.4782   -2.6530    1.5274 C   0  0  0  0  0  0  0  0  0  0  0  0
    5.4648   -1.6168    2.4508 C   0  0  0  0  0  0  0  0  0  0  0  0
    4.3051   -0.9943    2.0257 C   0  0  0  0  0  0  0  0  0  0  0  0
    3.6600    0.3780   -5.0923 C   0  0  0  0  0  0  0  0  0  0  0  0
    3.1220   -0.2490   -6.1856 C   0  0  0  0  0  0  0  0  0  0  0  0
    2.0948   -1.2975   -6.1586 C   0  0  0  0  0  0  0  0  0  0  0  0
    1.7566   -1.9855   -5.2105 O   0  0  0  0  0  0  0  0  0  0  0  0
    1.5278   -1.3507   -7.5167 C   0  0  0  0  0  0  0  0  0  0  0  0
    0.4282   -2.0950   -7.9387 C   0  0  0  0  0  0  0  0  0  0  0  0
    0.0945   -1.8985   -9.2572 C   0  0  0  0  0  0  0  0  0  0  0  0
    0.8029   -1.0288  -10.0967 C   0  0  0  0  0  0  0  0  0  0  0  0
    1.8930   -0.2932   -9.6945 C   0  0  0  0  0  0  0  0  0  0  0  0
    2.2485   -0.4760   -8.3549 C   0  0  0  0  0  0  0  0  0  0  0  0
    3.3041    0.1571   -7.5664 C   0  0  0  0  0  0  0  0  0  0  0  0
    4.3030    0.9534   -8.0619 C   0  0  0  0  0  0  0  0  0  0  0  0
    5.3482    1.5120   -7.2964 C   0  0  0  0  0  0  0  0  0  0  0  0
    6.2343    1.9933   -6.7463 N   0  0  0  0  0  0  0  0  0  0  0  0
    4.4480    1.2934   -9.4229 C   0  0  0  0  0  0  0  0  0  0  0  0
    4.6240    1.6091  -10.5128 N   0  0  0  0  0  0  0  0  0  0  0  0
   -0.0944   -1.3087  -11.2767 C   0  0  0  0  0  0  0  0  0  0  0  0
    0.4608   -2.2561  -12.3608 C   0  0  0  0  0  0  0  0  0  0  0  0
   -0.7724   -2.7123  -13.1068 C   0  0  0  0  0  0  0  0  0  0  0  0
   -1.4433   -3.5362  -12.3121 C   0  0  0  0  0  0  0  0  0  0  0  0
   -0.6749   -3.6508  -11.0152 C   0  0  0  0  0  0  0  0  0  0  0  0
    0.7589   -3.5207  -11.5449 C   0  0  0  0  0  0  0  0  0  0  0  0
   -0.8840   -2.2789  -10.3403 C   0  0  0  0  0  0  0  0  0  0  0  0
   -5.1271   -0.5482    4.5118 H   0  0  0  0  0  0  0  0  0  0  0  0
   -2.1759    4.8530    5.6038 H   0  0  0  0  0  0  0  0  0  0  0  0
   -7.0547    4.0716    6.7277 H   0  0  0  0  0  0  0  0  0  0  0  0
   -6.0547    7.1599    7.8431 H   0  0  0  0  0  0  0  0  0  0  0  0
   -7.4826    7.4501    5.6133 H   0  0  0  0  0  0  0  0  0  0  0  0
   -6.8523    9.8376    6.5100 H   0  0  0  0  0  0  0  0  0  0  0  0
   -4.2974   10.2884    5.9374 H   0  0  0  0  0  0  0  0  0  0  0  0
   -3.3554    8.1787    4.6870 H   0  0  0  0  0  0  0  0  0  0  0  0
   -5.8042    8.1329    3.6840 H   0  0  0  0  0  0  0  0  0  0  0  0
   -5.3928    6.4893    4.2239 H   0  0  0  0  0  0  0  0  0  0  0  0
   -3.5486    7.6000    7.2812 H   0  0  0  0  0  0  0  0  0  0  0  0
   -4.3068   -2.0957    2.8222 H   0  0  0  0  0  0  0  0  0  0  0  0
   -0.1404   -5.7394   -0.1670 H   0  0  0  0  0  0  0  0  0  0  0  0
   -0.3009   -6.5701   -2.4650 H   0  0  0  0  0  0  0  0  0  0  0  0
   -1.5166   -6.3389   -4.7019 H   0  0  0  0  0  0  0  0  0  0  0  0
   -1.9627   -4.7132   -5.2387 H   0  0  0  0  0  0  0  0  0  0  0  0
    0.4837   -4.0679   -5.1634 H   0  0  0  0  0  0  0  0  0  0  0  0
    0.1635   -5.3865   -6.3048 H   0  0  0  0  0  0  0  0  0  0  0  0
    0.8799   -5.7241   -4.7281 H   0  0  0  0  0  0  0  0  0  0  0  0
   -2.2166   -2.9505   -3.6544 H   0  0  0  0  0  0  0  0  0  0  0  0
   -2.0722   -2.1218   -1.3468 H   0  0  0  0  0  0  0  0  0  0  0  0
   -2.2558   -4.8709    2.4451 H   0  0  0  0  0  0  0  0  0  0  0  0
   -1.3768   -6.4495    4.1057 H   0  0  0  0  0  0  0  0  0  0  0  0
    2.1906   -6.7124    5.0169 H   0  0  0  0  0  0  0  0  0  0  0  0
    0.5392   -7.1198    5.5050 H   0  0  0  0  0  0  0  0  0  0  0  0
    0.3923   -8.7602    3.6303 H   0  0  0  0  0  0  0  0  0  0  0  0
    2.0383   -8.3552    3.1439 H   0  0  0  0  0  0  0  0  0  0  0  0
    1.7460   -9.1378    4.7010 H   0  0  0  0  0  0  0  0  0  0  0  0
    2.6035   -5.4115    2.9809 H   0  0  0  0  0  0  0  0  0  0  0  0
    1.7307   -3.8306    1.3289 H   0  0  0  0  0  0  0  0  0  0  0  0
    0.9860    0.5665    2.6174 H   0  0  0  0  0  0  0  0  0  0  0  0
    0.9674   -2.5747   -1.2021 H   0  0  0  0  0  0  0  0  0  0  0  0
    4.3140    1.9935   -2.9665 H   0  0  0  0  0  0  0  0  0  0  0  0
    1.7323    3.1899    0.2804 H   0  0  0  0  0  0  0  0  0  0  0  0
    0.9658    4.9682    1.7910 H   0  0  0  0  0  0  0  0  0  0  0  0
    1.1825    4.7783    5.4365 H   0  0  0  0  0  0  0  0  0  0  0  0
    0.5120    5.6724    4.0634 H   0  0  0  0  0  0  0  0  0  0  0  0
    3.4084    5.8344    5.0306 H   0  0  0  0  0  0  0  0  0  0  0  0
    2.1650    7.0600    5.3019 H   0  0  0  0  0  0  0  0  0  0  0  0
    2.7389    6.7248    3.6644 H   0  0  0  0  0  0  0  0  0  0  0  0
    2.9209    3.0353    5.0507 H   0  0  0  0  0  0  0  0  0  0  0  0
    3.7008    1.2688    3.5422 H   0  0  0  0  0  0  0  0  0  0  0  0
    5.6642    1.7515    0.6240 H   0  0  0  0  0  0  0  0  0  0  0  0
    7.7243    0.6372    1.3764 H   0  0  0  0  0  0  0  0  0  0  0  0
    7.7720   -2.3509    3.5386 H   0  0  0  0  0  0  0  0  0  0  0  0
    8.7357   -1.0126    2.8970 H   0  0  0  0  0  0  0  0  0  0  0  0
    8.6910   -2.0673    0.6360 H   0  0  0  0  0  0  0  0  0  0  0  0
    7.7299   -3.4007    1.2739 H   0  0  0  0  0  0  0  0  0  0  0  0
    9.3888   -3.1622    1.8344 H   0  0  0  0  0  0  0  0  0  0  0  0
    5.3985   -2.5622    2.9703 H   0  0  0  0  0  0  0  0  0  0  0  0
    3.3495   -1.4580    2.2237 H   0  0  0  0  0  0  0  0  0  0  0  0
    4.2950    1.2357   -5.2822 H   0  0  0  0  0  0  0  0  0  0  0  0
   -0.0969   -2.7458   -7.2577 H   0  0  0  0  0  0  0  0  0  0  0  0
    2.4187    0.3829  -10.3479 H   0  0  0  0  0  0  0  0  0  0  0  0
   -0.6140   -0.4465  -11.6906 H   0  0  0  0  0  0  0  0  0  0  0  0
    1.2688   -1.8415  -12.9569 H   0  0  0  0  0  0  0  0  0  0  0  0
   -1.0497   -2.3565  -14.0817 H   0  0  0  0  0  0  0  0  0  0  0  0
   -2.3928   -4.0060  -12.4904 H   0  0  0  0  0  0  0  0  0  0  0  0
   -0.9018   -4.5075  -10.3862 H   0  0  0  0  0  0  0  0  0  0  0  0
    1.0420   -4.3607  -12.1769 H   0  0  0  0  0  0  0  0  0  0  0  0
    1.5080   -3.3807  -10.7678 H   0  0  0  0  0  0  0  0  0  0  0  0
   -1.9301   -2.0629  -10.1302 H   0  0  0  0  0  0  0  0  0  0  0  0
  1  2  2  0  0  0  0
  2  3  1  0  0  0  0
  3  4  2  0  0  0  0
  3  5  1  0  0  0  0
  5  6  2  0  0  0  0
  6  7  1  0  0  0  0
  7  8  2  0  0  0  0
  8  9  1  0  0  0  0
  9 10  2  0  0  0  0
 10 11  1  0  0  0  0
 11 12  2  0  0  0  0
 12 13  1  0  0  0  0
 13 14  3  0  0  0  0
 12 15  1  0  0  0  0
 15 16  3  0  0  0  0
  8 17  1  0  0  0  0
 17 18  1  0  0  0  0
 18 19  1  0  0  0  0
 19 20  2  0  0  0  0
 20 21  1  0  0  0  0
 21 22  1  0  0  0  0
 21 23  1  0  0  0  0
  1 24  1  0  0  0  0
 24 25  2  0  0  0  0
 25 26  1  0  0  0  0
 26 27  1  0  0  0  0
 27 28  1  0  0  0  0
 28 29  1  0  0  0  0
 29 30  2  0  0  0  0
 30 31  1  0  0  0  0
 31 32  2  0  0  0  0
 32 33  1  0  0  0  0
 33 34  1  0  0  0  0
 32 35  1  0  0  0  0
 35 36  2  0  0  0  0
 28 37  1  0  0  0  0
 37 38  2  0  0  0  0
 38 39  1  0  0  0  0
 39 40  2  0  0  0  0
 40 41  1  0  0  0  0
 41 42  1  0  0  0  0
 40 43  1  0  0  0  0
 43 44  2  0  0  0  0
 28 45  1  0  0  0  0
 45 46  2  0  0  0  0
 46 47  1  0  0  0  0
 47 48  1  0  0  0  0
 46 49  1  0  0  0  0
 49 50  2  0  0  0  0
 50 51  1  0  0  0  0
 51 52  2  0  0  0  0
 51 53  1  0  0  0  0
 53 54  1  0  0  0  0
 54 55  1  0  0  0  0
 55 56  2  0  0  0  0
 56 57  1  0  0  0  0
 57 58  1  0  0  0  0
 58 59  1  0  0  0  0
 59 60  1  0  0  0  0
 60 61  2  0  0  0  0
 61 62  1  0  0  0  0
 62 63  2  0  0  0  0
 63 64  1  0  0  0  0
 64 65  1  0  0  0  0
 63 66  1  0  0  0  0
 66 67  2  0  0  0  0
 59 68  1  0  0  0  0
 68 69  2  0  0  0  0
 69 70  1  0  0  0  0
 70 71  2  0  0  0  0
 71 72  1  0  0  0  0
 72 73  1  0  0  0  0
 71 74  1  0  0  0  0
 74 75  2  0  0  0  0
 55 76  1  0  0  0  0
 76 77  2  0  0  0  0
 77 78  1  0  0  0  0
 78 79  2  0  0  0  0
 78 80  1  0  0  0  0
 80 81  2  0  0  0  0
 81 82  1  0  0  0  0
 82 83  2  0  0  0  0
 83 84  1  0  0  0  0
 84 85  2  0  0  0  0
 85 86  1  0  0  0  0
 86 87  2  0  0  0  0
 87 88  1  0  0  0  0
 88 89  3  0  0  0  0
 87 90  1  0  0  0  0
 90 91  3  0  0  0  0
 83 92  1  0  0  0  0
 92 93  1  0  0  0  0
 93 94  1  0  0  0  0
 94 95  2  0  0  0  0
 95 96  1  0  0  0  0
 96 97  1  0  0  0  0
 96 98  1  0  0  0  0
 11  2  1  0  0  0  0
 23 17  1  0  0  0  0
 48 24  1  0  0  0  0
 59 50  1  0  0  0  0
 67 60  1  0  0  0  0
 75 68  1  0  0  0  0
 86 77  1  0  0  0  0
 98 92  1  0  0  0  0
 10  5  1  0  0  0  0
 22 18  1  0  0  0  0
 47 26  2  0  0  0  0
 57 53  2  0  0  0  0
 85 80  1  0  0  0  0
 97 93  1  0  0  0  0
 23  7  1  0  0  0  0
 36 29  1  0  0  0  0
 44 37  1  0  0  0  0
 52 45  1  0  0  0  0
 98 82  1  0  0  0  0
  1 99  1  0  0  0  0
  6100  1  0  0  0  0
  9101  1  0  0  0  0
 17102  1  0  0  0  0
 18103  1  0  0  0  0
 19104  1  0  0  0  0
 20105  1  0  0  0  0
 21106  1  0  0  0  0
 22107  1  0  0  0  0
 22108  1  0  0  0  0
 23109  1  0  0  0  0
 25110  1  0  0  0  0
 30111  1  0  0  0  0
 31112  1  0  0  0  0
 33113  1  0  0  0  0
 33114  1  0  0  0  0
 34115  1  0  0  0  0
 34116  1  0  0  0  0
 34117  1  0  0  0  0
 35118  1  0  0  0  0
 36119  1  0  0  0  0
 38120  1  0  0  0  0
 39121  1  0  0  0  0
 41122  1  0  0  0  0
 41123  1  0  0  0  0
 42124  1  0  0  0  0
 42125  1  0  0  0  0
 42126  1  0  0  0  0
 43127  1  0  0  0  0
 44128  1  0  0  0  0
 49129  1  0  0  0  0
 52130  1  0  0  0  0
 56131  1  0  0  0  0
 61132  1  0  0  0  0
 62133  1  0  0  0  0
 64134  1  0  0  0  0
 64135  1  0  0  0  0
 65136  1  0  0  0  0
 65137  1  0  0  0  0
 65138  1  0  0  0  0
 66139  1  0  0  0  0
 67140  1  0  0  0  0
 69141  1  0  0  0  0
 70142  1  0  0  0  0
 72143  1  0  0  0  0
 72144  1  0  0  0  0
 73145  1  0  0  0  0
 73146  1  0  0  0  0
 73147  1  0  0  0  0
 74148  1  0  0  0  0
 75149  1  0  0  0  0
 76150  1  0  0  0  0
 81151  1  0  0  0  0
 84152  1  0  0  0  0
 92153  1  0  0  0  0
 93154  1  0  0  0  0
 94155  1  0  0  0  0
 95156  1  0  0  0  0
 96157  1  0  0  0  0
 97158  1  0  0  0  0
 97159  1  0  0  0  0
 98160  1  0  0  0  0
M  END
