119

C          6.20990       -3.80880       -4.45420
C          5.48580       -4.83130       -5.01470
C          4.04000       -5.03560       -4.90000
O          3.23140       -4.32680       -4.32190
C          3.73590       -6.27850       -5.62750
C          2.48670       -6.87580       -5.78140
C          2.50980       -8.03720       -6.51560
C          3.68850       -8.56300       -7.06070
C          4.92630       -7.98130       -6.91940
C          4.92710       -6.80000       -6.17140
C          6.03250       -5.91210       -5.81100
C          7.34150       -6.08930       -6.18350
C          8.41660       -5.23730       -5.85700
N          9.34690       -4.59800       -5.63920
C          7.81240       -7.16550       -6.96430
N          8.27170       -8.00860       -7.59440
C          2.97540       -9.74520       -7.66860
C          3.12260      -11.09320       -6.93150
C          1.96810      -11.91800       -7.45290
C          0.85140      -11.42080       -6.93660
C          1.23240      -10.25150       -6.05720
C          2.58850      -10.74450       -5.53600
C          1.66080       -9.15910       -7.06020
C          5.80770       -2.71880       -3.67470
C          6.71080       -1.77560       -3.15520
C          8.19680       -1.81640       -3.30170
C          8.82090       -2.74770       -2.25860
C          6.05490       -0.80100       -2.41430
S          6.63460        0.59420       -1.52170
C          5.00030        0.95120       -1.08160
C          4.28740        1.87220       -0.30300
C          4.73490        2.90810        0.54670
C          3.77700        3.60030        1.35800
N          4.33960        4.50000        2.14930
S          5.93740        4.48230        1.89100
N          5.97330        3.32320        0.76160
C          2.40570        3.30230        1.19820
C          1.26590        3.87560        1.78080
S          0.85850        5.04920        2.98540
C         -0.83000        4.74680        2.66620
C         -2.03050        5.22790        3.19860
S         -2.47560        6.36600        4.40380
C         -4.18410        5.98680        4.16050
C         -4.38670        5.07040        3.13360
C         -5.70300        4.71650        2.51700
C         -5.94990        3.20910        2.46860
C         -3.16080        4.64810        2.60870
S         -2.73940        3.50900        1.35980
C         -1.05010        3.79380        1.66260
C          0.15550        3.28770        1.16570
N          0.56300        2.35530        0.25100
C          1.94910        2.32870        0.26420
C          2.90730        1.52560       -0.40910
N          2.80320        0.40030       -1.20690
C          4.06530        0.04980       -1.60400
C          4.66030       -0.96230       -2.36280
S          4.13880       -2.35700       -3.23090
C          1.72560       -0.55440       -1.34490
C          1.31470       -1.13450        0.00580
C         -0.36460        1.88800       -0.75580
C         -0.02000        2.44140       -2.13590
C         -5.11450        6.69050        4.95980
C         -6.27360        6.17780        5.47440
C         -6.50840        4.72800        5.68300
O         -5.78110        3.80820        5.38030
C         -7.75120        4.64420        6.47950
C         -8.40630        3.52020        6.93240
C         -9.57310        3.69100        7.67940
C        -10.28600        2.47220        8.14490
O         -9.94940        1.34780        7.86890
O        -11.34830        2.75730        8.90880
C        -12.08110        1.64000        9.39000
C        -10.04220        4.97230        7.96610
C         -9.37740        6.10190        7.51300
C         -8.22520        5.93940        6.75770
C         -7.33230        6.91180        6.13020
C         -7.52140        8.26950        6.09190
C         -6.69660        9.16870        5.38370
N         -6.08660        9.94880        4.80240
C         -8.58390        8.94060        6.73070
N         -9.42090        9.54180        7.23670
H          7.27680       -3.83520       -4.62780
H          1.60350       -6.43240       -5.34860
H          5.82070       -8.39870       -7.35000
H          3.05220       -9.84070       -8.75000
H          4.11110      -11.54000       -6.99320
H          2.07400      -12.71630       -8.16390
H         -0.16190      -11.72080       -7.13000
H          0.49830       -9.93280       -5.32180
H          3.16780       -9.98350       -5.01620
H          2.49050      -11.62390       -4.90150
H          0.86020       -8.86430       -7.73630
H          8.58160       -0.80570       -3.15170
H          8.48470       -2.14710       -4.30070
H          9.90110       -2.75610       -2.37250
H          8.45380       -3.76410       -2.38080
H          8.57710       -2.40830       -1.25450
H         -5.70290        5.10860        1.49380
H         -6.50830        5.20760        3.06330
H         -5.21480        2.71750        1.83650
H         -6.93980        3.01250        2.06470
H         -5.88740        2.78940        3.46810
H          0.87950       -0.10640       -1.86660
H          2.10360       -1.35880       -1.98030
H          2.15570       -1.65750        0.45480
H          0.50120       -1.84210       -0.12880
H          0.99470       -0.35480        0.69330
H         -1.35200        2.25030       -0.45980
H         -0.41320        0.79880       -0.76010
H         -0.72920        2.07010       -2.87060
H          0.98370        2.15260       -2.43820
H         -0.07050        3.52780       -2.12400
H         -4.83020        7.70270        5.22350
H         -8.04000        2.52840        6.71570
H        -11.42130        0.95820        9.93040
H        -12.53690        1.09980        8.55750
H        -12.84600        2.03940       10.05070
H        -10.94170        5.08070        8.55150
H         -9.75930        7.08070        7.75380
