117

C         -7.68160        2.00780        0.00110
C         -7.95370        2.75590        1.11790
C         -7.22850        2.80750        2.40500
O         -6.41790        2.02390        2.86430
C         -7.68140        4.04100        3.07400
C         -7.19160        4.56540        4.26780
C         -7.76910        5.75700        4.63280
C         -8.76280        6.38170        3.86730
C         -9.26690        5.86560        2.69690
C         -8.69220        4.65230        2.30850
C         -8.95100        3.81360        1.14110
C        -10.00210        3.96850        0.27530
C        -10.33250        3.09190       -0.78050
N        -10.69160        2.41990       -1.64000
C        -10.95200        5.00780        0.35820
N        -11.75740        5.82630        0.36260
C         -8.85850        7.55740        4.80700
C         -8.17120        8.87840        4.38000
C         -7.03930        8.49760        3.45850
C         -6.10420        7.90460        4.18860
C         -6.58770        7.87300        5.61740
C         -7.38280        9.18750        5.66290
C         -7.75660        6.85780        5.66380
C         -6.70450        1.02620       -0.23320
S         -6.46010        0.54970       -1.92850
C         -5.15220       -0.46190       -1.47040
C         -4.14320       -1.25910       -2.00390
S         -3.51230       -1.68940       -3.56980
C         -2.19640       -2.47590       -2.76950
C         -0.98900       -3.09960       -3.12710
C         -0.41410       -3.37890       -4.38620
C          0.89790       -3.95860       -4.43830
N          1.30300       -4.18120       -5.67890
S          0.13640       -3.70110       -6.69330
N         -0.92940       -3.18780       -5.59040
C          1.60750       -4.15060       -3.23230
C          2.95290       -4.46200       -2.99000
S          4.40280       -4.77710       -3.87750
C          5.30720       -4.73040       -2.38030
C          6.68160       -4.73130       -2.10230
C          7.73490       -4.97250       -3.13460
C          7.49710       -6.28000       -3.88990
C          6.91760       -4.55500       -0.74560
S          5.42660       -4.47020        0.18820
C          4.49430       -4.53390       -1.25680
C          3.15230       -4.36630       -1.60880
N          1.97790       -4.04150       -0.98670
C          1.01370       -3.88040       -1.96550
C         -0.33050       -3.43840       -1.91750
N         -1.15390       -3.10020       -0.84560
C         -2.26350       -2.46420       -1.37160
C         -3.37150       -1.73480       -0.91170
N         -3.88270       -1.23950        0.26190
C         -4.96230       -0.45840       -0.06570
C         -5.83310        0.37040        0.62420
C         -3.36680       -1.33930        1.60480
C         -4.15070       -2.35020        2.44020
C         -1.28650       -3.85710        0.38750
C         -1.10990       -5.35690        0.16570
C          1.99050       -3.59340        0.38690
C          1.82400       -2.08000        0.48830
C          8.12730       -4.41970       -0.02430
C          9.28300       -3.81220       -0.41220
C         10.54620       -4.08190        0.32380
O         10.65980       -4.67890        1.37130
C         11.61620       -3.51340       -0.51760
C         12.97520       -3.57380       -0.32580
C         13.79820       -2.96530       -1.27890
C         15.21880       -2.88090       -1.31480
C         15.67300       -2.21600       -2.39940
S         14.41540       -1.65230       -3.44460
C         13.20840       -2.32440       -2.39460
C         11.83350       -2.25460       -2.58630
C         11.03520       -2.85160       -1.63050
C          9.58330       -2.91130       -1.50370
C          8.70100       -2.07240       -2.13760
C          9.06940       -1.16550       -3.15140
N          9.30730       -0.42650       -3.99740
C          7.34570       -1.92350       -1.78370
N          6.25410       -1.69530       -1.50850
H         -8.25760        2.25170       -0.88440
H         -6.42100        4.05360        4.82300
H        -10.03040        6.35890        2.11910
H         -9.83120        7.72620        5.26460
H         -8.85140        9.64250        4.01360
H         -7.05890        8.64240        2.39410
H         -5.18690        7.45490        3.85610
H         -5.82680        7.72150        6.37870
H         -8.01220        9.28360        6.54660
H         -6.74800       10.06700        5.56580
H         -8.01230        6.56440        6.68020
H          8.71620       -5.00920       -2.65850
H          7.73080       -4.14050       -3.84670
H          6.55600       -6.25120       -4.43170
H          8.30060       -6.44220       -4.60370
H          7.47540       -7.11760       -3.19620
H         -5.84690        0.52940        1.68580
H         -2.30890       -1.60410        1.55610
H         -3.45020       -0.35130        2.06790
H         -4.13020       -3.33850        1.98510
H         -3.72510       -2.41580        3.43750
H         -5.18780       -2.03690        2.52480
H         -0.59560       -3.48670        1.14980
H         -2.30110       -3.68660        0.74890
H         -1.84000       -5.71330       -0.55770
H         -0.11860       -5.59650       -0.20860
H         -1.26490       -5.88420        1.10380
H          2.96280       -3.87630        0.79750
H          1.23090       -4.12050        0.96490
H          1.84400       -1.77540        1.53130
H          2.63960       -1.58440       -0.03260
H          0.88600       -1.75770        0.04280
H          8.14750       -4.86030        0.96850
H         13.39050       -4.07280        0.53600
H         15.85410       -3.30210       -0.55690
H         16.69130       -2.01090       -2.66710
H         11.42860       -1.75880       -3.45290
