124

C         -3.90250        3.29100        7.54440
C         -3.57410        4.49000        8.12130
C         -2.53020        5.41220        7.65740
O         -1.80190        5.28380        6.68940
C         -2.52650        6.54200        8.60210
C         -1.69590        7.65890        8.56660
C         -1.92180        8.55510        9.58330
C         -2.90540        8.35640       10.56100
C         -3.73310        7.25950       10.60510
C         -3.51710        6.33140        9.58230
C         -4.18850        5.06230        9.30290
C         -5.22500        4.53950       10.03500
C         -5.89940        3.33020        9.76880
N         -6.50900        2.36580        9.62790
C         -5.78710        5.14900       11.17600
N         -6.29550        5.57470       12.11380
C         -2.57250        9.64450       11.27150
C         -1.74690        9.55430       12.57860
C         -0.93290        8.28760       12.48470
C         -0.00030        8.47320       11.56010
C         -0.16670        9.86910       11.01220
C         -0.66040       10.59750       12.27230
C         -1.47500        9.86470       10.18300
C         -3.40430        2.65910        6.39500
S         -2.15400        3.28310        5.31650
C         -2.33930        1.89780        4.31290
C         -1.85590        1.32740        3.13990
S         -0.67930        1.69580        1.92800
C         -1.10620        0.21610        1.10280
C         -0.49130       -0.15260       -0.08040
O          0.41580        0.71530       -0.64590
C         -0.10820        1.46880       -1.73740
C         -1.14650        2.50310       -1.32430
C         -0.82780       -1.39070       -0.64490
C         -1.91620       -2.11680       -0.07110
C         -2.59250       -1.70130        1.07160
O         -3.64170       -2.34200        1.65630
C         -4.64200       -2.99290        0.88630
C         -5.27850       -2.08910       -0.16050
C         -2.13000       -0.54110        1.72900
C         -2.54410        0.11380        2.92700
N         -3.41910       -0.08830        3.96500
C         -3.31600        0.99450        4.80020
C         -3.90970        1.42550        5.97340
C         -4.33750       -1.16950        4.22560
C         -5.74770       -0.82490        3.75290
S         -2.28520       -3.59900       -0.95650
C         -0.97880       -3.28730       -2.03830
C         -0.34610       -3.91090       -3.10600
S         -0.44960       -5.29080       -4.11890
C          1.01410       -4.77350       -4.98310
C          1.53340       -3.59170       -4.47680
C          0.76620       -3.09530       -3.43070
N          0.80100       -2.00380       -2.60010
C          1.91980       -1.08750       -2.57570
C          2.03250       -0.28270       -3.86890
C         -0.27140       -2.10500       -1.74900
C          1.41000       -5.59790       -6.05100
C          2.45260       -5.51430       -6.93700
C          3.55640       -4.53210       -6.98930
O          3.72700       -3.53280       -6.31520
C          4.46380       -4.99360       -8.05450
C          5.66270       -4.39520       -8.43850
C          6.31100       -5.04760       -9.45870
C          5.80330       -6.21020      -10.05420
C          4.62020       -6.80620       -9.68850
C          3.94270       -6.15700       -8.65080
C          2.67050       -6.47630       -8.00710
C          1.82710       -7.48170       -8.40540
C          0.55620       -7.78230       -7.86970
N         -0.49120       -8.10410       -7.52340
C          2.09360       -8.37520       -9.46510
N          2.23030       -9.13810      -10.31230
C          6.97220       -6.33270      -10.99990
C          8.03800       -7.39140      -10.64660
C          9.25140       -6.96140      -11.43890
C          9.73240       -5.86080      -10.87510
C          8.85190       -5.52820       -9.69210
C          8.46740       -6.94400       -9.24330
C          7.53810       -5.03630      -10.33610
H         -4.68080        2.71680        8.03250
H         -0.95370        7.77200        7.79190
H         -4.48480        7.12490       11.36450
H         -3.37750       10.37380       11.33870
H         -2.32640        9.68610       13.48830
H         -1.14880        7.39470       13.04170
H          0.71880        7.76610       11.18990
H          0.69340       10.28790       10.49620
H          0.09930       10.65540       13.05040
H         -1.05770       11.59160       12.07120
H         -1.56190       10.73900        9.54070
H          0.76470        1.96380       -2.16810
H         -0.54320        0.78590       -2.48000
H         -1.44400        3.07850       -2.19690
H         -2.02810        2.02060       -0.90740
H         -0.73130        3.17610       -0.57920
H         -4.25380       -3.90500        0.42150
H         -5.38380       -3.28190        1.63620
H         -6.10780       -2.61090       -0.62870
H         -5.65140       -1.17700        0.30080
H         -4.55990       -1.81950       -0.93030
H         -4.67810        0.90820        6.51980
H         -3.97640       -2.06390        3.72170
H         -4.34040       -1.34610        5.30530
H         -6.42640       -1.64170        3.98170
H         -5.75070       -0.65640        2.67960
H         -6.10610        0.07580        4.24600
H          2.42830       -3.15290       -4.87560
H          1.79980       -0.42480       -1.71960
H          2.83540       -1.67300       -2.43470
H          2.29480       -0.92170       -4.70690
H          1.09450        0.21600       -4.09870
H          2.80790        0.46980       -3.75640
H          0.75270       -6.44950       -6.18030
H          6.01330       -3.49780       -7.95310
H          4.24640       -7.69900      -10.16030
H          6.72810       -6.31170      -12.06020
H          7.71400       -8.42140      -10.76770
H          9.59070       -7.45390      -12.33120
H         10.55340       -5.25000      -11.20230
H          9.27010       -4.86110       -8.94300
H          9.32430       -7.50640       -8.87630
H          7.66880       -6.97370       -8.50440
H          7.67250       -4.15070      -10.95460
