
  xtb     02012220073D
 energy: -207.292107724785 gnorm: 0.000312054956 xtb: 6.4.1 (unknown)
116131  0     0  0            999 V2000
   -6.8460    4.1700    0.0926 C   0  0  0  0  0  0  0  0  0  0  0  0
   -7.3055    3.8933   -1.1707 C   0  0  0  0  0  0  0  0  0  0  0  0
   -6.5446    3.2749   -2.2601 C   0  0  0  0  0  0  0  0  0  0  0  0
   -5.3381    3.1035   -2.3257 O   0  0  0  0  0  0  0  0  0  0  0  0
   -7.5302    2.8737   -3.2767 C   0  0  0  0  0  0  0  0  0  0  0  0
   -7.2835    2.1543   -4.4438 C   0  0  0  0  0  0  0  0  0  0  0  0
   -8.4134    1.8690   -5.1716 C   0  0  0  0  0  0  0  0  0  0  0  0
   -9.6940    2.2727   -4.7711 C   0  0  0  0  0  0  0  0  0  0  0  0
   -9.9484    2.9986   -3.6310 C   0  0  0  0  0  0  0  0  0  0  0  0
   -8.8123    3.2972   -2.8731 C   0  0  0  0  0  0  0  0  0  0  0  0
   -8.6840    4.0134   -1.6047 C   0  0  0  0  0  0  0  0  0  0  0  0
   -9.6852    4.7120   -0.9803 C   0  0  0  0  0  0  0  0  0  0  0  0
  -11.0077    4.8080   -1.4605 C   0  0  0  0  0  0  0  0  0  0  0  0
  -12.1009    4.9256   -1.7913 N   0  0  0  0  0  0  0  0  0  0  0  0
   -9.5306    5.4695    0.1992 C   0  0  0  0  0  0  0  0  0  0  0  0
   -9.4763    6.1179    1.1463 N   0  0  0  0  0  0  0  0  0  0  0  0
  -10.3588    1.6097   -5.9521 C   0  0  0  0  0  0  0  0  0  0  0  0
  -11.0640    0.2641   -5.6774 C   0  0  0  0  0  0  0  0  0  0  0  0
  -11.1890   -0.3651   -7.0463 C   0  0  0  0  0  0  0  0  0  0  0  0
   -9.9761   -0.7428   -7.4292 C   0  0  0  0  0  0  0  0  0  0  0  0
   -9.0109   -0.3753   -6.3255 C   0  0  0  0  0  0  0  0  0  0  0  0
   -9.9172   -0.5790   -5.1045 C   0  0  0  0  0  0  0  0  0  0  0  0
   -8.9300    1.1644   -6.4011 C   0  0  0  0  0  0  0  0  0  0  0  0
   -5.5796    3.9796    0.6595 C   0  0  0  0  0  0  0  0  0  0  0  0
   -5.3176    4.1124    2.0333 C   0  0  0  0  0  0  0  0  0  0  0  0
   -6.2884    4.5823    3.0672 C   0  0  0  0  0  0  0  0  0  0  0  0
   -6.3995    6.1092    3.0648 C   0  0  0  0  0  0  0  0  0  0  0  0
   -4.0088    3.7571    2.3349 C   0  0  0  0  0  0  0  0  0  0  0  0
   -3.1529    3.5911    3.8576 S   0  0  0  0  0  0  0  0  0  0  0  0
   -1.7887    2.9792    2.9881 C   0  0  0  0  0  0  0  0  0  0  0  0
   -0.5062    2.4758    3.2463 C   0  0  0  0  0  0  0  0  0  0  0  0
    0.2166    2.3413    4.4517 C   0  0  0  0  0  0  0  0  0  0  0  0
    1.5397    1.7902    4.4087 C   0  0  0  0  0  0  0  0  0  0  0  0
    2.1106    1.7516    5.6025 N   0  0  0  0  0  0  0  0  0  0  0  0
    1.0724    2.3547    6.6873 S   0  0  0  0  0  0  0  0  0  0  0  0
   -0.1477    2.6862    5.6768 N   0  0  0  0  0  0  0  0  0  0  0  0
    2.0394    1.3109    3.1778 C   0  0  0  0  0  0  0  0  0  0  0  0
    3.1914    0.5644    2.8853 C   0  0  0  0  0  0  0  0  0  0  0  0
    4.5398   -0.1417    3.7080 S   0  0  0  0  0  0  0  0  0  0  0  0
    5.0119   -0.9151    2.2155 C   0  0  0  0  0  0  0  0  0  0  0  0
    6.0182   -1.8199    1.8593 C   0  0  0  0  0  0  0  0  0  0  0  0
    7.2495   -2.6920    2.6839 S   0  0  0  0  0  0  0  0  0  0  0  0
    7.6917   -3.5104    1.1803 C   0  0  0  0  0  0  0  0  0  0  0  0
    6.9018   -3.0943    0.0938 C   0  0  0  0  0  0  0  0  0  0  0  0
    7.0465   -3.5351   -1.3267 C   0  0  0  0  0  0  0  0  0  0  0  0
    8.1625   -2.7553   -2.0276 C   0  0  0  0  0  0  0  0  0  0  0  0
    5.9594   -2.1628    0.4990 C   0  0  0  0  0  0  0  0  0  0  0  0
    4.6548   -1.3720   -0.3488 S   0  0  0  0  0  0  0  0  0  0  0  0
    4.1736   -0.6012    1.1361 C   0  0  0  0  0  0  0  0  0  0  0  0
    3.1254    0.2358    1.5272 C   0  0  0  0  0  0  0  0  0  0  0  0
    1.9964    0.7703    0.9630 N   0  0  0  0  0  0  0  0  0  0  0  0
    1.2987    1.4269    1.9663 C   0  0  0  0  0  0  0  0  0  0  0  0
    0.0536    2.1076    1.9870 C   0  0  0  0  0  0  0  0  0  0  0  0
   -0.8485    2.4427    0.9932 N   0  0  0  0  0  0  0  0  0  0  0  0
   -1.9727    2.9406    1.6012 C   0  0  0  0  0  0  0  0  0  0  0  0
   -3.2418    3.3834    1.2179 C   0  0  0  0  0  0  0  0  0  0  0  0
   -4.1560    3.4548   -0.2385 S   0  0  0  0  0  0  0  0  0  0  0  0
   -0.6122    2.7237   -0.4078 C   0  0  0  0  0  0  0  0  0  0  0  0
   -1.3469    1.7647   -1.3441 C   0  0  0  0  0  0  0  0  0  0  0  0
    1.5113    0.1724   -0.2620 C   0  0  0  0  0  0  0  0  0  0  0  0
    0.6404   -1.0463    0.0359 C   0  0  0  0  0  0  0  0  0  0  0  0
    8.6750   -4.4979    1.0532 C   0  0  0  0  0  0  0  0  0  0  0  0
    9.4471   -5.1274    1.9975 C   0  0  0  0  0  0  0  0  0  0  0  0
    9.3963   -4.9040    3.4461 C   0  0  0  0  0  0  0  0  0  0  0  0
    8.7721   -4.0472    4.0452 O   0  0  0  0  0  0  0  0  0  0  0  0
   10.2556   -5.9419    4.0467 C   0  0  0  0  0  0  0  0  0  0  0  0
   10.4907   -6.1989    5.3826 C   0  0  0  0  0  0  0  0  0  0  0  0
   11.3233   -7.2547    5.7379 C   0  0  0  0  0  0  0  0  0  0  0  0
   11.6125   -7.6018    7.1613 C   0  0  0  0  0  0  0  0  0  0  0  0
   11.8894   -8.0044    4.7052 C   0  0  0  0  0  0  0  0  0  0  0  0
   12.6942   -9.0306    5.0394 F   0  0  0  0  0  0  0  0  0  0  0  0
   11.6729   -7.7642    3.3577 C   0  0  0  0  0  0  0  0  0  0  0  0
   10.8357   -6.7117    3.0243 C   0  0  0  0  0  0  0  0  0  0  0  0
   10.3800   -6.2037    1.7316 C   0  0  0  0  0  0  0  0  0  0  0  0
   10.7914   -6.6711    0.5094 C   0  0  0  0  0  0  0  0  0  0  0  0
   10.3825   -6.1704   -0.7435 C   0  0  0  0  0  0  0  0  0  0  0  0
   10.1033   -5.8184   -1.8015 N   0  0  0  0  0  0  0  0  0  0  0  0
   11.7098   -7.7280    0.3369 C   0  0  0  0  0  0  0  0  0  0  0  0
   12.4482   -8.5809    0.1243 N   0  0  0  0  0  0  0  0  0  0  0  0
   -7.5836    4.5290    0.7983 H   0  0  0  0  0  0  0  0  0  0  0  0
   -6.2811    1.8595   -4.7122 H   0  0  0  0  0  0  0  0  0  0  0  0
  -10.9393    3.3018   -3.3371 H   0  0  0  0  0  0  0  0  0  0  0  0
  -10.9315    2.2642   -6.6060 H   0  0  0  0  0  0  0  0  0  0  0  0
  -11.9739    0.3391   -5.0882 H   0  0  0  0  0  0  0  0  0  0  0  0
  -12.1078   -0.4190   -7.6000 H   0  0  0  0  0  0  0  0  0  0  0  0
   -9.6790   -1.1751   -8.3667 H   0  0  0  0  0  0  0  0  0  0  0  0
   -8.0498   -0.8828   -6.3266 H   0  0  0  0  0  0  0  0  0  0  0  0
  -10.2001   -1.6219   -4.9716 H   0  0  0  0  0  0  0  0  0  0  0  0
   -9.5033   -0.1933   -4.1746 H   0  0  0  0  0  0  0  0  0  0  0  0
   -8.5476    1.5251   -7.3540 H   0  0  0  0  0  0  0  0  0  0  0  0
   -7.2751    4.1468    2.9008 H   0  0  0  0  0  0  0  0  0  0  0  0
   -5.9297    4.2504    4.0438 H   0  0  0  0  0  0  0  0  0  0  0  0
   -5.4229    6.5591    3.2274 H   0  0  0  0  0  0  0  0  0  0  0  0
   -7.0680    6.4302    3.8586 H   0  0  0  0  0  0  0  0  0  0  0  0
   -6.7973    6.4675    2.1187 H   0  0  0  0  0  0  0  0  0  0  0  0
    6.1012   -3.3472   -1.8412 H   0  0  0  0  0  0  0  0  0  0  0  0
    7.2589   -4.6033   -1.3874 H   0  0  0  0  0  0  0  0  0  0  0  0
    9.1203   -2.9400   -1.5483 H   0  0  0  0  0  0  0  0  0  0  0  0
    8.2339   -3.0679   -3.0654 H   0  0  0  0  0  0  0  0  0  0  0  0
    7.9571   -1.6877   -1.9960 H   0  0  0  0  0  0  0  0  0  0  0  0
   -0.9733    3.7396   -0.6039 H   0  0  0  0  0  0  0  0  0  0  0  0
    0.4656    2.7264   -0.5803 H   0  0  0  0  0  0  0  0  0  0  0  0
   -1.2013    0.7290   -1.0524 H   0  0  0  0  0  0  0  0  0  0  0  0
   -0.9875    1.9017   -2.3605 H   0  0  0  0  0  0  0  0  0  0  0  0
   -2.4129    1.9715   -1.3345 H   0  0  0  0  0  0  0  0  0  0  0  0
    2.3916   -0.1354   -0.8321 H   0  0  0  0  0  0  0  0  0  0  0  0
    0.9652    0.8925   -0.8603 H   0  0  0  0  0  0  0  0  0  0  0  0
   -0.2217   -0.7624    0.6363 H   0  0  0  0  0  0  0  0  0  0  0  0
    0.2951   -1.4925   -0.8927 H   0  0  0  0  0  0  0  0  0  0  0  0
    1.2105   -1.7909    0.5866 H   0  0  0  0  0  0  0  0  0  0  0  0
    8.8045   -4.8418    0.0359 H   0  0  0  0  0  0  0  0  0  0  0  0
   10.0245   -5.5848    6.1379 H   0  0  0  0  0  0  0  0  0  0  0  0
   12.6857   -7.5721    7.3457 H   0  0  0  0  0  0  0  0  0  0  0  0
   11.2760   -8.6160    7.3750 H   0  0  0  0  0  0  0  0  0  0  0  0
   11.1144   -6.9123    7.8364 H   0  0  0  0  0  0  0  0  0  0  0  0
   12.1483   -8.3965    2.6264 H   0  0  0  0  0  0  0  0  0  0  0  0
  1  2  2  0  0  0  0
  2  3  1  0  0  0  0
  3  4  2  0  0  0  0
  3  5  1  0  0  0  0
  5  6  2  0  0  0  0
  6  7  1  0  0  0  0
  7  8  2  0  0  0  0
  8  9  1  0  0  0  0
  9 10  2  0  0  0  0
 10 11  1  0  0  0  0
 11 12  2  0  0  0  0
 12 13  1  0  0  0  0
 13 14  3  0  0  0  0
 12 15  1  0  0  0  0
 15 16  3  0  0  0  0
  8 17  1  0  0  0  0
 17 18  1  0  0  0  0
 18 19  1  0  0  0  0
 19 20  2  0  0  0  0
 20 21  1  0  0  0  0
 21 22  1  0  0  0  0
 21 23  1  0  0  0  0
  1 24  1  0  0  0  0
 24 25  2  0  0  0  0
 25 26  1  0  0  0  0
 26 27  1  0  0  0  0
 25 28  1  0  0  0  0
 28 29  1  0  0  0  0
 29 30  1  0  0  0  0
 30 31  1  0  0  0  0
 31 32  1  0  0  0  0
 32 33  1  0  0  0  0
 33 34  2  0  0  0  0
 34 35  1  0  0  0  0
 35 36  1  0  0  0  0
 33 37  1  0  0  0  0
 37 38  1  0  0  0  0
 38 39  1  0  0  0  0
 39 40  1  0  0  0  0
 40 41  1  0  0  0  0
 41 42  1  0  0  0  0
 42 43  1  0  0  0  0
 43 44  2  0  0  0  0
 44 45  1  0  0  0  0
 45 46  1  0  0  0  0
 44 47  1  0  0  0  0
 47 48  1  0  0  0  0
 48 49  1  0  0  0  0
 49 50  1  0  0  0  0
 50 51  1  0  0  0  0
 51 52  1  0  0  0  0
 52 53  1  0  0  0  0
 53 54  1  0  0  0  0
 54 55  1  0  0  0  0
 55 56  1  0  0  0  0
 56 57  1  0  0  0  0
 54 58  1  0  0  0  0
 58 59  1  0  0  0  0
 51 60  1  0  0  0  0
 60 61  1  0  0  0  0
 43 62  1  0  0  0  0
 62 63  2  0  0  0  0
 63 64  1  0  0  0  0
 64 65  2  0  0  0  0
 64 66  1  0  0  0  0
 66 67  2  0  0  0  0
 67 68  1  0  0  0  0
 68 69  1  0  0  0  0
 68 70  2  0  0  0  0
 70 71  1  0  0  0  0
 70 72  1  0  0  0  0
 72 73  2  0  0  0  0
 73 74  1  0  0  0  0
 74 75  2  0  0  0  0
 75 76  1  0  0  0  0
 76 77  3  0  0  0  0
 75 78  1  0  0  0  0
 78 79  3  0  0  0  0
 11  2  1  0  0  0  0
 23 17  1  0  0  0  0
 57 24  1  0  0  0  0
 74 63  1  0  0  0  0
 10  5  1  0  0  0  0
 22 18  1  0  0  0  0
 56 28  2  0  0  0  0
 73 66  1  0  0  0  0
 23  7  1  0  0  0  0
 55 30  2  0  0  0  0
 53 31  2  0  0  0  0
 36 32  2  0  0  0  0
 52 37  2  0  0  0  0
 50 38  2  0  0  0  0
 49 40  2  0  0  0  0
 47 41  2  0  0  0  0
  1 80  1  0  0  0  0
  6 81  1  0  0  0  0
  9 82  1  0  0  0  0
 17 83  1  0  0  0  0
 18 84  1  0  0  0  0
 19 85  1  0  0  0  0
 20 86  1  0  0  0  0
 21 87  1  0  0  0  0
 22 88  1  0  0  0  0
 22 89  1  0  0  0  0
 23 90  1  0  0  0  0
 26 91  1  0  0  0  0
 26 92  1  0  0  0  0
 27 93  1  0  0  0  0
 27 94  1  0  0  0  0
 27 95  1  0  0  0  0
 45 96  1  0  0  0  0
 45 97  1  0  0  0  0
 46 98  1  0  0  0  0
 46 99  1  0  0  0  0
 46100  1  0  0  0  0
 58101  1  0  0  0  0
 58102  1  0  0  0  0
 59103  1  0  0  0  0
 59104  1  0  0  0  0
 59105  1  0  0  0  0
 60106  1  0  0  0  0
 60107  1  0  0  0  0
 61108  1  0  0  0  0
 61109  1  0  0  0  0
 61110  1  0  0  0  0
 62111  1  0  0  0  0
 67112  1  0  0  0  0
 69113  1  0  0  0  0
 69114  1  0  0  0  0
 69115  1  0  0  0  0
 72116  1  0  0  0  0
M  END
