
  xtb     02022217113D
 energy: -207.619454095131 gnorm: 0.000484519777 xtb: 6.4.1 (unknown)
117133  0     0  0            999 V2000
    7.5431    1.8284   -0.1698 C   0  0  0  0  0  0  0  0  0  0  0  0
    8.2037    0.8864   -0.9174 C   0  0  0  0  0  0  0  0  0  0  0  0
    7.6556   -0.2667   -1.6613 C   0  0  0  0  0  0  0  0  0  0  0  0
    6.5367   -0.7458   -1.6240 O   0  0  0  0  0  0  0  0  0  0  0  0
    8.7549   -0.7617   -2.5103 C   0  0  0  0  0  0  0  0  0  0  0  0
    8.6831   -1.7962   -3.4414 C   0  0  0  0  0  0  0  0  0  0  0  0
    9.8603   -2.0290   -4.1097 C   0  0  0  0  0  0  0  0  0  0  0  0
   11.0250   -1.2879   -3.8695 C   0  0  0  0  0  0  0  0  0  0  0  0
   11.1117   -0.2726   -2.9469 C   0  0  0  0  0  0  0  0  0  0  0  0
    9.9232   -0.0198   -2.2546 C   0  0  0  0  0  0  0  0  0  0  0  0
    9.6258    0.9583   -1.2110 C   0  0  0  0  0  0  0  0  0  0  0  0
   10.5593    1.7371   -0.5767 C   0  0  0  0  0  0  0  0  0  0  0  0
   11.9337    1.7498   -0.8945 C   0  0  0  0  0  0  0  0  0  0  0  0
   13.0619    1.8158   -1.0984 N   0  0  0  0  0  0  0  0  0  0  0  0
   10.3197    2.5978    0.5160 C   0  0  0  0  0  0  0  0  0  0  0  0
   10.2328    3.3005    1.4206 N   0  0  0  0  0  0  0  0  0  0  0  0
   11.8165   -2.0446   -4.9072 C   0  0  0  0  0  0  0  0  0  0  0  0
   12.0471   -1.3287   -6.2549 C   0  0  0  0  0  0  0  0  0  0  0  0
   12.4048   -2.4499   -7.2036 C   0  0  0  0  0  0  0  0  0  0  0  0
   11.3031   -3.1540   -7.4299 C   0  0  0  0  0  0  0  0  0  0  0  0
   10.1822   -2.5203   -6.6378 C   0  0  0  0  0  0  0  0  0  0  0  0
   10.6086   -1.0483   -6.7087 C   0  0  0  0  0  0  0  0  0  0  0  0
   10.5186   -2.8728   -5.1732 C   0  0  0  0  0  0  0  0  0  0  0  0
    6.1991    1.9292    0.2240 C   0  0  0  0  0  0  0  0  0  0  0  0
    5.7490    3.4139    1.0920 S   0  0  0  0  0  0  0  0  0  0  0  0
    4.1348    2.8543    1.2425 C   0  0  0  0  0  0  0  0  0  0  0  0
    2.8881    3.2210    1.7425 C   0  0  0  0  0  0  0  0  0  0  0  0
    2.1393    4.5854    2.5229 S   0  0  0  0  0  0  0  0  0  0  0  0
    0.6462    3.7146    2.5084 C   0  0  0  0  0  0  0  0  0  0  0  0
   -0.6774    3.9240    2.9396 C   0  0  0  0  0  0  0  0  0  0  0  0
   -1.3074    4.9825    3.6324 C   0  0  0  0  0  0  0  0  0  0  0  0
   -2.6931    4.8527    3.9968 C   0  0  0  0  0  0  0  0  0  0  0  0
   -3.1320    5.8958    4.6834 N   0  0  0  0  0  0  0  0  0  0  0  0
   -1.9161    6.9503    4.8534 S   0  0  0  0  0  0  0  0  0  0  0  0
   -0.7799    6.1193    4.0578 N   0  0  0  0  0  0  0  0  0  0  0  0
   -3.4221    3.7274    3.5487 C   0  0  0  0  0  0  0  0  0  0  0  0
   -4.7877    3.4107    3.5756 C   0  0  0  0  0  0  0  0  0  0  0  0
   -6.2601    4.0590    4.2078 S   0  0  0  0  0  0  0  0  0  0  0  0
   -7.1340    2.7618    3.4162 C   0  0  0  0  0  0  0  0  0  0  0  0
   -8.4867    2.4522    3.3536 C   0  0  0  0  0  0  0  0  0  0  0  0
   -9.5310    3.2352    4.0802 C   0  0  0  0  0  0  0  0  0  0  0  0
   -9.8443    2.5955    5.4356 C   0  0  0  0  0  0  0  0  0  0  0  0
   -8.7122    1.2995    2.5842 C   0  0  0  0  0  0  0  0  0  0  0  0
   -7.2147    0.6274    1.9415 S   0  0  0  0  0  0  0  0  0  0  0  0
   -6.3051    1.8761    2.7062 C   0  0  0  0  0  0  0  0  0  0  0  0
   -4.9615    2.2466    2.8114 C   0  0  0  0  0  0  0  0  0  0  0  0
   -3.7462    1.8152    2.3428 N   0  0  0  0  0  0  0  0  0  0  0  0
   -2.7890    2.7001    2.7945 C   0  0  0  0  0  0  0  0  0  0  0  0
   -1.3911    2.7501    2.6066 C   0  0  0  0  0  0  0  0  0  0  0  0
   -0.5263    1.8156    2.0402 N   0  0  0  0  0  0  0  0  0  0  0  0
    0.7148    2.4304    1.9511 C   0  0  0  0  0  0  0  0  0  0  0  0
    2.0023    2.1458    1.4711 C   0  0  0  0  0  0  0  0  0  0  0  0
    2.6727    1.1560    0.7973 N   0  0  0  0  0  0  0  0  0  0  0  0
    3.9728    1.5736    0.6558 C   0  0  0  0  0  0  0  0  0  0  0  0
    5.1261    1.0596    0.0849 C   0  0  0  0  0  0  0  0  0  0  0  0
    2.1478   -0.0186    0.1459 C   0  0  0  0  0  0  0  0  0  0  0  0
    2.4671   -1.2990    0.9140 C   0  0  0  0  0  0  0  0  0  0  0  0
   -0.6110    0.4139    2.4149 C   0  0  0  0  0  0  0  0  0  0  0  0
    0.2194    0.1191    3.6639 C   0  0  0  0  0  0  0  0  0  0  0  0
   -3.6470    0.8760    1.2452 C   0  0  0  0  0  0  0  0  0  0  0  0
   -3.9638   -0.5607    1.6574 C   0  0  0  0  0  0  0  0  0  0  0  0
   -9.9846    0.7586    2.3645 C   0  0  0  0  0  0  0  0  0  0  0  0
  -10.3800   -0.3571    1.6732 C   0  0  0  0  0  0  0  0  0  0  0  0
   -9.5153   -1.3125    0.9547 C   0  0  0  0  0  0  0  0  0  0  0  0
   -8.3013   -1.2759    0.8408 O   0  0  0  0  0  0  0  0  0  0  0  0
  -10.4211   -2.3203    0.4002 C   0  0  0  0  0  0  0  0  0  0  0  0
  -11.7181   -2.0015    0.7491 C   0  0  0  0  0  0  0  0  0  0  0  0
  -12.8888   -3.1131    0.1523 S   0  0  0  0  0  0  0  0  0  0  0  0
  -11.6087   -4.0501   -0.5978 C   0  0  0  0  0  0  0  0  0  0  0  0
  -11.7751   -5.2107   -1.3366 C   0  0  0  0  0  0  0  0  0  0  0  0
  -10.6522   -5.8217   -1.8580 C   0  0  0  0  0  0  0  0  0  0  0  0
   -9.3787   -5.2886   -1.6494 C   0  0  0  0  0  0  0  0  0  0  0  0
   -9.2040   -4.1370   -0.9170 C   0  0  0  0  0  0  0  0  0  0  0  0
  -10.3243   -3.5000   -0.3792 C   0  0  0  0  0  0  0  0  0  0  0  0
  -11.7590   -0.7953    1.5383 C   0  0  0  0  0  0  0  0  0  0  0  0
  -12.9090   -0.2296    2.0312 C   0  0  0  0  0  0  0  0  0  0  0  0
  -12.9871    0.9430    2.8049 C   0  0  0  0  0  0  0  0  0  0  0  0
  -13.1177    1.8928    3.4386 N   0  0  0  0  0  0  0  0  0  0  0  0
  -14.1686   -0.8153    1.7860 C   0  0  0  0  0  0  0  0  0  0  0  0
  -15.2020   -1.2771    1.5970 N   0  0  0  0  0  0  0  0  0  0  0  0
    8.1422    2.6663    0.1675 H   0  0  0  0  0  0  0  0  0  0  0  0
    7.7645   -2.3413   -3.5936 H   0  0  0  0  0  0  0  0  0  0  0  0
   12.0159    0.2863   -2.7746 H   0  0  0  0  0  0  0  0  0  0  0  0
   12.7014   -2.5638   -4.5443 H   0  0  0  0  0  0  0  0  0  0  0  0
   12.7324   -0.4867   -6.2114 H   0  0  0  0  0  0  0  0  0  0  0  0
   13.4009   -2.6423   -7.5566 H   0  0  0  0  0  0  0  0  0  0  0  0
   11.1951   -4.0521   -8.0094 H   0  0  0  0  0  0  0  0  0  0  0  0
    9.1683   -2.7639   -6.9441 H   0  0  0  0  0  0  0  0  0  0  0  0
   10.0525   -0.3925   -6.0414 H   0  0  0  0  0  0  0  0  0  0  0  0
   10.5662   -0.6560   -7.7235 H   0  0  0  0  0  0  0  0  0  0  0  0
   10.5379   -3.9450   -4.9864 H   0  0  0  0  0  0  0  0  0  0  0  0
   -9.1487    4.2449    4.2427 H   0  0  0  0  0  0  0  0  0  0  0  0
  -10.4475    3.3068    3.4928 H   0  0  0  0  0  0  0  0  0  0  0  0
  -10.2271    1.5859    5.3055 H   0  0  0  0  0  0  0  0  0  0  0  0
  -10.5949    3.1836    5.9556 H   0  0  0  0  0  0  0  0  0  0  0  0
   -8.9473    2.5510    6.0489 H   0  0  0  0  0  0  0  0  0  0  0  0
    5.2184    0.1140   -0.4155 H   0  0  0  0  0  0  0  0  0  0  0  0
    2.5980   -0.0772   -0.8504 H   0  0  0  0  0  0  0  0  0  0  0  0
    1.0701    0.1087    0.0231 H   0  0  0  0  0  0  0  0  0  0  0  0
    2.0637   -2.1564    0.3823 H   0  0  0  0  0  0  0  0  0  0  0  0
    2.0408   -1.2740    1.9131 H   0  0  0  0  0  0  0  0  0  0  0  0
    3.5433   -1.4214    1.0007 H   0  0  0  0  0  0  0  0  0  0  0  0
   -0.2822   -0.2118    1.5822 H   0  0  0  0  0  0  0  0  0  0  0  0
   -1.6498    0.1878    2.6361 H   0  0  0  0  0  0  0  0  0  0  0  0
   -0.1294    0.7289    4.4949 H   0  0  0  0  0  0  0  0  0  0  0  0
    1.2712    0.3395    3.4989 H   0  0  0  0  0  0  0  0  0  0  0  0
    0.1167   -0.9287    3.9350 H   0  0  0  0  0  0  0  0  0  0  0  0
   -2.6468    0.9554    0.8167 H   0  0  0  0  0  0  0  0  0  0  0  0
   -4.3673    1.1798    0.4769 H   0  0  0  0  0  0  0  0  0  0  0  0
   -3.3817   -0.8735    2.5211 H   0  0  0  0  0  0  0  0  0  0  0  0
   -5.0163   -0.6617    1.9044 H   0  0  0  0  0  0  0  0  0  0  0  0
   -3.7448   -1.2286    0.8292 H   0  0  0  0  0  0  0  0  0  0  0  0
  -10.7784    1.3270    2.8310 H   0  0  0  0  0  0  0  0  0  0  0  0
  -12.7600   -5.6206   -1.4965 H   0  0  0  0  0  0  0  0  0  0  0  0
  -10.7609   -6.7264   -2.4366 H   0  0  0  0  0  0  0  0  0  0  0  0
   -8.5215   -5.7913   -2.0712 H   0  0  0  0  0  0  0  0  0  0  0  0
   -8.2270   -3.7123   -0.7468 H   0  0  0  0  0  0  0  0  0  0  0  0
  1  2  2  0  0  0  0
  2  3  1  0  0  0  0
  3  4  2  0  0  0  0
  3  5  1  0  0  0  0
  5  6  2  0  0  0  0
  6  7  1  0  0  0  0
  7  8  2  0  0  0  0
  8  9  1  0  0  0  0
  9 10  2  0  0  0  0
 10 11  1  0  0  0  0
 11 12  2  0  0  0  0
 12 13  1  0  0  0  0
 13 14  3  0  0  0  0
 12 15  1  0  0  0  0
 15 16  3  0  0  0  0
  8 17  1  0  0  0  0
 17 18  1  0  0  0  0
 18 19  1  0  0  0  0
 19 20  2  0  0  0  0
 20 21  1  0  0  0  0
 21 22  1  0  0  0  0
 21 23  1  0  0  0  0
  1 24  1  0  0  0  0
 24 25  1  0  0  0  0
 25 26  1  0  0  0  0
 26 27  1  0  0  0  0
 27 28  1  0  0  0  0
 28 29  1  0  0  0  0
 29 30  1  0  0  0  0
 30 31  1  0  0  0  0
 31 32  1  0  0  0  0
 32 33  2  0  0  0  0
 33 34  1  0  0  0  0
 34 35  1  0  0  0  0
 32 36  1  0  0  0  0
 36 37  1  0  0  0  0
 37 38  1  0  0  0  0
 38 39  1  0  0  0  0
 39 40  1  0  0  0  0
 40 41  1  0  0  0  0
 41 42  1  0  0  0  0
 40 43  2  0  0  0  0
 43 44  1  0  0  0  0
 44 45  1  0  0  0  0
 45 46  1  0  0  0  0
 46 47  1  0  0  0  0
 47 48  1  0  0  0  0
 48 49  1  0  0  0  0
 49 50  1  0  0  0  0
 50 51  1  0  0  0  0
 51 52  1  0  0  0  0
 52 53  1  0  0  0  0
 53 54  1  0  0  0  0
 54 55  1  0  0  0  0
 53 56  1  0  0  0  0
 56 57  1  0  0  0  0
 50 58  1  0  0  0  0
 58 59  1  0  0  0  0
 47 60  1  0  0  0  0
 60 61  1  0  0  0  0
 43 62  1  0  0  0  0
 62 63  2  0  0  0  0
 63 64  1  0  0  0  0
 64 65  2  0  0  0  0
 64 66  1  0  0  0  0
 66 67  2  0  0  0  0
 67 68  1  0  0  0  0
 68 69  1  0  0  0  0
 69 70  2  0  0  0  0
 70 71  1  0  0  0  0
 71 72  2  0  0  0  0
 72 73  1  0  0  0  0
 73 74  2  0  0  0  0
 67 75  1  0  0  0  0
 75 76  2  0  0  0  0
 76 77  1  0  0  0  0
 77 78  3  0  0  0  0
 76 79  1  0  0  0  0
 79 80  3  0  0  0  0
 11  2  1  0  0  0  0
 23 17  1  0  0  0  0
 55 24  2  0  0  0  0
 75 63  1  0  0  0  0
 10  5  1  0  0  0  0
 22 18  1  0  0  0  0
 54 26  2  0  0  0  0
 74 66  1  0  0  0  0
 23  7  1  0  0  0  0
 52 27  2  0  0  0  0
 74 69  1  0  0  0  0
 51 29  2  0  0  0  0
 49 30  2  0  0  0  0
 35 31  2  0  0  0  0
 48 36  2  0  0  0  0
 46 37  2  0  0  0  0
 45 39  2  0  0  0  0
  1 81  1  0  0  0  0
  6 82  1  0  0  0  0
  9 83  1  0  0  0  0
 17 84  1  0  0  0  0
 18 85  1  0  0  0  0
 19 86  1  0  0  0  0
 20 87  1  0  0  0  0
 21 88  1  0  0  0  0
 22 89  1  0  0  0  0
 22 90  1  0  0  0  0
 23 91  1  0  0  0  0
 41 92  1  0  0  0  0
 41 93  1  0  0  0  0
 42 94  1  0  0  0  0
 42 95  1  0  0  0  0
 42 96  1  0  0  0  0
 55 97  1  0  0  0  0
 56 98  1  0  0  0  0
 56 99  1  0  0  0  0
 57100  1  0  0  0  0
 57101  1  0  0  0  0
 57102  1  0  0  0  0
 58103  1  0  0  0  0
 58104  1  0  0  0  0
 59105  1  0  0  0  0
 59106  1  0  0  0  0
 59107  1  0  0  0  0
 60108  1  0  0  0  0
 60109  1  0  0  0  0
 61110  1  0  0  0  0
 61111  1  0  0  0  0
 61112  1  0  0  0  0
 62113  1  0  0  0  0
 70114  1  0  0  0  0
 71115  1  0  0  0  0
 72116  1  0  0  0  0
 73117  1  0  0  0  0
M  END
