
  xtb     02022207073D
 energy: -216.242572008026 gnorm: 0.000240919975 xtb: 6.4.1 (unknown)
114129  0     0  0            999 V2000
    2.5764    1.6696    6.8229 C   0  0  0  0  0  0  0  0  0  0  0  0
    3.3559    0.6842    7.3697 C   0  0  0  0  0  0  0  0  0  0  0  0
    3.9243   -0.5198    6.7253 C   0  0  0  0  0  0  0  0  0  0  0  0
    4.0730   -0.7608    5.5414 O   0  0  0  0  0  0  0  0  0  0  0  0
    4.2960   -1.4276    7.8257 C   0  0  0  0  0  0  0  0  0  0  0  0
    4.7691   -2.7319    7.7020 C   0  0  0  0  0  0  0  0  0  0  0  0
    4.9943   -3.3607    8.9022 C   0  0  0  0  0  0  0  0  0  0  0  0
    4.7688   -2.7372   10.1370 C   0  0  0  0  0  0  0  0  0  0  0  0
    4.3180   -1.4456   10.2726 C   0  0  0  0  0  0  0  0  0  0  0  0
    4.0814   -0.7887    9.0619 C   0  0  0  0  0  0  0  0  0  0  0  0
    3.5967    0.5632    8.7991 C   0  0  0  0  0  0  0  0  0  0  0  0
    3.4736    1.5560    9.7354 C   0  0  0  0  0  0  0  0  0  0  0  0
    3.1291    2.8980    9.4653 C   0  0  0  0  0  0  0  0  0  0  0  0
    2.8859    4.0125    9.3319 N   0  0  0  0  0  0  0  0  0  0  0  0
    3.7392    1.3874   11.1105 C   0  0  0  0  0  0  0  0  0  0  0  0
    3.9328    1.3207   12.2403 N   0  0  0  0  0  0  0  0  0  0  0  0
    5.1717   -3.9625   10.9185 C   0  0  0  0  0  0  0  0  0  0  0  0
    4.0433   -4.8281   11.5326 C   0  0  0  0  0  0  0  0  0  0  0  0
    2.8216   -4.6157   10.6735 C   0  0  0  0  0  0  0  0  0  0  0  0
    3.0400   -5.2053    9.5058 C   0  0  0  0  0  0  0  0  0  0  0  0
    4.4142   -5.8265    9.5539 C   0  0  0  0  0  0  0  0  0  0  0  0
    4.4829   -6.2159   11.0391 C   0  0  0  0  0  0  0  0  0  0  0  0
    5.4277   -4.6553    9.5430 C   0  0  0  0  0  0  0  0  0  0  0  0
    2.1724    1.8921    5.4945 C   0  0  0  0  0  0  0  0  0  0  0  0
    0.8672    3.0735    5.2568 S   0  0  0  0  0  0  0  0  0  0  0  0
    0.8566    2.7384    3.5742 C   0  0  0  0  0  0  0  0  0  0  0  0
    0.1772    3.0450    2.4002 C   0  0  0  0  0  0  0  0  0  0  0  0
   -1.1953    4.0069    1.9407 S   0  0  0  0  0  0  0  0  0  0  0  0
   -1.0161    3.3809    0.3427 C   0  0  0  0  0  0  0  0  0  0  0  0
   -1.7325    3.4555   -0.8557 C   0  0  0  0  0  0  0  0  0  0  0  0
   -2.9689    4.0791   -1.1287 C   0  0  0  0  0  0  0  0  0  0  0  0
   -3.6100    3.8026   -2.3766 C   0  0  0  0  0  0  0  0  0  0  0  0
   -4.7918    4.3905   -2.4822 N   0  0  0  0  0  0  0  0  0  0  0  0
   -5.0669    5.2283   -1.1240 S   0  0  0  0  0  0  0  0  0  0  0  0
   -3.6935    4.8661   -0.3491 N   0  0  0  0  0  0  0  0  0  0  0  0
   -2.9421    2.9882   -3.3161 C   0  0  0  0  0  0  0  0  0  0  0  0
   -3.3587    2.5501   -4.5792 C   0  0  0  0  0  0  0  0  0  0  0  0
   -4.7505    2.6247   -5.5974 S   0  0  0  0  0  0  0  0  0  0  0  0
   -3.9233    1.6243   -6.7742 C   0  0  0  0  0  0  0  0  0  0  0  0
   -4.3284    1.0396   -7.9798 C   0  0  0  0  0  0  0  0  0  0  0  0
   -5.6204    1.3219   -8.6662 C   0  0  0  0  0  0  0  0  0  0  0  0
   -5.9807    2.8056   -8.6743 C   0  0  0  0  0  0  0  0  0  0  0  0
   -3.3182    0.2363   -8.5098 C   0  0  0  0  0  0  0  0  0  0  0  0
   -1.8359    0.3030   -7.5489 S   0  0  0  0  0  0  0  0  0  0  0  0
   -2.6162    1.2932   -6.3772 C   0  0  0  0  0  0  0  0  0  0  0  0
   -2.3019    1.8146   -5.1215 C   0  0  0  0  0  0  0  0  0  0  0  0
   -1.2533    1.7685   -4.2378 N   0  0  0  0  0  0  0  0  0  0  0  0
   -1.6311    2.4660   -3.0946 C   0  0  0  0  0  0  0  0  0  0  0  0
   -1.0536    2.6400   -1.8038 C   0  0  0  0  0  0  0  0  0  0  0  0
    0.0571    2.1045   -1.1706 N   0  0  0  0  0  0  0  0  0  0  0  0
    0.0627    2.5066    0.1465 C   0  0  0  0  0  0  0  0  0  0  0  0
    0.7645    2.2846    1.3531 C   0  0  0  0  0  0  0  0  0  0  0  0
    1.7800    1.5147    1.8817 N   0  0  0  0  0  0  0  0  0  0  0  0
    1.8450    1.7899    3.2247 C   0  0  0  0  0  0  0  0  0  0  0  0
    2.5869    1.3224    4.3005 C   0  0  0  0  0  0  0  0  0  0  0  0
    2.7199    0.6101    1.2658 C   0  0  0  0  0  0  0  0  0  0  0  0
    3.9330    1.3508    0.7026 C   0  0  0  0  0  0  0  0  0  0  0  0
    1.0096    1.1549   -1.6810 C   0  0  0  0  0  0  0  0  0  0  0  0
    0.4392   -0.2630   -1.6978 C   0  0  0  0  0  0  0  0  0  0  0  0
    0.0520    1.4305   -4.7662 C   0  0  0  0  0  0  0  0  0  0  0  0
    0.9278    2.6720   -4.9261 C   0  0  0  0  0  0  0  0  0  0  0  0
   -3.2567   -0.5701   -9.6585 C   0  0  0  0  0  0  0  0  0  0  0  0
   -4.2809   -1.2851  -10.2297 C   0  0  0  0  0  0  0  0  0  0  0  0
   -5.5035   -1.6869   -9.5154 C   0  0  0  0  0  0  0  0  0  0  0  0
   -5.8149   -1.4317   -8.3720 O   0  0  0  0  0  0  0  0  0  0  0  0
   -6.2391   -2.5662  -10.4561 C   0  0  0  0  0  0  0  0  0  0  0  0
   -7.4883   -3.1369  -10.2949 C   0  0  0  0  0  0  0  0  0  0  0  0
   -8.3490   -2.9994   -8.8276 Cl  0  0  0  0  0  0  0  0  0  0  0  0
   -8.0467   -3.8265  -11.3803 C   0  0  0  0  0  0  0  0  0  0  0  0
   -9.5725   -4.5805  -11.2194 Cl  0  0  0  0  0  0  0  0  0  0  0  0
   -7.3796   -3.8568  -12.6033 C   0  0  0  0  0  0  0  0  0  0  0  0
   -8.1260   -4.6169  -13.9424 Cl  0  0  0  0  0  0  0  0  0  0  0  0
   -6.1157   -3.2650  -12.7629 C   0  0  0  0  0  0  0  0  0  0  0  0
   -5.4557   -3.1901  -14.3441 Cl  0  0  0  0  0  0  0  0  0  0  0  0
   -5.5073   -2.6856  -11.6548 C   0  0  0  0  0  0  0  0  0  0  0  0
   -4.2143   -2.0283  -11.4730 C   0  0  0  0  0  0  0  0  0  0  0  0
   -3.1001   -2.1858  -12.2596 C   0  0  0  0  0  0  0  0  0  0  0  0
   -2.8930   -3.2260  -13.1912 C   0  0  0  0  0  0  0  0  0  0  0  0
   -2.5715   -4.0994  -13.8632 N   0  0  0  0  0  0  0  0  0  0  0  0
   -1.9186   -1.4202  -12.1558 C   0  0  0  0  0  0  0  0  0  0  0  0
   -0.9413   -0.8169  -12.1874 N   0  0  0  0  0  0  0  0  0  0  0  0
    2.1273    2.3639    7.5242 H   0  0  0  0  0  0  0  0  0  0  0  0
    4.9251   -3.1751    6.7307 H   0  0  0  0  0  0  0  0  0  0  0  0
    4.1476   -0.9807   11.2292 H   0  0  0  0  0  0  0  0  0  0  0  0
    6.0155   -3.8418   11.5947 H   0  0  0  0  0  0  0  0  0  0  0  0
    3.9059   -4.6970   12.6025 H   0  0  0  0  0  0  0  0  0  0  0  0
    1.9735   -4.0284   10.9732 H   0  0  0  0  0  0  0  0  0  0  0  0
    2.4109   -5.2086    8.6348 H   0  0  0  0  0  0  0  0  0  0  0  0
    4.6151   -6.6050    8.8224 H   0  0  0  0  0  0  0  0  0  0  0  0
    5.4823   -6.4972   11.3682 H   0  0  0  0  0  0  0  0  0  0  0  0
    3.7746   -7.0002   11.3019 H   0  0  0  0  0  0  0  0  0  0  0  0
    6.4406   -4.9845    9.3194 H   0  0  0  0  0  0  0  0  0  0  0  0
   -5.5635    0.9551   -9.6933 H   0  0  0  0  0  0  0  0  0  0  0  0
   -6.4070    0.7531   -8.1605 H   0  0  0  0  0  0  0  0  0  0  0  0
   -6.1814    3.1698   -7.6711 H   0  0  0  0  0  0  0  0  0  0  0  0
   -5.1711    3.3924   -9.1029 H   0  0  0  0  0  0  0  0  0  0  0  0
   -6.8727    2.9579   -9.2764 H   0  0  0  0  0  0  0  0  0  0  0  0
    3.3789    0.5988    4.2614 H   0  0  0  0  0  0  0  0  0  0  0  0
    3.0519   -0.0797    2.0457 H   0  0  0  0  0  0  0  0  0  0  0  0
    2.2203    0.0169    0.4980 H   0  0  0  0  0  0  0  0  0  0  0  0
    3.6340    2.1090   -0.0190 H   0  0  0  0  0  0  0  0  0  0  0  0
    4.6057    0.6494    0.2169 H   0  0  0  0  0  0  0  0  0  0  0  0
    4.4693    1.8456    1.5083 H   0  0  0  0  0  0  0  0  0  0  0  0
    1.8834    1.2026   -1.0352 H   0  0  0  0  0  0  0  0  0  0  0  0
    1.3400    1.4653   -2.6690 H   0  0  0  0  0  0  0  0  0  0  0  0
   -0.4601   -0.3103   -2.3075 H   0  0  0  0  0  0  0  0  0  0  0  0
    0.1728   -0.5727   -0.6892 H   0  0  0  0  0  0  0  0  0  0  0  0
    1.1721   -0.9609   -2.0953 H   0  0  0  0  0  0  0  0  0  0  0  0
   -0.1206    0.9912   -5.7517 H   0  0  0  0  0  0  0  0  0  0  0  0
    0.5346    0.6614   -4.1646 H   0  0  0  0  0  0  0  0  0  0  0  0
    1.9116    2.3887   -5.2903 H   0  0  0  0  0  0  0  0  0  0  0  0
    0.4765    3.3522   -5.6446 H   0  0  0  0  0  0  0  0  0  0  0  0
    1.0380    3.2056   -3.9842 H   0  0  0  0  0  0  0  0  0  0  0  0
   -2.2671   -0.6711  -10.0880 H   0  0  0  0  0  0  0  0  0  0  0  0
  1  2  2  0  0  0  0
  2  3  1  0  0  0  0
  3  4  2  0  0  0  0
  3  5  1  0  0  0  0
  5  6  2  0  0  0  0
  6  7  1  0  0  0  0
  7  8  2  0  0  0  0
  8  9  1  0  0  0  0
  9 10  2  0  0  0  0
 10 11  1  0  0  0  0
 11 12  2  0  0  0  0
 12 13  1  0  0  0  0
 13 14  3  0  0  0  0
 12 15  1  0  0  0  0
 15 16  3  0  0  0  0
  8 17  1  0  0  0  0
 17 18  1  0  0  0  0
 18 19  1  0  0  0  0
 19 20  2  0  0  0  0
 20 21  1  0  0  0  0
 21 22  1  0  0  0  0
 21 23  1  0  0  0  0
  1 24  1  0  0  0  0
 24 25  1  0  0  0  0
 25 26  1  0  0  0  0
 26 27  1  0  0  0  0
 27 28  1  0  0  0  0
 28 29  1  0  0  0  0
 29 30  1  0  0  0  0
 30 31  1  0  0  0  0
 31 32  1  0  0  0  0
 32 33  2  0  0  0  0
 33 34  1  0  0  0  0
 34 35  1  0  0  0  0
 32 36  1  0  0  0  0
 36 37  1  0  0  0  0
 37 38  1  0  0  0  0
 38 39  1  0  0  0  0
 39 40  1  0  0  0  0
 40 41  1  0  0  0  0
 41 42  1  0  0  0  0
 40 43  2  0  0  0  0
 43 44  1  0  0  0  0
 44 45  1  0  0  0  0
 45 46  1  0  0  0  0
 46 47  1  0  0  0  0
 47 48  1  0  0  0  0
 48 49  1  0  0  0  0
 49 50  1  0  0  0  0
 50 51  1  0  0  0  0
 51 52  1  0  0  0  0
 52 53  1  0  0  0  0
 53 54  1  0  0  0  0
 54 55  1  0  0  0  0
 53 56  1  0  0  0  0
 56 57  1  0  0  0  0
 50 58  1  0  0  0  0
 58 59  1  0  0  0  0
 47 60  1  0  0  0  0
 60 61  1  0  0  0  0
 43 62  1  0  0  0  0
 62 63  2  0  0  0  0
 63 64  1  0  0  0  0
 64 65  2  0  0  0  0
 64 66  1  0  0  0  0
 66 67  2  0  0  0  0
 67 68  1  0  0  0  0
 67 69  1  0  0  0  0
 69 70  1  0  0  0  0
 69 71  2  0  0  0  0
 71 72  1  0  0  0  0
 71 73  1  0  0  0  0
 73 74  1  0  0  0  0
 73 75  2  0  0  0  0
 75 76  1  0  0  0  0
 76 77  2  0  0  0  0
 77 78  1  0  0  0  0
 78 79  3  0  0  0  0
 77 80  1  0  0  0  0
 80 81  3  0  0  0  0
 11  2  1  0  0  0  0
 23 17  1  0  0  0  0
 55 24  2  0  0  0  0
 76 63  1  0  0  0  0
 10  5  1  0  0  0  0
 22 18  1  0  0  0  0
 54 26  2  0  0  0  0
 75 66  1  0  0  0  0
 23  7  1  0  0  0  0
 52 27  2  0  0  0  0
 51 29  2  0  0  0  0
 49 30  2  0  0  0  0
 35 31  2  0  0  0  0
 48 36  2  0  0  0  0
 46 37  2  0  0  0  0
 45 39  2  0  0  0  0
  1 82  1  0  0  0  0
  6 83  1  0  0  0  0
  9 84  1  0  0  0  0
 17 85  1  0  0  0  0
 18 86  1  0  0  0  0
 19 87  1  0  0  0  0
 20 88  1  0  0  0  0
 21 89  1  0  0  0  0
 22 90  1  0  0  0  0
 22 91  1  0  0  0  0
 23 92  1  0  0  0  0
 41 93  1  0  0  0  0
 41 94  1  0  0  0  0
 42 95  1  0  0  0  0
 42 96  1  0  0  0  0
 42 97  1  0  0  0  0
 55 98  1  0  0  0  0
 56 99  1  0  0  0  0
 56100  1  0  0  0  0
 57101  1  0  0  0  0
 57102  1  0  0  0  0
 57103  1  0  0  0  0
 58104  1  0  0  0  0
 58105  1  0  0  0  0
 59106  1  0  0  0  0
 59107  1  0  0  0  0
 59108  1  0  0  0  0
 60109  1  0  0  0  0
 60110  1  0  0  0  0
 61111  1  0  0  0  0
 61112  1  0  0  0  0
 61113  1  0  0  0  0
 62114  1  0  0  0  0
M  END
