
  xtb     02112206313D
 energy: -216.067056567016 gnorm: 0.000309461063 xtb: 6.4.1 (unknown)
113128  0     0  0            999 V2000
   -0.4863   -0.9844   -7.3971 C   0  0  0  0  0  0  0  0  0  0  0  0
   -0.6715   -2.3282   -7.1907 C   0  0  0  0  0  0  0  0  0  0  0  0
   -0.2846   -3.0852   -5.9966 C   0  0  0  0  0  0  0  0  0  0  0  0
    0.4773   -2.7399   -5.1081 O   0  0  0  0  0  0  0  0  0  0  0  0
   -1.0003   -4.3681   -6.0701 C   0  0  0  0  0  0  0  0  0  0  0  0
   -1.0535   -5.3531   -5.0867 C   0  0  0  0  0  0  0  0  0  0  0  0
   -1.8589   -6.4185   -5.4086 C   0  0  0  0  0  0  0  0  0  0  0  0
   -2.5518   -6.5033   -6.6236 C   0  0  0  0  0  0  0  0  0  0  0  0
   -2.5012   -5.5410   -7.6052 C   0  0  0  0  0  0  0  0  0  0  0  0
   -1.6934   -4.4427   -7.2949 C   0  0  0  0  0  0  0  0  0  0  0  0
   -1.4371   -3.2146   -8.0473 C   0  0  0  0  0  0  0  0  0  0  0  0
   -1.8325   -2.9748   -9.3379 C   0  0  0  0  0  0  0  0  0  0  0  0
   -2.5446   -3.8954  -10.1344 C   0  0  0  0  0  0  0  0  0  0  0  0
   -3.1204   -4.5974  -10.8372 N   0  0  0  0  0  0  0  0  0  0  0  0
   -1.5597   -1.7979  -10.0657 C   0  0  0  0  0  0  0  0  0  0  0  0
   -1.3757   -0.8708  -10.7192 N   0  0  0  0  0  0  0  0  0  0  0  0
   -3.1781   -7.8283   -6.2641 C   0  0  0  0  0  0  0  0  0  0  0  0
   -2.5660   -9.0870   -6.9139 C   0  0  0  0  0  0  0  0  0  0  0  0
   -3.0452  -10.2171   -6.0312 C   0  0  0  0  0  0  0  0  0  0  0  0
   -2.3917  -10.1348   -4.8793 C   0  0  0  0  0  0  0  0  0  0  0  0
   -1.4599   -8.9474   -4.9637 C   0  0  0  0  0  0  0  0  0  0  0  0
   -1.1048   -8.9951   -6.4553 C   0  0  0  0  0  0  0  0  0  0  0  0
   -2.4074   -7.7310   -4.9082 C   0  0  0  0  0  0  0  0  0  0  0  0
    0.0830   -0.0137   -6.5619 C   0  0  0  0  0  0  0  0  0  0  0  0
   -0.0630    1.3679   -6.7706 C   0  0  0  0  0  0  0  0  0  0  0  0
   -0.7708    2.0011   -7.9241 C   0  0  0  0  0  0  0  0  0  0  0  0
   -2.2784    2.0752   -7.6668 C   0  0  0  0  0  0  0  0  0  0  0  0
    0.4470    2.0983   -5.7027 C   0  0  0  0  0  0  0  0  0  0  0  0
    0.3726    3.8028   -5.2809 S   0  0  0  0  0  0  0  0  0  0  0  0
    1.0887    3.4282   -3.7473 C   0  0  0  0  0  0  0  0  0  0  0  0
    1.3240    4.0318   -2.5030 C   0  0  0  0  0  0  0  0  0  0  0  0
    0.9400    5.2930   -1.9908 C   0  0  0  0  0  0  0  0  0  0  0  0
    0.9728    5.5034   -0.5701 C   0  0  0  0  0  0  0  0  0  0  0  0
    0.4827    6.6826   -0.2237 N   0  0  0  0  0  0  0  0  0  0  0  0
    0.0308    7.4674   -1.5652 S   0  0  0  0  0  0  0  0  0  0  0  0
    0.4329    6.3271   -2.6416 N   0  0  0  0  0  0  0  0  0  0  0  0
    1.5223    4.5010    0.2615 C   0  0  0  0  0  0  0  0  0  0  0  0
    1.6538    4.4011    1.6564 C   0  0  0  0  0  0  0  0  0  0  0  0
    1.0996    5.1961    3.0909 S   0  0  0  0  0  0  0  0  0  0  0  0
    1.8059    3.9157    4.0461 C   0  0  0  0  0  0  0  0  0  0  0  0
    1.7638    3.5671    5.3999 C   0  0  0  0  0  0  0  0  0  0  0  0
    0.9666    4.1567    6.8041 S   0  0  0  0  0  0  0  0  0  0  0  0
    1.5528    2.7699    7.7320 C   0  0  0  0  0  0  0  0  0  0  0  0
    2.3766    1.9243    6.9654 C   0  0  0  0  0  0  0  0  0  0  0  0
    3.0217    0.6602    7.4337 C   0  0  0  0  0  0  0  0  0  0  0  0
    2.0611   -0.5258    7.3081 C   0  0  0  0  0  0  0  0  0  0  0  0
    2.4550    2.3702    5.6572 C   0  0  0  0  0  0  0  0  0  0  0  0
    3.1702    1.6719    4.2263 S   0  0  0  0  0  0  0  0  0  0  0  0
    2.4899    2.9621    3.2769 C   0  0  0  0  0  0  0  0  0  0  0  0
    2.3749    3.2275    1.9121 C   0  0  0  0  0  0  0  0  0  0  0  0
    2.6718    2.5869    0.7395 N   0  0  0  0  0  0  0  0  0  0  0  0
    2.1027    3.3231   -0.2877 C   0  0  0  0  0  0  0  0  0  0  0  0
    1.8690    3.0242   -1.6533 C   0  0  0  0  0  0  0  0  0  0  0  0
    1.9464    1.8450   -2.3664 N   0  0  0  0  0  0  0  0  0  0  0  0
    1.4350    2.0782   -3.6116 C   0  0  0  0  0  0  0  0  0  0  0  0
    1.0494    1.3078   -4.7117 C   0  0  0  0  0  0  0  0  0  0  0  0
    0.9438   -0.3724   -5.0657 S   0  0  0  0  0  0  0  0  0  0  0  0
    2.1578    0.4886   -1.9167 C   0  0  0  0  0  0  0  0  0  0  0  0
    1.0738    0.0395   -0.9409 C   0  0  0  0  0  0  0  0  0  0  0  0
    3.7639    1.6359    0.6932 C   0  0  0  0  0  0  0  0  0  0  0  0
    4.8861    2.1114   -0.2240 C   0  0  0  0  0  0  0  0  0  0  0  0
    1.1906    2.4603    9.0455 C   0  0  0  0  0  0  0  0  0  0  0  0
    0.2666    3.0360    9.8831 C   0  0  0  0  0  0  0  0  0  0  0  0
   -0.5642    4.2003    9.5839 C   0  0  0  0  0  0  0  0  0  0  0  0
   -0.4671    4.9573    8.6381 O   0  0  0  0  0  0  0  0  0  0  0  0
   -1.5735    4.2627   10.6659 C   0  0  0  0  0  0  0  0  0  0  0  0
   -2.6710    5.0977   10.7735 C   0  0  0  0  0  0  0  0  0  0  0  0
   -2.9297    6.3751    9.6724 Cl  0  0  0  0  0  0  0  0  0  0  0  0
   -3.5855    4.8573   11.8096 C   0  0  0  0  0  0  0  0  0  0  0  0
   -4.9439    5.8771   12.0005 Cl  0  0  0  0  0  0  0  0  0  0  0  0
   -3.4143    3.7605   12.6519 C   0  0  0  0  0  0  0  0  0  0  0  0
   -4.5987    3.4262   13.8401 Cl  0  0  0  0  0  0  0  0  0  0  0  0
   -2.2996    2.9136   12.5328 C   0  0  0  0  0  0  0  0  0  0  0  0
   -2.2594    1.4880   13.4854 Cl  0  0  0  0  0  0  0  0  0  0  0  0
   -1.3364    3.2132   11.5779 C   0  0  0  0  0  0  0  0  0  0  0  0
   -0.0822    2.5589   11.2078 C   0  0  0  0  0  0  0  0  0  0  0  0
    0.7122    1.7900   12.0197 C   0  0  0  0  0  0  0  0  0  0  0  0
    1.8993    1.1497   11.6023 C   0  0  0  0  0  0  0  0  0  0  0  0
    2.8570    0.5740   11.3350 N   0  0  0  0  0  0  0  0  0  0  0  0
    0.5727    1.6458   13.4172 C   0  0  0  0  0  0  0  0  0  0  0  0
    0.6165    1.5518   14.5601 N   0  0  0  0  0  0  0  0  0  0  0  0
   -0.9198   -0.5761   -8.3004 H   0  0  0  0  0  0  0  0  0  0  0  0
   -0.5098   -5.2429   -4.1614 H   0  0  0  0  0  0  0  0  0  0  0  0
   -3.0527   -5.6147   -8.5275 H   0  0  0  0  0  0  0  0  0  0  0  0
   -4.2662   -7.8463   -6.2444 H   0  0  0  0  0  0  0  0  0  0  0  0
   -2.7522   -9.1852   -7.9797 H   0  0  0  0  0  0  0  0  0  0  0  0
   -3.8248  -10.9032   -6.3053 H   0  0  0  0  0  0  0  0  0  0  0  0
   -2.5163  -10.7381   -3.9992 H   0  0  0  0  0  0  0  0  0  0  0  0
   -0.6385   -8.9183   -4.2528 H   0  0  0  0  0  0  0  0  0  0  0  0
   -0.5354   -9.8860   -6.7146 H   0  0  0  0  0  0  0  0  0  0  0  0
   -0.5819   -8.1109   -6.8151 H   0  0  0  0  0  0  0  0  0  0  0  0
   -2.9828   -7.6811   -3.9854 H   0  0  0  0  0  0  0  0  0  0  0  0
   -0.5827    1.4478   -8.8455 H   0  0  0  0  0  0  0  0  0  0  0  0
   -0.3828    3.0140   -8.0476 H   0  0  0  0  0  0  0  0  0  0  0  0
   -2.7746    2.5471   -8.5102 H   0  0  0  0  0  0  0  0  0  0  0  0
   -2.4800    2.6597   -6.7721 H   0  0  0  0  0  0  0  0  0  0  0  0
   -2.6963    1.0799   -7.5316 H   0  0  0  0  0  0  0  0  0  0  0  0
    3.8979    0.4724    6.8090 H   0  0  0  0  0  0  0  0  0  0  0  0
    3.3564    0.7543    8.4676 H   0  0  0  0  0  0  0  0  0  0  0  0
    1.1718   -0.3681    7.9138 H   0  0  0  0  0  0  0  0  0  0  0  0
    2.5520   -1.4351    7.6435 H   0  0  0  0  0  0  0  0  0  0  0  0
    1.7546   -0.6568    6.2727 H   0  0  0  0  0  0  0  0  0  0  0  0
    2.1195   -0.1448   -2.8059 H   0  0  0  0  0  0  0  0  0  0  0  0
    3.1546    0.3842   -1.4883 H   0  0  0  0  0  0  0  0  0  0  0  0
    0.1032    0.0709   -1.4298 H   0  0  0  0  0  0  0  0  0  0  0  0
    1.0363    0.6813   -0.0640 H   0  0  0  0  0  0  0  0  0  0  0  0
    1.2655   -0.9817   -0.6239 H   0  0  0  0  0  0  0  0  0  0  0  0
    3.4066    0.6446    0.4075 H   0  0  0  0  0  0  0  0  0  0  0  0
    4.1448    1.5540    1.7143 H   0  0  0  0  0  0  0  0  0  0  0  0
    4.5365    2.2421   -1.2451 H   0  0  0  0  0  0  0  0  0  0  0  0
    5.2747    3.0652    0.1255 H   0  0  0  0  0  0  0  0  0  0  0  0
    5.6951    1.3859   -0.2213 H   0  0  0  0  0  0  0  0  0  0  0  0
    1.6729    1.5692    9.4233 H   0  0  0  0  0  0  0  0  0  0  0  0
  1  2  2  0  0  0  0
  2  3  1  0  0  0  0
  3  4  2  0  0  0  0
  3  5  1  0  0  0  0
  5  6  2  0  0  0  0
  6  7  1  0  0  0  0
  7  8  2  0  0  0  0
  8  9  1  0  0  0  0
  9 10  2  0  0  0  0
 10 11  1  0  0  0  0
 11 12  2  0  0  0  0
 12 13  1  0  0  0  0
 13 14  3  0  0  0  0
 12 15  1  0  0  0  0
 15 16  3  0  0  0  0
  8 17  1  0  0  0  0
 17 18  1  0  0  0  0
 18 19  1  0  0  0  0
 19 20  2  0  0  0  0
 20 21  1  0  0  0  0
 21 22  1  0  0  0  0
 21 23  1  0  0  0  0
  1 24  1  0  0  0  0
 24 25  2  0  0  0  0
 25 26  1  0  0  0  0
 26 27  1  0  0  0  0
 25 28  1  0  0  0  0
 28 29  1  0  0  0  0
 29 30  1  0  0  0  0
 30 31  1  0  0  0  0
 31 32  1  0  0  0  0
 32 33  1  0  0  0  0
 33 34  2  0  0  0  0
 34 35  1  0  0  0  0
 35 36  1  0  0  0  0
 33 37  1  0  0  0  0
 37 38  1  0  0  0  0
 38 39  1  0  0  0  0
 39 40  1  0  0  0  0
 40 41  1  0  0  0  0
 41 42  1  0  0  0  0
 42 43  1  0  0  0  0
 43 44  2  0  0  0  0
 44 45  1  0  0  0  0
 45 46  1  0  0  0  0
 44 47  1  0  0  0  0
 47 48  1  0  0  0  0
 48 49  1  0  0  0  0
 49 50  1  0  0  0  0
 50 51  1  0  0  0  0
 51 52  1  0  0  0  0
 52 53  1  0  0  0  0
 53 54  1  0  0  0  0
 54 55  1  0  0  0  0
 55 56  1  0  0  0  0
 56 57  1  0  0  0  0
 54 58  1  0  0  0  0
 58 59  1  0  0  0  0
 51 60  1  0  0  0  0
 60 61  1  0  0  0  0
 43 62  1  0  0  0  0
 62 63  2  0  0  0  0
 63 64  1  0  0  0  0
 64 65  2  0  0  0  0
 64 66  1  0  0  0  0
 66 67  2  0  0  0  0
 67 68  1  0  0  0  0
 67 69  1  0  0  0  0
 69 70  1  0  0  0  0
 69 71  2  0  0  0  0
 71 72  1  0  0  0  0
 71 73  1  0  0  0  0
 73 74  1  0  0  0  0
 73 75  2  0  0  0  0
 75 76  1  0  0  0  0
 76 77  2  0  0  0  0
 77 78  1  0  0  0  0
 78 79  3  0  0  0  0
 77 80  1  0  0  0  0
 80 81  3  0  0  0  0
 11  2  1  0  0  0  0
 23 17  1  0  0  0  0
 57 24  1  0  0  0  0
 76 63  1  0  0  0  0
 10  5  1  0  0  0  0
 22 18  1  0  0  0  0
 56 28  2  0  0  0  0
 75 66  1  0  0  0  0
 23  7  1  0  0  0  0
 55 30  2  0  0  0  0
 53 31  2  0  0  0  0
 36 32  2  0  0  0  0
 52 37  2  0  0  0  0
 50 38  2  0  0  0  0
 49 40  2  0  0  0  0
 47 41  2  0  0  0  0
  1 82  1  0  0  0  0
  6 83  1  0  0  0  0
  9 84  1  0  0  0  0
 17 85  1  0  0  0  0
 18 86  1  0  0  0  0
 19 87  1  0  0  0  0
 20 88  1  0  0  0  0
 21 89  1  0  0  0  0
 22 90  1  0  0  0  0
 22 91  1  0  0  0  0
 23 92  1  0  0  0  0
 26 93  1  0  0  0  0
 26 94  1  0  0  0  0
 27 95  1  0  0  0  0
 27 96  1  0  0  0  0
 27 97  1  0  0  0  0
 45 98  1  0  0  0  0
 45 99  1  0  0  0  0
 46100  1  0  0  0  0
 46101  1  0  0  0  0
 46102  1  0  0  0  0
 58103  1  0  0  0  0
 58104  1  0  0  0  0
 59105  1  0  0  0  0
 59106  1  0  0  0  0
 59107  1  0  0  0  0
 60108  1  0  0  0  0
 60109  1  0  0  0  0
 61110  1  0  0  0  0
 61111  1  0  0  0  0
 61112  1  0  0  0  0
 62113  1  0  0  0  0
M  END
