
  xtb     02022206233D
 energy: -214.535672318326 gnorm: 0.000231633800 xtb: 6.4.1 (unknown)
122137  0     0  0            999 V2000
   -7.2897    1.1253   -0.6193 C   0  0  0  0  0  0  0  0  0  0  0  0
   -8.1088    1.6534    0.3435 C   0  0  0  0  0  0  0  0  0  0  0  0
   -7.8527    2.8767    1.1146 C   0  0  0  0  0  0  0  0  0  0  0  0
   -7.0415    3.7511    0.8710 O   0  0  0  0  0  0  0  0  0  0  0  0
   -8.7750    2.8329    2.2643 C   0  0  0  0  0  0  0  0  0  0  0  0
   -8.8060    3.7059    3.3491 C   0  0  0  0  0  0  0  0  0  0  0  0
   -9.7300    3.3699    4.3097 C   0  0  0  0  0  0  0  0  0  0  0  0
  -10.5658    2.2512    4.1979 C   0  0  0  0  0  0  0  0  0  0  0  0
  -10.5526    1.3877    3.1281 C   0  0  0  0  0  0  0  0  0  0  0  0
   -9.6166    1.7090    2.1407 C   0  0  0  0  0  0  0  0  0  0  0  0
   -9.2763    1.0061    0.9050 C   0  0  0  0  0  0  0  0  0  0  0  0
   -9.9674   -0.0532    0.3735 C   0  0  0  0  0  0  0  0  0  0  0  0
  -11.1198   -0.6232    0.9519 C   0  0  0  0  0  0  0  0  0  0  0  0
  -12.0610   -1.1362    1.3643 N   0  0  0  0  0  0  0  0  0  0  0  0
   -9.6525   -0.7037   -0.8370 C   0  0  0  0  0  0  0  0  0  0  0  0
   -9.4643   -1.2838   -1.8112 N   0  0  0  0  0  0  0  0  0  0  0  0
  -11.2201    2.5060    5.5331 C   0  0  0  0  0  0  0  0  0  0  0  0
  -12.6302    3.1318    5.5073 C   0  0  0  0  0  0  0  0  0  0  0  0
  -12.8001    3.6946    6.9000 C   0  0  0  0  0  0  0  0  0  0  0  0
  -12.0094    4.7549    7.0059 C   0  0  0  0  0  0  0  0  0  0  0  0
  -11.2918    4.9269    5.6865 C   0  0  0  0  0  0  0  0  0  0  0  0
  -12.3797    4.4284    4.7266 C   0  0  0  0  0  0  0  0  0  0  0  0
  -10.2888    3.7546    5.6572 C   0  0  0  0  0  0  0  0  0  0  0  0
   -6.0626    1.5860   -1.1185 C   0  0  0  0  0  0  0  0  0  0  0  0
   -5.3268    3.1588   -0.8023 S   0  0  0  0  0  0  0  0  0  0  0  0
   -3.9269    2.6791   -1.6790 C   0  0  0  0  0  0  0  0  0  0  0  0
   -2.6344    3.1058   -1.9804 C   0  0  0  0  0  0  0  0  0  0  0  0
   -1.6187    4.4853   -1.6676 S   0  0  0  0  0  0  0  0  0  0  0  0
   -0.2952    3.6065   -2.3487 C   0  0  0  0  0  0  0  0  0  0  0  0
    1.0971    3.7610   -2.4680 C   0  0  0  0  0  0  0  0  0  0  0  0
    1.9665    4.8365   -2.1785 C   0  0  0  0  0  0  0  0  0  0  0  0
    3.3839    4.6523   -2.3351 C   0  0  0  0  0  0  0  0  0  0  0  0
    4.0686    5.7508   -2.0602 N   0  0  0  0  0  0  0  0  0  0  0  0
    3.0256    6.9149   -1.6382 S   0  0  0  0  0  0  0  0  0  0  0  0
    1.6590    6.0623   -1.7863 N   0  0  0  0  0  0  0  0  0  0  0  0
    3.8747    3.3636   -2.6459 C   0  0  0  0  0  0  0  0  0  0  0  0
    5.1588    2.8051   -2.5421 C   0  0  0  0  0  0  0  0  0  0  0  0
    6.7596    3.2758   -2.0847 S   0  0  0  0  0  0  0  0  0  0  0  0
    7.2275    1.5903   -2.0603 C   0  0  0  0  0  0  0  0  0  0  0  0
    8.3856    0.9349   -1.6224 C   0  0  0  0  0  0  0  0  0  0  0  0
    9.5826    1.6371   -1.0756 C   0  0  0  0  0  0  0  0  0  0  0  0
    9.5220    1.6912    0.4527 C   0  0  0  0  0  0  0  0  0  0  0  0
    8.2120   -0.4408   -1.6116 C   0  0  0  0  0  0  0  0  0  0  0  0
    6.6553   -0.9218   -2.2856 S   0  0  0  0  0  0  0  0  0  0  0  0
    6.1924    0.7312   -2.4450 C   0  0  0  0  0  0  0  0  0  0  0  0
    5.0159    1.4243   -2.7293 C   0  0  0  0  0  0  0  0  0  0  0  0
    3.7129    1.1173   -3.0113 N   0  0  0  0  0  0  0  0  0  0  0  0
    2.9855    2.2913   -2.9381 C   0  0  0  0  0  0  0  0  0  0  0  0
    1.5940    2.5368   -2.9805 C   0  0  0  0  0  0  0  0  0  0  0  0
    0.5242    1.6979   -3.2782 N   0  0  0  0  0  0  0  0  0  0  0  0
   -0.6226    2.3357   -2.8418 C   0  0  0  0  0  0  0  0  0  0  0  0
   -1.9776    2.0335   -2.6350 C   0  0  0  0  0  0  0  0  0  0  0  0
   -2.8448    0.9730   -2.7561 N   0  0  0  0  0  0  0  0  0  0  0  0
   -4.0296    1.3553   -2.1762 C   0  0  0  0  0  0  0  0  0  0  0  0
   -5.2414    0.7573   -1.8890 C   0  0  0  0  0  0  0  0  0  0  0  0
   -2.6136   -0.3469   -3.2846 C   0  0  0  0  0  0  0  0  0  0  0  0
   -3.1297   -0.4837   -4.7168 C   0  0  0  0  0  0  0  0  0  0  0  0
    0.4687    0.7804   -4.4029 C   0  0  0  0  0  0  0  0  0  0  0  0
    1.3363    1.2347   -5.5730 C   0  0  0  0  0  0  0  0  0  0  0  0
    3.2564   -0.2506   -2.9185 C   0  0  0  0  0  0  0  0  0  0  0  0
    2.5327   -0.5186   -1.6021 C   0  0  0  0  0  0  0  0  0  0  0  0
    9.1037   -1.4164   -1.1057 C   0  0  0  0  0  0  0  0  0  0  0  0
    8.7833   -2.6222   -0.5612 C   0  0  0  0  0  0  0  0  0  0  0  0
    9.8042   -3.6980   -0.4472 C   0  0  0  0  0  0  0  0  0  0  0  0
   11.0011   -3.5814   -0.5967 O   0  0  0  0  0  0  0  0  0  0  0  0
    9.0364   -4.9236   -0.1669 C   0  0  0  0  0  0  0  0  0  0  0  0
    9.4912   -6.2266   -0.0476 C   0  0  0  0  0  0  0  0  0  0  0  0
    8.5770   -7.2333    0.2265 C   0  0  0  0  0  0  0  0  0  0  0  0
    8.8809   -8.5402    0.3792 O   0  0  0  0  0  0  0  0  0  0  0  0
   10.2268   -8.9374    0.2559 C   0  0  0  0  0  0  0  0  0  0  0  0
    7.1955   -6.9173    0.3758 C   0  0  0  0  0  0  0  0  0  0  0  0
    6.3964   -7.9728    0.6386 O   0  0  0  0  0  0  0  0  0  0  0  0
    5.0190   -7.7476    0.8380 C   0  0  0  0  0  0  0  0  0  0  0  0
    6.7558   -5.6071    0.2577 C   0  0  0  0  0  0  0  0  0  0  0  0
    7.6799   -4.6059   -0.0110 C   0  0  0  0  0  0  0  0  0  0  0  0
    7.5189   -3.1632   -0.1038 C   0  0  0  0  0  0  0  0  0  0  0  0
    6.4599   -2.4546    0.4089 C   0  0  0  0  0  0  0  0  0  0  0  0
    5.2528   -3.0398    0.8315 C   0  0  0  0  0  0  0  0  0  0  0  0
    4.2271   -3.4552    1.1424 N   0  0  0  0  0  0  0  0  0  0  0  0
    6.4767   -1.0632    0.6348 C   0  0  0  0  0  0  0  0  0  0  0  0
    6.4571    0.0541    0.9010 N   0  0  0  0  0  0  0  0  0  0  0  0
   -7.5673    0.1533   -1.0107 H   0  0  0  0  0  0  0  0  0  0  0  0
   -8.1353    4.5492    3.4011 H   0  0  0  0  0  0  0  0  0  0  0  0
  -11.1924    0.5234    3.0628 H   0  0  0  0  0  0  0  0  0  0  0  0
  -11.1217    1.7084    6.2672 H   0  0  0  0  0  0  0  0  0  0  0  0
  -13.4142    2.4720    5.1461 H   0  0  0  0  0  0  0  0  0  0  0  0
  -13.4141    3.2448    7.6580 H   0  0  0  0  0  0  0  0  0  0  0  0
  -11.8310    5.3676    7.8702 H   0  0  0  0  0  0  0  0  0  0  0  0
  -10.8575    5.9033    5.4892 H   0  0  0  0  0  0  0  0  0  0  0  0
  -12.0333    4.2718    3.7068 H   0  0  0  0  0  0  0  0  0  0  0  0
  -13.2522    5.0796    4.7193 H   0  0  0  0  0  0  0  0  0  0  0  0
   -9.5704    3.7887    6.4744 H   0  0  0  0  0  0  0  0  0  0  0  0
   10.4934    1.1209   -1.3867 H   0  0  0  0  0  0  0  0  0  0  0  0
    9.6013    2.6530   -1.4746 H   0  0  0  0  0  0  0  0  0  0  0  0
    9.5442    0.6869    0.8692 H   0  0  0  0  0  0  0  0  0  0  0  0
    8.6026    2.1720    0.7757 H   0  0  0  0  0  0  0  0  0  0  0  0
   10.3683    2.2520    0.8406 H   0  0  0  0  0  0  0  0  0  0  0  0
   -5.5396   -0.2357   -2.1744 H   0  0  0  0  0  0  0  0  0  0  0  0
   -3.1387   -1.0602   -2.6418 H   0  0  0  0  0  0  0  0  0  0  0  0
   -1.5463   -0.5676   -3.2295 H   0  0  0  0  0  0  0  0  0  0  0  0
   -2.9295   -1.4837   -5.0915 H   0  0  0  0  0  0  0  0  0  0  0  0
   -2.6526    0.2389   -5.3755 H   0  0  0  0  0  0  0  0  0  0  0  0
   -4.2020   -0.3085   -4.7446 H   0  0  0  0  0  0  0  0  0  0  0  0
   -0.5689    0.7633   -4.7399 H   0  0  0  0  0  0  0  0  0  0  0  0
    0.7347   -0.2354   -4.0915 H   0  0  0  0  0  0  0  0  0  0  0  0
    1.1975    0.5554   -6.4104 H   0  0  0  0  0  0  0  0  0  0  0  0
    2.3908    1.2535   -5.3138 H   0  0  0  0  0  0  0  0  0  0  0  0
    1.0450    2.2352   -5.8851 H   0  0  0  0  0  0  0  0  0  0  0  0
    2.6271   -0.4995   -3.7728 H   0  0  0  0  0  0  0  0  0  0  0  0
    4.1475   -0.8807   -2.9771 H   0  0  0  0  0  0  0  0  0  0  0  0
    3.1878   -0.2900   -0.7644 H   0  0  0  0  0  0  0  0  0  0  0  0
    2.2511   -1.5662   -1.5400 H   0  0  0  0  0  0  0  0  0  0  0  0
    1.6388    0.0943   -1.5164 H   0  0  0  0  0  0  0  0  0  0  0  0
   10.1647   -1.2044   -1.1953 H   0  0  0  0  0  0  0  0  0  0  0  0
   10.5446   -6.4253   -0.1591 H   0  0  0  0  0  0  0  0  0  0  0  0
   10.6194   -8.7200   -0.7422 H   0  0  0  0  0  0  0  0  0  0  0  0
   10.2293  -10.0135    0.4191 H   0  0  0  0  0  0  0  0  0  0  0  0
   10.8573   -8.4544    1.0086 H   0  0  0  0  0  0  0  0  0  0  0  0
    4.5951   -8.7239    1.0655 H   0  0  0  0  0  0  0  0  0  0  0  0
    4.5433   -7.3461   -0.0620 H   0  0  0  0  0  0  0  0  0  0  0  0
    4.8388   -7.0680    1.6762 H   0  0  0  0  0  0  0  0  0  0  0  0
    5.7117   -5.3694    0.3657 H   0  0  0  0  0  0  0  0  0  0  0  0
  1  2  2  0  0  0  0
  2  3  1  0  0  0  0
  3  4  2  0  0  0  0
  3  5  1  0  0  0  0
  5  6  2  0  0  0  0
  6  7  1  0  0  0  0
  7  8  2  0  0  0  0
  8  9  1  0  0  0  0
  9 10  2  0  0  0  0
 10 11  1  0  0  0  0
 11 12  2  0  0  0  0
 12 13  1  0  0  0  0
 13 14  3  0  0  0  0
 12 15  1  0  0  0  0
 15 16  3  0  0  0  0
  8 17  1  0  0  0  0
 17 18  1  0  0  0  0
 18 19  1  0  0  0  0
 19 20  2  0  0  0  0
 20 21  1  0  0  0  0
 21 22  1  0  0  0  0
 21 23  1  0  0  0  0
  1 24  1  0  0  0  0
 24 25  1  0  0  0  0
 25 26  1  0  0  0  0
 26 27  1  0  0  0  0
 27 28  1  0  0  0  0
 28 29  1  0  0  0  0
 29 30  1  0  0  0  0
 30 31  1  0  0  0  0
 31 32  1  0  0  0  0
 32 33  2  0  0  0  0
 33 34  1  0  0  0  0
 34 35  1  0  0  0  0
 32 36  1  0  0  0  0
 36 37  1  0  0  0  0
 37 38  1  0  0  0  0
 38 39  1  0  0  0  0
 39 40  1  0  0  0  0
 40 41  1  0  0  0  0
 41 42  1  0  0  0  0
 40 43  2  0  0  0  0
 43 44  1  0  0  0  0
 44 45  1  0  0  0  0
 45 46  1  0  0  0  0
 46 47  1  0  0  0  0
 47 48  1  0  0  0  0
 48 49  1  0  0  0  0
 49 50  1  0  0  0  0
 50 51  1  0  0  0  0
 51 52  1  0  0  0  0
 52 53  1  0  0  0  0
 53 54  1  0  0  0  0
 54 55  1  0  0  0  0
 53 56  1  0  0  0  0
 56 57  1  0  0  0  0
 50 58  1  0  0  0  0
 58 59  1  0  0  0  0
 47 60  1  0  0  0  0
 60 61  1  0  0  0  0
 43 62  1  0  0  0  0
 62 63  2  0  0  0  0
 63 64  1  0  0  0  0
 64 65  2  0  0  0  0
 64 66  1  0  0  0  0
 66 67  2  0  0  0  0
 67 68  1  0  0  0  0
 68 69  1  0  0  0  0
 69 70  1  0  0  0  0
 68 71  2  0  0  0  0
 71 72  1  0  0  0  0
 72 73  1  0  0  0  0
 71 74  1  0  0  0  0
 74 75  2  0  0  0  0
 75 76  1  0  0  0  0
 76 77  2  0  0  0  0
 77 78  1  0  0  0  0
 78 79  3  0  0  0  0
 77 80  1  0  0  0  0
 80 81  3  0  0  0  0
 11  2  1  0  0  0  0
 23 17  1  0  0  0  0
 55 24  2  0  0  0  0
 76 63  1  0  0  0  0
 10  5  1  0  0  0  0
 22 18  1  0  0  0  0
 54 26  2  0  0  0  0
 75 66  1  0  0  0  0
 23  7  1  0  0  0  0
 52 27  2  0  0  0  0
 51 29  2  0  0  0  0
 49 30  2  0  0  0  0
 35 31  2  0  0  0  0
 48 36  2  0  0  0  0
 46 37  2  0  0  0  0
 45 39  2  0  0  0  0
  1 82  1  0  0  0  0
  6 83  1  0  0  0  0
  9 84  1  0  0  0  0
 17 85  1  0  0  0  0
 18 86  1  0  0  0  0
 19 87  1  0  0  0  0
 20 88  1  0  0  0  0
 21 89  1  0  0  0  0
 22 90  1  0  0  0  0
 22 91  1  0  0  0  0
 23 92  1  0  0  0  0
 41 93  1  0  0  0  0
 41 94  1  0  0  0  0
 42 95  1  0  0  0  0
 42 96  1  0  0  0  0
 42 97  1  0  0  0  0
 55 98  1  0  0  0  0
 56 99  1  0  0  0  0
 56100  1  0  0  0  0
 57101  1  0  0  0  0
 57102  1  0  0  0  0
 57103  1  0  0  0  0
 58104  1  0  0  0  0
 58105  1  0  0  0  0
 59106  1  0  0  0  0
 59107  1  0  0  0  0
 59108  1  0  0  0  0
 60109  1  0  0  0  0
 60110  1  0  0  0  0
 61111  1  0  0  0  0
 61112  1  0  0  0  0
 61113  1  0  0  0  0
 62114  1  0  0  0  0
 67115  1  0  0  0  0
 70116  1  0  0  0  0
 70117  1  0  0  0  0
 70118  1  0  0  0  0
 73119  1  0  0  0  0
 73120  1  0  0  0  0
 73121  1  0  0  0  0
 74122  1  0  0  0  0
M  END
