124

C          4.76140        7.69000        0.75930
C          5.81940        7.64970        1.62940
C          6.40490        6.47790        2.31540
O          6.29390        5.29630        2.04720
C          7.17150        7.02260        3.45240
C          7.80360        6.29110        4.45610
C          8.41270        7.06620        5.41310
C          8.39860        8.46690        5.37470
C          7.79150        9.20060        4.38330
C          7.16310        8.42960        3.40060
C          6.41400        8.83830        2.21640
C          6.36170       10.10920        1.70660
C          5.74700       10.46910        0.48810
N          5.29980       10.83770       -0.50340
C          6.97770       11.22920        2.30200
N          7.44980       12.18160        2.73650
C          9.17570        8.58970        6.66190
C          8.36420        8.95450        7.92330
C          9.26290        8.53680        9.06480
C          9.28030        7.21050        9.10020
C          8.39340        6.70960        7.98330
C          7.33370        7.81890        7.97060
C          9.19450        7.02800        6.70290
C          4.04750        6.64760        0.14320
S          2.47140        7.07750       -0.55270
C          2.19860        5.43830       -0.97810
C          1.22780        4.59410       -1.51080
S         -0.42690        4.67440       -2.04690
C         -0.39710        2.95620       -2.24150
C         -1.30800        1.93690       -2.57380
C         -2.66290        1.96450       -2.97010
C         -3.34820        0.71910       -3.17970
N         -4.59980        0.89490       -3.57230
S         -4.89220        2.48220       -3.66890
N         -3.43500        3.01320       -3.20840
C         -2.68320       -0.48880       -2.87140
C         -3.17150       -1.79040       -2.69540
S         -4.66550       -2.60830       -2.80830
C         -3.90670       -4.03980       -2.11090
C         -2.53910       -3.86090       -1.81110
C         -1.74040       -4.90980       -1.09520
C         -2.03580       -4.88630        0.40850
C         -2.12850       -2.57110       -2.15810
N         -0.99350       -1.78540       -2.06320
C         -1.31790       -0.50750       -2.47840
C         -0.60490        0.71400       -2.44710
N          0.72970        0.97880       -2.13120
C          0.83200        2.35050       -1.95390
C          1.77590        3.28650       -1.50710
N          3.05290        3.32070       -1.00120
C          3.30790        4.62130       -0.64330
C          4.34100        5.30150       -0.01490
C          3.87500        2.19880       -0.62200
C          3.26490        1.42710        0.54610
C          1.81410        0.24360       -2.76090
C          2.43760        1.01970       -3.92040
C          0.21610       -2.22540       -1.40950
C          1.07160       -3.13530       -2.29640
C         -4.58300       -5.24000       -1.85210
C         -5.90840       -5.57840       -1.95010
C         -7.02010       -4.70170       -2.33950
O         -6.95640       -3.56640       -2.77310
C         -8.25410       -5.47260       -2.09850
C         -9.56410       -5.02780       -2.25970
C        -10.51580       -5.96210       -1.92740
C        -10.18860       -7.24320       -1.46440
C         -8.90030       -7.69560       -1.30470
C         -7.91550       -6.76230       -1.64300
C         -6.45860       -6.86980       -1.59050
C         -5.76120       -8.01270       -1.28380
C         -6.35580       -9.25280       -0.97250
N         -6.76180      -10.29510       -0.71190
C         -4.35790       -8.14050       -1.25190
N         -3.22540       -8.33500       -1.20130
C        -11.63450       -7.64630       -1.31410
C        -12.21100       -8.56810       -2.40910
C        -13.70690       -8.39790       -2.27420
C        -14.01670       -7.18590       -2.71670
C        -12.73520       -6.51630       -3.15790
C        -11.96390       -7.73740       -3.67510
C        -11.99950       -6.21870       -1.83400
H          4.34720        8.67140        0.55630
H          7.78950        5.21240        4.44830
H          7.78780       10.27760        4.36670
H         10.12280        9.12160        6.59690
H          7.98840        9.97370        7.94370
H          9.81890        9.22550        9.67350
H          9.85380        6.56990        9.74420
H          8.04370        5.68330        8.05910
H          6.74450        7.83580        8.88610
H          6.66790        7.78710        7.11010
H         10.15520        6.51790        6.66320
H         -1.97130       -5.90140       -1.48810
H         -0.67610       -4.75120       -1.24440
H         -3.08680       -5.08820        0.59820
H         -1.44270       -5.64370        0.91450
H         -1.79790       -3.91290        0.83430
H          5.25840        4.87140        0.33890
H          4.85110        2.59400       -0.33550
H          4.01380        1.54220       -1.48560
H          3.88180        0.56570        0.78710
H          2.26180        1.08670        0.29830
H          3.20340        2.06690        1.42280
H          2.57700       -0.01160       -2.01880
H          1.38920       -0.67190       -3.16450
H          3.20030        0.40900       -4.39720
H          2.89440        1.94650       -3.58370
H          1.67590        1.26310       -4.65810
H          0.78090       -1.34960       -1.08980
H         -0.07180       -2.77430       -0.50790
H          1.52300       -2.59680       -3.12500
H          0.46690       -3.93110       -2.72280
H          1.86810       -3.57810       -1.70420
H         -3.94340       -6.02590       -1.47720
H         -9.77010       -4.02840       -2.60940
H         -8.66700       -8.68150       -0.93940
H        -11.94570       -7.93030       -0.31060
H        -11.83000       -9.58550       -2.39420
H        -14.35680       -9.13090       -1.83330
H        -14.97690       -6.70420       -2.71910
H        -12.83280       -5.66490       -3.82620
H        -12.43170       -8.17780       -4.55400
H        -10.91270       -7.54390       -3.88050
H        -12.55660       -5.55190       -1.17830
