
  xtb     02012220323D
 energy: -203.063550734069 gnorm: 0.000665668285 xtb: 6.4.1 (unknown)
116131  0     0  0            999 V2000
    4.4420   -6.2565    0.4270 C   0  0  0  0  0  0  0  0  0  0  0  0
    5.7234   -5.8342    0.6846 C   0  0  0  0  0  0  0  0  0  0  0  0
    6.2327   -4.4699    0.5338 C   0  0  0  0  0  0  0  0  0  0  0  0
    5.6113   -3.4749    0.1954 O   0  0  0  0  0  0  0  0  0  0  0  0
    7.6680   -4.5228    0.8558 C   0  0  0  0  0  0  0  0  0  0  0  0
    8.5714   -3.4625    0.8337 C   0  0  0  0  0  0  0  0  0  0  0  0
    9.8531   -3.8142    1.1823 C   0  0  0  0  0  0  0  0  0  0  0  0
   10.2092   -5.1238    1.5296 C   0  0  0  0  0  0  0  0  0  0  0  0
    9.3265   -6.1777    1.5585 C   0  0  0  0  0  0  0  0  0  0  0  0
    8.0160   -5.8429    1.2048 C   0  0  0  0  0  0  0  0  0  0  0  0
    6.8167   -6.6772    1.1249 C   0  0  0  0  0  0  0  0  0  0  0  0
    6.7578   -8.0081    1.4553 C   0  0  0  0  0  0  0  0  0  0  0  0
    5.6032   -8.8169    1.4219 C   0  0  0  0  0  0  0  0  0  0  0  0
    4.7127   -9.5439    1.4302 N   0  0  0  0  0  0  0  0  0  0  0  0
    7.8577   -8.7717    1.8987 C   0  0  0  0  0  0  0  0  0  0  0  0
    8.7021   -9.4585    2.2652 N   0  0  0  0  0  0  0  0  0  0  0  0
   11.6537   -4.7551    1.7611 C   0  0  0  0  0  0  0  0  0  0  0  0
   12.6528   -5.1441    0.6512 C   0  0  0  0  0  0  0  0  0  0  0  0
   13.8483   -4.2571    0.9141 C   0  0  0  0  0  0  0  0  0  0  0  0
   13.5109   -3.0169    0.5845 C   0  0  0  0  0  0  0  0  0  0  0  0
   12.0815   -3.0447    0.0932 C   0  0  0  0  0  0  0  0  0  0  0  0
   12.0566   -4.4288   -0.5680 C   0  0  0  0  0  0  0  0  0  0  0  0
   11.2564   -3.2946    1.3735 C   0  0  0  0  0  0  0  0  0  0  0  0
    3.2969   -5.5381    0.0678 C   0  0  0  0  0  0  0  0  0  0  0  0
    2.0403   -6.1415   -0.1163 C   0  0  0  0  0  0  0  0  0  0  0  0
    1.7370   -7.5968    0.0290 C   0  0  0  0  0  0  0  0  0  0  0  0
    1.4677   -7.9519    1.4940 C   0  0  0  0  0  0  0  0  0  0  0  0
    1.0597   -5.1969   -0.3878 C   0  0  0  0  0  0  0  0  0  0  0  0
   -0.6682   -5.3334   -0.6653 S   0  0  0  0  0  0  0  0  0  0  0  0
   -0.7450   -3.6125   -0.8230 C   0  0  0  0  0  0  0  0  0  0  0  0
   -1.6993   -2.6043   -1.0001 C   0  0  0  0  0  0  0  0  0  0  0  0
   -3.1054   -2.6921   -1.0883 C   0  0  0  0  0  0  0  0  0  0  0  0
   -3.8676   -1.4827   -1.1443 C   0  0  0  0  0  0  0  0  0  0  0  0
   -5.1720   -1.7054   -1.1817 N   0  0  0  0  0  0  0  0  0  0  0  0
   -5.4175   -3.3053   -1.1509 S   0  0  0  0  0  0  0  0  0  0  0  0
   -3.8687   -3.7737   -1.0882 N   0  0  0  0  0  0  0  0  0  0  0  0
   -3.1818   -0.2499   -1.1884 C   0  0  0  0  0  0  0  0  0  0  0  0
   -3.6809    1.0527   -1.3168 C   0  0  0  0  0  0  0  0  0  0  0  0
   -5.2044    1.8679   -1.4007 S   0  0  0  0  0  0  0  0  0  0  0  0
   -4.3491    3.3774   -1.5752 C   0  0  0  0  0  0  0  0  0  0  0  0
   -4.7404    4.7132   -1.7029 C   0  0  0  0  0  0  0  0  0  0  0  0
   -6.2331    5.5647   -1.7205 S   0  0  0  0  0  0  0  0  0  0  0  0
   -5.3780    7.0999   -1.8893 C   0  0  0  0  0  0  0  0  0  0  0  0
   -4.0027    6.9348   -1.9640 C   0  0  0  0  0  0  0  0  0  0  0  0
   -3.0157    8.0497   -2.0565 C   0  0  0  0  0  0  0  0  0  0  0  0
   -2.8345    8.7249   -0.6953 C   0  0  0  0  0  0  0  0  0  0  0  0
   -3.6565    5.5875   -1.8252 C   0  0  0  0  0  0  0  0  0  0  0  0
   -2.1266    4.7603   -1.7687 S   0  0  0  0  0  0  0  0  0  0  0  0
   -2.9542    3.2405   -1.5774 C   0  0  0  0  0  0  0  0  0  0  0  0
   -2.5760    1.9026   -1.4119 C   0  0  0  0  0  0  0  0  0  0  0  0
   -1.4215    1.1748   -1.3354 N   0  0  0  0  0  0  0  0  0  0  0  0
   -1.7576   -0.1586   -1.1700 C   0  0  0  0  0  0  0  0  0  0  0  0
   -1.0033   -1.3547   -0.9958 C   0  0  0  0  0  0  0  0  0  0  0  0
    0.3358   -1.6224   -0.7844 N   0  0  0  0  0  0  0  0  0  0  0  0
    0.4933   -2.9776   -0.6870 C   0  0  0  0  0  0  0  0  0  0  0  0
    1.5335   -3.8746   -0.4295 C   0  0  0  0  0  0  0  0  0  0  0  0
    3.2298   -3.7866   -0.1396 S   0  0  0  0  0  0  0  0  0  0  0  0
    1.4903   -0.7853   -0.5557 C   0  0  0  0  0  0  0  0  0  0  0  0
    2.3686   -0.6773   -1.8023 C   0  0  0  0  0  0  0  0  0  0  0  0
   -0.1620    1.8585   -1.5123 C   0  0  0  0  0  0  0  0  0  0  0  0
    0.2809    2.5682   -0.2320 C   0  0  0  0  0  0  0  0  0  0  0  0
   -6.0868    8.3205   -1.9927 C   0  0  0  0  0  0  0  0  0  0  0  0
   -7.3217    8.6143   -1.5067 C   0  0  0  0  0  0  0  0  0  0  0  0
   -8.1089    9.7432   -2.0760 C   0  0  0  0  0  0  0  0  0  0  0  0
   -7.6936   10.6220   -2.7976 O   0  0  0  0  0  0  0  0  0  0  0  0
   -9.4902    9.5128   -1.6143 C   0  0  0  0  0  0  0  0  0  0  0  0
  -10.6511   10.1868   -1.9430 C   0  0  0  0  0  0  0  0  0  0  0  0
  -11.8437    9.7579   -1.3823 C   0  0  0  0  0  0  0  0  0  0  0  0
  -11.8893    8.6703   -0.5114 C   0  0  0  0  0  0  0  0  0  0  0  0
  -13.1956    8.2091    0.0518 C   0  0  0  0  0  0  0  0  0  0  0  0
  -10.7143    7.9975   -0.1793 C   0  0  0  0  0  0  0  0  0  0  0  0
   -9.5167    8.4214   -0.7251 C   0  0  0  0  0  0  0  0  0  0  0  0
   -8.1495    7.9503   -0.5224 C   0  0  0  0  0  0  0  0  0  0  0  0
   -7.7018    7.2540    0.5694 C   0  0  0  0  0  0  0  0  0  0  0  0
   -8.5479    6.7173    1.5599 C   0  0  0  0  0  0  0  0  0  0  0  0
   -9.1942    6.2536    2.3877 N   0  0  0  0  0  0  0  0  0  0  0  0
   -6.3338    7.0921    0.8714 C   0  0  0  0  0  0  0  0  0  0  0  0
   -5.2309    6.9956    1.1761 N   0  0  0  0  0  0  0  0  0  0  0  0
    4.2643   -7.3182    0.5290 H   0  0  0  0  0  0  0  0  0  0  0  0
    8.2515   -2.4679    0.5650 H   0  0  0  0  0  0  0  0  0  0  0  0
    9.6188   -7.1776    1.8313 H   0  0  0  0  0  0  0  0  0  0  0  0
   12.0358   -4.9428    2.7627 H   0  0  0  0  0  0  0  0  0  0  0  0
   12.8438   -6.2102    0.5638 H   0  0  0  0  0  0  0  0  0  0  0  0
   14.7669   -4.6023    1.3510 H   0  0  0  0  0  0  0  0  0  0  0  0
   14.0913   -2.1191    0.6910 H   0  0  0  0  0  0  0  0  0  0  0  0
   11.7525   -2.1980   -0.5035 H   0  0  0  0  0  0  0  0  0  0  0  0
   12.7109   -4.4817   -1.4367 H   0  0  0  0  0  0  0  0  0  0  0  0
   11.0606   -4.7724   -0.8411 H   0  0  0  0  0  0  0  0  0  0  0  0
   11.3748   -2.5080    2.1165 H   0  0  0  0  0  0  0  0  0  0  0  0
    0.8446   -7.8179   -0.5602 H   0  0  0  0  0  0  0  0  0  0  0  0
    2.5569   -8.2096   -0.3479 H   0  0  0  0  0  0  0  0  0  0  0  0
    0.6345   -7.3674    1.8773 H   0  0  0  0  0  0  0  0  0  0  0  0
    2.3446   -7.7541    2.1056 H   0  0  0  0  0  0  0  0  0  0  0  0
    1.2239   -9.0069    1.5777 H   0  0  0  0  0  0  0  0  0  0  0  0
   -2.0591    7.6440   -2.3935 H   0  0  0  0  0  0  0  0  0  0  0  0
   -3.3560    8.7881   -2.7859 H   0  0  0  0  0  0  0  0  0  0  0  0
   -2.0911    9.5147   -0.7657 H   0  0  0  0  0  0  0  0  0  0  0  0
   -2.5090    7.9999    0.0461 H   0  0  0  0  0  0  0  0  0  0  0  0
   -3.7745    9.1540   -0.3574 H   0  0  0  0  0  0  0  0  0  0  0  0
    2.0783   -1.2592    0.2371 H   0  0  0  0  0  0  0  0  0  0  0  0
    1.1738    0.1877   -0.1929 H   0  0  0  0  0  0  0  0  0  0  0  0
    3.1670    0.0385   -1.6287 H   0  0  0  0  0  0  0  0  0  0  0  0
    2.8181   -1.6416   -2.0227 H   0  0  0  0  0  0  0  0  0  0  0  0
    1.7937   -0.3655   -2.6724 H   0  0  0  0  0  0  0  0  0  0  0  0
   -0.3109    2.6117   -2.2937 H   0  0  0  0  0  0  0  0  0  0  0  0
    0.5879    1.1598   -1.8708 H   0  0  0  0  0  0  0  0  0  0  0  0
   -0.4058    3.3766    0.0035 H   0  0  0  0  0  0  0  0  0  0  0  0
    0.2968    1.8873    0.6168 H   0  0  0  0  0  0  0  0  0  0  0  0
    1.2734    2.9889   -0.3668 H   0  0  0  0  0  0  0  0  0  0  0  0
   -5.6223    9.0968   -2.5938 H   0  0  0  0  0  0  0  0  0  0  0  0
  -10.6169   11.0281   -2.6180 H   0  0  0  0  0  0  0  0  0  0  0  0
  -12.7615   10.2742   -1.6233 H   0  0  0  0  0  0  0  0  0  0  0  0
  -13.6703    7.5139   -0.6417 H   0  0  0  0  0  0  0  0  0  0  0  0
  -13.8726    9.0468    0.2017 H   0  0  0  0  0  0  0  0  0  0  0  0
  -13.0495    7.6934    0.9976 H   0  0  0  0  0  0  0  0  0  0  0  0
  -10.7535    7.1513    0.4888 H   0  0  0  0  0  0  0  0  0  0  0  0
  1  2  2  0  0  0  0
  2  3  1  0  0  0  0
  3  4  2  0  0  0  0
  3  5  1  0  0  0  0
  5  6  2  0  0  0  0
  6  7  1  0  0  0  0
  7  8  2  0  0  0  0
  8  9  1  0  0  0  0
  9 10  2  0  0  0  0
 10 11  1  0  0  0  0
 11 12  2  0  0  0  0
 12 13  1  0  0  0  0
 13 14  3  0  0  0  0
 12 15  1  0  0  0  0
 15 16  3  0  0  0  0
  8 17  1  0  0  0  0
 17 18  1  0  0  0  0
 18 19  1  0  0  0  0
 19 20  2  0  0  0  0
 20 21  1  0  0  0  0
 21 22  1  0  0  0  0
 21 23  1  0  0  0  0
  1 24  1  0  0  0  0
 24 25  2  0  0  0  0
 25 26  1  0  0  0  0
 26 27  1  0  0  0  0
 25 28  1  0  0  0  0
 28 29  1  0  0  0  0
 29 30  1  0  0  0  0
 30 31  1  0  0  0  0
 31 32  1  0  0  0  0
 32 33  1  0  0  0  0
 33 34  2  0  0  0  0
 34 35  1  0  0  0  0
 35 36  1  0  0  0  0
 33 37  1  0  0  0  0
 37 38  1  0  0  0  0
 38 39  1  0  0  0  0
 39 40  1  0  0  0  0
 40 41  1  0  0  0  0
 41 42  1  0  0  0  0
 42 43  1  0  0  0  0
 43 44  2  0  0  0  0
 44 45  1  0  0  0  0
 45 46  1  0  0  0  0
 44 47  1  0  0  0  0
 47 48  1  0  0  0  0
 48 49  1  0  0  0  0
 49 50  1  0  0  0  0
 50 51  1  0  0  0  0
 51 52  1  0  0  0  0
 52 53  1  0  0  0  0
 53 54  1  0  0  0  0
 54 55  1  0  0  0  0
 55 56  1  0  0  0  0
 56 57  1  0  0  0  0
 54 58  1  0  0  0  0
 58 59  1  0  0  0  0
 51 60  1  0  0  0  0
 60 61  1  0  0  0  0
 43 62  1  0  0  0  0
 62 63  2  0  0  0  0
 63 64  1  0  0  0  0
 64 65  2  0  0  0  0
 64 66  1  0  0  0  0
 66 67  2  0  0  0  0
 67 68  1  0  0  0  0
 68 69  2  0  0  0  0
 69 70  1  0  0  0  0
 69 71  1  0  0  0  0
 71 72  2  0  0  0  0
 72 73  1  0  0  0  0
 73 74  2  0  0  0  0
 74 75  1  0  0  0  0
 75 76  3  0  0  0  0
 74 77  1  0  0  0  0
 77 78  3  0  0  0  0
 11  2  1  0  0  0  0
 23 17  1  0  0  0  0
 57 24  1  0  0  0  0
 73 63  1  0  0  0  0
 10  5  1  0  0  0  0
 22 18  1  0  0  0  0
 56 28  2  0  0  0  0
 72 66  1  0  0  0  0
 23  7  1  0  0  0  0
 55 30  2  0  0  0  0
 53 31  2  0  0  0  0
 36 32  2  0  0  0  0
 52 37  2  0  0  0  0
 50 38  2  0  0  0  0
 49 40  2  0  0  0  0
 47 41  2  0  0  0  0
  1 79  1  0  0  0  0
  6 80  1  0  0  0  0
  9 81  1  0  0  0  0
 17 82  1  0  0  0  0
 18 83  1  0  0  0  0
 19 84  1  0  0  0  0
 20 85  1  0  0  0  0
 21 86  1  0  0  0  0
 22 87  1  0  0  0  0
 22 88  1  0  0  0  0
 23 89  1  0  0  0  0
 26 90  1  0  0  0  0
 26 91  1  0  0  0  0
 27 92  1  0  0  0  0
 27 93  1  0  0  0  0
 27 94  1  0  0  0  0
 45 95  1  0  0  0  0
 45 96  1  0  0  0  0
 46 97  1  0  0  0  0
 46 98  1  0  0  0  0
 46 99  1  0  0  0  0
 58100  1  0  0  0  0
 58101  1  0  0  0  0
 59102  1  0  0  0  0
 59103  1  0  0  0  0
 59104  1  0  0  0  0
 60105  1  0  0  0  0
 60106  1  0  0  0  0
 61107  1  0  0  0  0
 61108  1  0  0  0  0
 61109  1  0  0  0  0
 62110  1  0  0  0  0
 67111  1  0  0  0  0
 68112  1  0  0  0  0
 70113  1  0  0  0  0
 70114  1  0  0  0  0
 70115  1  0  0  0  0
 71116  1  0  0  0  0
M  END
