115

C         -1.13160        7.58750        0.48420
C         -2.41060        7.66180       -0.00910
C         -3.31930        6.53650       -0.23760
O         -3.13900        5.36310        0.04770
C         -4.51800        7.09320       -0.88440
C         -5.63320        6.38740       -1.33020
C         -6.59130        7.17420       -1.92240
C         -6.44930        8.56090       -2.06270
C         -5.35490        9.26900       -1.62490
C         -4.36810        8.48820       -1.01530
C         -3.07610        8.87320       -0.44670
C         -2.60750       10.15930       -0.34940
C         -1.36980       10.54710        0.20380
N         -0.38320       10.94890        0.63570
C         -3.31230       11.30130       -0.78380
N         -3.82320       12.27660       -1.11010
C         -7.78340        8.70820       -2.75170
C         -8.94420        9.26140       -1.89870
C        -10.18240        8.84480       -2.65940
C        -10.31750        7.53190       -2.52290
C         -9.17230        7.03880       -1.66810
C         -8.99070        8.25080       -0.74530
C         -7.94250        7.16190       -2.59270
C         -0.35900        6.48310        0.86040
C          0.99250        6.58530        1.23390
C          1.78810        7.84810        1.29640
C          2.34570        8.20750       -0.08370
C          1.54890        5.33440        1.46800
S          3.18080        4.81780        1.85880
C          2.64460        3.17390        1.78530
C          3.17700        1.87930        1.82620
C          4.51850        1.44380        1.90220
C          4.80450        0.05480        1.70150
N          6.10220       -0.20450        1.72780
S          6.89600        1.18180        1.98940
N          5.61380        2.16670        2.07460
C          3.72850       -0.84750        1.55170
C          3.72140       -2.24260        1.41950
S          4.84730       -3.54130        1.24190
C          3.50790       -4.65750        1.20910
C          3.40800       -6.04330        1.04970
S          4.49650       -7.33800        0.73680
C          3.14790       -8.47740        0.69110
C          1.90990       -7.84370        0.93030
C          0.56360       -8.49520        0.92450
C          0.03840       -8.66460       -0.50370
C          2.07510       -6.48140        1.10340
S          0.93800       -5.17830        1.34800
C          2.25720       -4.03830        1.35160
C          2.38170       -2.64890        1.44570
N          1.56760       -1.55400        1.56050
C          2.36820       -0.42430        1.59670
C          2.09210        0.97120        1.62150
N          0.94670        1.71700        1.42760
C          1.27790        3.04050        1.51730
C          0.64480        4.26990        1.31710
S         -0.92420        4.81200        0.85690
C         -0.38890        1.36590        1.00620
C         -1.39910        1.49820        2.14530
C          0.16490       -1.73530        1.85580
C         -0.64200       -2.14160        0.62170
C          3.22860       -9.84690        0.42670
C          4.25300      -10.68130        0.01210
C          5.60490      -10.17680       -0.19990
O          5.94900       -9.04240        0.12000
N          6.52150      -11.00890       -0.79040
C          7.85500      -10.47100       -1.04080
C          8.74420      -10.60960        0.18770
C          6.30300      -12.34180       -1.12210
O          7.17460      -13.00570       -1.64140
C          4.97140      -12.84730       -0.79140
C          3.98870      -12.06520       -0.25110
C          2.64820      -12.66400        0.05080
C          4.75310      -14.21160       -1.07890
N          4.56590      -15.32010       -1.30720
H         -0.60110        8.52610        0.56710
H         -5.69640        5.31720       -1.20890
H         -5.26050       10.33460       -1.74840
H         -7.75430        9.12820       -3.75530
H         -8.85830       10.31330       -1.64110
H        -10.78120        9.51720       -3.24510
H        -11.05140        6.88850       -2.97160
H         -9.29480        6.06580       -1.19970
H         -8.08290        8.22010       -0.14550
H         -9.85090        8.40640       -0.09630
H         -8.02210        6.55120       -3.49020
H          1.18390        8.67540        1.67100
H          2.62050        7.69220        1.98550
H          2.92990        9.12080       -0.01830
H          2.98500        7.40870       -0.45260
H          1.53910        8.36450       -0.79630
H         -0.12610       -7.85710        1.48170
H          0.59980       -9.46460        1.42500
H          0.71330       -9.27950       -1.09460
H         -0.05080       -7.69500       -0.98740
H         -0.94160       -9.13480       -0.48880
H         -0.67470        2.06480        0.21260
H         -0.38430        0.36660        0.58350
H         -1.09190        0.93350        3.02340
H         -1.50080        2.54090        2.43260
H         -2.37010        1.13950        1.81650
H          0.08550       -2.53590        2.60010
H         -0.22270       -0.82640        2.30850
H         -0.44870       -1.48140       -0.22090
H         -0.38250       -3.15110        0.31690
H         -1.70290       -2.11580        0.85370
H          2.26860      -10.33520        0.52470
H          8.27190      -11.03320       -1.87820
H          7.74120       -9.41920       -1.31010
H          8.84060      -11.65690        0.46490
H          8.32090      -10.05450        1.02160
H          9.73180      -10.21360       -0.03090
H          2.66640      -13.73530       -0.13210
H          1.87880      -12.22590       -0.58510
H          2.37630      -12.49560        1.09200
