114

C         -7.11300        3.50720        1.36600
C         -7.94000        2.76880        2.17350
C         -7.70430        1.44630        2.79160
O         -6.79460        0.65860        2.60310
C         -8.81640        1.23100        3.73300
C         -8.98340        0.13720        4.57950
C        -10.11230        0.20110        5.35880
C        -11.00620        1.27900        5.30480
C        -10.85150        2.36380        4.47500
C         -9.71270        2.31390        3.66540
C         -9.22220        3.25510        2.66100
C         -9.90390        4.36500        2.23320
C         -9.50860        5.25110        1.20800
N         -9.29050        6.01760        0.38050
C        -11.15480        4.77670        2.74040
N        -12.16850        5.18040        3.09850
C        -11.91510        0.67980        6.34860
C        -13.22720        0.01530        5.86330
C        -12.97700       -0.44460        4.44850
C        -12.13220       -1.46580        4.49820
C        -11.79500       -1.71420        5.94770
C        -13.12870       -1.32690        6.60590
C        -10.91980       -0.52170        6.40730
C         -5.84960        3.22470        0.81880
S         -5.05480        4.55590       -0.05110
C         -3.68510        3.56430       -0.34190
C         -2.41090        3.58650       -0.90020
S         -1.38670        4.74310       -1.69660
C         -0.16450        3.52550       -1.75900
C          1.17620        3.45660       -2.15280
C          2.06140        4.47220       -2.57680
C          3.45910        4.17050       -2.66460
N          4.18610        5.22830       -2.98920
S          3.19340        6.49320       -3.17790
N          1.80010        5.74160       -2.84510
C          3.88570        2.84220       -2.44460
C          5.16560        2.27340       -2.49060
S          6.81040        2.76040       -2.70740
C          7.29910        1.08510       -2.51280
C          8.53840        0.46690       -2.49420
C          9.81660        1.19990       -2.73630
C         10.25470        1.06110       -4.19710
C          8.41840       -0.92070       -2.26810
S          6.73210       -1.42110       -2.09760
C          6.21620        0.20760       -2.30660
C          5.00580        0.89810       -2.29020
N          3.67750        0.58970       -2.10680
C          2.96730        1.78470       -2.16720
C          1.61450        2.12760       -1.89960
N          0.56310        1.43730       -1.32660
C         -0.52300        2.27710       -1.22540
C         -1.83310        2.30350       -0.69990
N         -2.74840        1.49900       -0.05380
C         -3.86100        2.26580        0.19030
C         -5.07270        2.07580        0.83700
C         -2.61540        0.19780        0.55620
C         -2.07670        0.29820        1.98320
C          0.56030        0.09920       -0.79930
C         -0.08850       -0.88060       -1.78020
C          3.28120       -0.74560       -2.51580
C          3.01910       -0.79500       -4.01980
C          9.51590       -1.77050       -2.15790
C          9.59130       -3.12560       -1.90810
C          8.46250       -4.03250       -1.72230
O          7.27090       -3.77820       -1.77130
C          9.04880       -5.36240       -1.45450
C          8.40190       -6.55250       -1.20040
C          9.17580       -7.68210       -0.96670
Br         8.32010       -9.33080       -0.61150
C         10.56780       -7.59900       -0.99230
Br        11.61520       -9.14110       -0.66910
C         11.21640       -6.39530       -1.25030
C         10.45050       -5.26610       -1.48380
C         10.81900       -3.87830       -1.77210
C         12.10760       -3.41690       -1.87900
C         12.48860       -2.08720       -2.15170
N         12.88240       -1.02940       -2.36800
C         13.25050       -4.22960       -1.72740
N         14.21800       -4.83750       -1.61660
H         -7.46140        4.50300        1.11870
H         -8.26580       -0.66840        4.59070
H        -11.54690        3.18570        4.45300
H        -12.05790        1.26860        7.25250
H        -14.12090        0.61240        6.02270
H        -13.38230        0.04180        3.58070
H        -11.69040       -2.00350        3.67970
H        -11.38530       -2.69270        6.18470
H        -13.93800       -2.00950        6.35100
H        -13.06400       -1.22070        7.68800
H        -10.41270       -0.71820        7.35010
H          9.65210        2.25560       -2.51210
H         10.61040        0.83150       -2.08470
H         11.17780        1.61040       -4.35690
H          9.49070        1.45920       -4.86070
H         10.42700        0.01780       -4.45100
H         -5.40210        1.17510        1.31960
H         -3.61390       -0.24650        0.57930
H         -1.98220       -0.44040       -0.05710
H         -1.11830        0.81400        2.00450
H         -2.77490        0.85250        2.60510
H         -1.95100       -0.69570        2.40390
H          1.58500       -0.18060       -0.55330
H          0.00490        0.11080        0.14080
H         -1.11360       -0.58090       -1.98740
H         -0.09160       -1.88610       -1.36650
H          0.43840       -0.89260       -2.73020
H          2.41030       -1.09590       -1.97420
H          4.11490       -1.40640       -2.26590
H          3.91340       -0.50950       -4.56870
H          2.21780       -0.11050       -4.29320
H          2.73980       -1.80280       -4.31410
H         10.46390       -1.26400       -2.27570
H          7.32440       -6.60270       -1.18280
H         12.29380       -6.37280       -1.26040
