
  xtb     02012221073D
 energy: -204.107469821247 gnorm: 0.000600743847 xtb: 6.4.1 (unknown)
113128  0     0  0            999 V2000
   -2.5910   -5.4423    5.1711 C   0  0  0  0  0  0  0  0  0  0  0  0
   -1.4138   -5.9032    5.6755 C   0  0  0  0  0  0  0  0  0  0  0  0
   -1.2566   -7.3517    5.9708 C   0  0  0  0  0  0  0  0  0  0  0  0
   -2.1413   -8.1735    6.0600 O   0  0  0  0  0  0  0  0  0  0  0  0
    0.2004   -7.5717    6.0636 C   0  0  0  0  0  0  0  0  0  0  0  0
    0.8633   -8.7905    6.1949 C   0  0  0  0  0  0  0  0  0  0  0  0
    2.2328   -8.6821    6.2331 C   0  0  0  0  0  0  0  0  0  0  0  0
    2.9012   -7.4533    6.1433 C   0  0  0  0  0  0  0  0  0  0  0  0
    2.2623   -6.2431    6.0149 C   0  0  0  0  0  0  0  0  0  0  0  0
    0.8684   -6.3315    5.9789 C   0  0  0  0  0  0  0  0  0  0  0  0
   -0.1328   -5.2718    5.8976 C   0  0  0  0  0  0  0  0  0  0  0  0
    0.0622   -3.9606    6.2493 C   0  0  0  0  0  0  0  0  0  0  0  0
    1.3201   -3.3879    6.5156 C   0  0  0  0  0  0  0  0  0  0  0  0
    2.3198   -2.8569    6.7101 N   0  0  0  0  0  0  0  0  0  0  0  0
   -1.0016   -3.0605    6.4672 C   0  0  0  0  0  0  0  0  0  0  0  0
   -1.8451   -2.3183    6.7041 N   0  0  0  0  0  0  0  0  0  0  0  0
    4.2619   -8.0941    6.2555 C   0  0  0  0  0  0  0  0  0  0  0  0
    4.9611   -7.9854    7.6274 C   0  0  0  0  0  0  0  0  0  0  0  0
    6.0063   -9.0768    7.5868 C   0  0  0  0  0  0  0  0  0  0  0  0
    5.3765  -10.2417    7.6688 C   0  0  0  0  0  0  0  0  0  0  0  0
    3.8950   -9.9573    7.7674 C   0  0  0  0  0  0  0  0  0  0  0  0
    3.9309   -8.6417    8.5556 C   0  0  0  0  0  0  0  0  0  0  0  0
    3.5174   -9.4641    6.3547 C   0  0  0  0  0  0  0  0  0  0  0  0
   -2.8490   -4.2721    4.4241 C   0  0  0  0  0  0  0  0  0  0  0  0
   -4.0969   -3.7315    4.1422 C   0  0  0  0  0  0  0  0  0  0  0  0
   -5.3994   -4.2511    4.6551 C   0  0  0  0  0  0  0  0  0  0  0  0
   -6.0179   -5.2282    3.6516 C   0  0  0  0  0  0  0  0  0  0  0  0
   -3.9962   -2.6252    3.2928 C   0  0  0  0  0  0  0  0  0  0  0  0
   -5.1961   -1.5498    2.6131 S   0  0  0  0  0  0  0  0  0  0  0  0
   -3.9303   -0.6858    1.8151 C   0  0  0  0  0  0  0  0  0  0  0  0
   -3.7679    0.4321    0.9857 C   0  0  0  0  0  0  0  0  0  0  0  0
   -4.7172    1.3581    0.5022 C   0  0  0  0  0  0  0  0  0  0  0  0
   -4.2613    2.4702   -0.2755 C   0  0  0  0  0  0  0  0  0  0  0  0
   -5.2478    3.2787   -0.6309 N   0  0  0  0  0  0  0  0  0  0  0  0
   -6.6323    2.6872   -0.0385 S   0  0  0  0  0  0  0  0  0  0  0  0
   -6.0274    1.3767    0.6933 N   0  0  0  0  0  0  0  0  0  0  0  0
   -2.8909    2.5531   -0.6036 C   0  0  0  0  0  0  0  0  0  0  0  0
   -2.2096    3.4539   -1.4335 C   0  0  0  0  0  0  0  0  0  0  0  0
   -2.5425    4.8545   -2.3916 S   0  0  0  0  0  0  0  0  0  0  0  0
   -0.8778    4.8534   -2.9127 C   0  0  0  0  0  0  0  0  0  0  0  0
   -0.1253    5.6463   -3.7846 C   0  0  0  0  0  0  0  0  0  0  0  0
   -0.4199    6.9871   -4.8119 S   0  0  0  0  0  0  0  0  0  0  0  0
    1.2801    7.0109   -5.3250 C   0  0  0  0  0  0  0  0  0  0  0  0
    2.0137    5.9716   -4.7510 C   0  0  0  0  0  0  0  0  0  0  0  0
    3.4116    5.5504   -5.0542 C   0  0  0  0  0  0  0  0  0  0  0  0
    3.6481    5.2926   -6.5413 C   0  0  0  0  0  0  0  0  0  0  0  0
    1.2058    5.2269   -3.8874 C   0  0  0  0  0  0  0  0  0  0  0  0
    1.5390    3.8255   -2.9056 S   0  0  0  0  0  0  0  0  0  0  0  0
   -0.1132    3.8176   -2.3569 C   0  0  0  0  0  0  0  0  0  0  0  0
   -0.8831    3.0168   -1.5058 C   0  0  0  0  0  0  0  0  0  0  0  0
   -0.7151    1.9022   -0.7301 N   0  0  0  0  0  0  0  0  0  0  0  0
   -1.9394    1.5887   -0.1598 C   0  0  0  0  0  0  0  0  0  0  0  0
   -2.3724    0.5586    0.7196 C   0  0  0  0  0  0  0  0  0  0  0  0
   -1.7112   -0.4540    1.3993 N   0  0  0  0  0  0  0  0  0  0  0  0
   -2.6521   -1.1989    2.0586 C   0  0  0  0  0  0  0  0  0  0  0  0
   -2.6879   -2.3119    2.9029 C   0  0  0  0  0  0  0  0  0  0  0  0
   -1.5526   -3.4082    3.5946 S   0  0  0  0  0  0  0  0  0  0  0  0
   -0.3266   -0.5669    1.8039 C   0  0  0  0  0  0  0  0  0  0  0  0
    0.1090    0.6306    2.6445 C   0  0  0  0  0  0  0  0  0  0  0  0
    0.4838    1.1091   -0.8788 C   0  0  0  0  0  0  0  0  0  0  0  0
    0.2146   -0.1685   -1.6705 C   0  0  0  0  0  0  0  0  0  0  0  0
    1.5801    7.9944   -6.2876 C   0  0  0  0  0  0  0  0  0  0  0  0
    2.7574    8.6496   -6.5426 C   0  0  0  0  0  0  0  0  0  0  0  0
    3.8833    8.8051   -5.6028 C   0  0  0  0  0  0  0  0  0  0  0  0
    4.0107    8.3059   -4.5021 O   0  0  0  0  0  0  0  0  0  0  0  0
    4.7850    9.7982   -6.2221 C   0  0  0  0  0  0  0  0  0  0  0  0
    5.9730   10.3054   -5.7313 C   0  0  0  0  0  0  0  0  0  0  0  0
    6.6480   11.2540   -6.4833 C   0  0  0  0  0  0  0  0  0  0  0  0
    6.1076   11.6664   -7.6922 C   0  0  0  0  0  0  0  0  0  0  0  0
    6.7710   12.5914   -8.4045 F   0  0  0  0  0  0  0  0  0  0  0  0
    4.9145   11.1743   -8.2044 C   0  0  0  0  0  0  0  0  0  0  0  0
    4.2490   10.2225   -7.4504 C   0  0  0  0  0  0  0  0  0  0  0  0
    3.0028    9.4973   -7.6915 C   0  0  0  0  0  0  0  0  0  0  0  0
    2.2679    9.5327   -8.8473 C   0  0  0  0  0  0  0  0  0  0  0  0
    1.1491    8.7147   -9.1140 C   0  0  0  0  0  0  0  0  0  0  0  0
    0.2571    8.0578   -9.4157 N   0  0  0  0  0  0  0  0  0  0  0  0
    2.5656   10.3632   -9.9481 C   0  0  0  0  0  0  0  0  0  0  0  0
    2.7538   11.0190  -10.8709 N   0  0  0  0  0  0  0  0  0  0  0  0
   -3.4280   -6.1256    5.2753 H   0  0  0  0  0  0  0  0  0  0  0  0
    0.3139   -9.7165    6.2591 H   0  0  0  0  0  0  0  0  0  0  0  0
    2.7831   -5.3028    5.9343 H   0  0  0  0  0  0  0  0  0  0  0  0
    4.9379   -7.9267    5.4192 H   0  0  0  0  0  0  0  0  0  0  0  0
    5.3039   -6.9873    7.8854 H   0  0  0  0  0  0  0  0  0  0  0  0
    7.0567   -8.8970    7.4514 H   0  0  0  0  0  0  0  0  0  0  0  0
    5.7956  -11.2294    7.6153 H   0  0  0  0  0  0  0  0  0  0  0  0
    3.2682  -10.7566    8.1533 H   0  0  0  0  0  0  0  0  0  0  0  0
    2.9754   -8.1222    8.5966 H   0  0  0  0  0  0  0  0  0  0  0  0
    4.3148   -8.7774    9.5652 H   0  0  0  0  0  0  0  0  0  0  0  0
    3.6940  -10.2097    5.5816 H   0  0  0  0  0  0  0  0  0  0  0  0
   -5.2588   -4.7430    5.6175 H   0  0  0  0  0  0  0  0  0  0  0  0
   -6.0765   -3.4062    4.7955 H   0  0  0  0  0  0  0  0  0  0  0  0
   -6.9729   -5.5883    4.0246 H   0  0  0  0  0  0  0  0  0  0  0  0
   -6.1822   -4.7349    2.6965 H   0  0  0  0  0  0  0  0  0  0  0  0
   -5.3633   -6.0821    3.4924 H   0  0  0  0  0  0  0  0  0  0  0  0
    3.6162    4.6357   -4.4919 H   0  0  0  0  0  0  0  0  0  0  0  0
    4.0986    6.3225   -4.6980 H   0  0  0  0  0  0  0  0  0  0  0  0
    2.9656    4.5283   -6.9074 H   0  0  0  0  0  0  0  0  0  0  0  0
    3.4966    6.1950   -7.1271 H   0  0  0  0  0  0  0  0  0  0  0  0
    4.6675    4.9488   -6.6964 H   0  0  0  0  0  0  0  0  0  0  0  0
    0.3186   -0.7128    0.9382 H   0  0  0  0  0  0  0  0  0  0  0  0
   -0.2549   -1.4732    2.4103 H   0  0  0  0  0  0  0  0  0  0  0  0
   -0.4879    0.6818    3.5521 H   0  0  0  0  0  0  0  0  0  0  0  0
   -0.0200    1.5635    2.1001 H   0  0  0  0  0  0  0  0  0  0  0  0
    1.1533    0.5259    2.9257 H   0  0  0  0  0  0  0  0  0  0  0  0
    1.1996    1.7262   -1.4269 H   0  0  0  0  0  0  0  0  0  0  0  0
    0.9255    0.8982    0.0947 H   0  0  0  0  0  0  0  0  0  0  0  0
   -0.1151    0.0816   -2.6761 H   0  0  0  0  0  0  0  0  0  0  0  0
    1.1235   -0.7597   -1.7420 H   0  0  0  0  0  0  0  0  0  0  0  0
   -0.5612   -0.7676   -1.1993 H   0  0  0  0  0  0  0  0  0  0  0  0
    0.7192    8.3028   -6.8718 H   0  0  0  0  0  0  0  0  0  0  0  0
    6.3586    9.9621   -4.7840 H   0  0  0  0  0  0  0  0  0  0  0  0
    7.5809   11.6795   -6.1491 H   0  0  0  0  0  0  0  0  0  0  0  0
    4.5478   11.5432   -9.1479 H   0  0  0  0  0  0  0  0  0  0  0  0
  1  2  2  0  0  0  0
  2  3  1  0  0  0  0
  3  4  2  0  0  0  0
  3  5  1  0  0  0  0
  5  6  2  0  0  0  0
  6  7  1  0  0  0  0
  7  8  2  0  0  0  0
  8  9  1  0  0  0  0
  9 10  2  0  0  0  0
 10 11  1  0  0  0  0
 11 12  2  0  0  0  0
 12 13  1  0  0  0  0
 13 14  3  0  0  0  0
 12 15  1  0  0  0  0
 15 16  3  0  0  0  0
  8 17  1  0  0  0  0
 17 18  1  0  0  0  0
 18 19  1  0  0  0  0
 19 20  2  0  0  0  0
 20 21  1  0  0  0  0
 21 22  1  0  0  0  0
 21 23  1  0  0  0  0
  1 24  1  0  0  0  0
 24 25  2  0  0  0  0
 25 26  1  0  0  0  0
 26 27  1  0  0  0  0
 25 28  1  0  0  0  0
 28 29  1  0  0  0  0
 29 30  1  0  0  0  0
 30 31  1  0  0  0  0
 31 32  1  0  0  0  0
 32 33  1  0  0  0  0
 33 34  2  0  0  0  0
 34 35  1  0  0  0  0
 35 36  1  0  0  0  0
 33 37  1  0  0  0  0
 37 38  1  0  0  0  0
 38 39  1  0  0  0  0
 39 40  1  0  0  0  0
 40 41  1  0  0  0  0
 41 42  1  0  0  0  0
 42 43  1  0  0  0  0
 43 44  2  0  0  0  0
 44 45  1  0  0  0  0
 45 46  1  0  0  0  0
 44 47  1  0  0  0  0
 47 48  1  0  0  0  0
 48 49  1  0  0  0  0
 49 50  1  0  0  0  0
 50 51  1  0  0  0  0
 51 52  1  0  0  0  0
 52 53  1  0  0  0  0
 53 54  1  0  0  0  0
 54 55  1  0  0  0  0
 55 56  1  0  0  0  0
 56 57  1  0  0  0  0
 54 58  1  0  0  0  0
 58 59  1  0  0  0  0
 51 60  1  0  0  0  0
 60 61  1  0  0  0  0
 43 62  1  0  0  0  0
 62 63  2  0  0  0  0
 63 64  1  0  0  0  0
 64 65  2  0  0  0  0
 64 66  1  0  0  0  0
 66 67  2  0  0  0  0
 67 68  1  0  0  0  0
 68 69  2  0  0  0  0
 69 70  1  0  0  0  0
 69 71  1  0  0  0  0
 71 72  2  0  0  0  0
 72 73  1  0  0  0  0
 73 74  2  0  0  0  0
 74 75  1  0  0  0  0
 75 76  3  0  0  0  0
 74 77  1  0  0  0  0
 77 78  3  0  0  0  0
 11  2  1  0  0  0  0
 23 17  1  0  0  0  0
 57 24  1  0  0  0  0
 73 63  1  0  0  0  0
 10  5  1  0  0  0  0
 22 18  1  0  0  0  0
 56 28  2  0  0  0  0
 72 66  1  0  0  0  0
 23  7  1  0  0  0  0
 55 30  2  0  0  0  0
 53 31  2  0  0  0  0
 36 32  2  0  0  0  0
 52 37  2  0  0  0  0
 50 38  2  0  0  0  0
 49 40  2  0  0  0  0
 47 41  2  0  0  0  0
  1 79  1  0  0  0  0
  6 80  1  0  0  0  0
  9 81  1  0  0  0  0
 17 82  1  0  0  0  0
 18 83  1  0  0  0  0
 19 84  1  0  0  0  0
 20 85  1  0  0  0  0
 21 86  1  0  0  0  0
 22 87  1  0  0  0  0
 22 88  1  0  0  0  0
 23 89  1  0  0  0  0
 26 90  1  0  0  0  0
 26 91  1  0  0  0  0
 27 92  1  0  0  0  0
 27 93  1  0  0  0  0
 27 94  1  0  0  0  0
 45 95  1  0  0  0  0
 45 96  1  0  0  0  0
 46 97  1  0  0  0  0
 46 98  1  0  0  0  0
 46 99  1  0  0  0  0
 58100  1  0  0  0  0
 58101  1  0  0  0  0
 59102  1  0  0  0  0
 59103  1  0  0  0  0
 59104  1  0  0  0  0
 60105  1  0  0  0  0
 60106  1  0  0  0  0
 61107  1  0  0  0  0
 61108  1  0  0  0  0
 61109  1  0  0  0  0
 62110  1  0  0  0  0
 67111  1  0  0  0  0
 68112  1  0  0  0  0
 71113  1  0  0  0  0
M  END
