
  xtb     02022222253D
 energy: -208.155141967292 gnorm: 0.000382826389 xtb: 6.4.1 (unknown)
113128  0     0  0            999 V2000
    1.6747   -3.6079   -5.3608 C   0  0  0  0  0  0  0  0  0  0  0  0
    0.7461   -3.9874   -6.2734 C   0  0  0  0  0  0  0  0  0  0  0  0
    1.1531   -4.4014   -7.6446 C   0  0  0  0  0  0  0  0  0  0  0  0
    2.2483   -4.2685   -8.1420 O   0  0  0  0  0  0  0  0  0  0  0  0
   -0.0396   -5.0435   -8.2294 C   0  0  0  0  0  0  0  0  0  0  0  0
   -0.1340   -5.6845   -9.4631 C   0  0  0  0  0  0  0  0  0  0  0  0
   -1.3779   -6.2025   -9.7329 C   0  0  0  0  0  0  0  0  0  0  0  0
   -2.4532   -6.1011   -8.8388 C   0  0  0  0  0  0  0  0  0  0  0  0
   -2.3782   -5.4681   -7.6216 C   0  0  0  0  0  0  0  0  0  0  0  0
   -1.1240   -4.9239   -7.3338 C   0  0  0  0  0  0  0  0  0  0  0  0
   -0.6928   -4.1402   -6.1806 C   0  0  0  0  0  0  0  0  0  0  0  0
   -1.5277   -3.4586   -5.3362 C   0  0  0  0  0  0  0  0  0  0  0  0
   -1.1149   -2.4949   -4.3929 C   0  0  0  0  0  0  0  0  0  0  0  0
   -0.8802   -1.6566   -3.6441 N   0  0  0  0  0  0  0  0  0  0  0  0
   -2.9350   -3.5584   -5.3644 C   0  0  0  0  0  0  0  0  0  0  0  0
   -4.0811   -3.6055   -5.3208 N   0  0  0  0  0  0  0  0  0  0  0  0
   -3.3881   -6.8528   -9.7511 C   0  0  0  0  0  0  0  0  0  0  0  0
   -3.6937   -8.3330   -9.4140 C   0  0  0  0  0  0  0  0  0  0  0  0
   -2.5022   -8.8541   -8.6494 C   0  0  0  0  0  0  0  0  0  0  0  0
   -1.4867   -8.9490   -9.4973 C   0  0  0  0  0  0  0  0  0  0  0  0
   -1.9731   -8.4940  -10.8510 C   0  0  0  0  0  0  0  0  0  0  0  0
   -3.4334   -8.9702  -10.7883 C   0  0  0  0  0  0  0  0  0  0  0  0
   -2.1924   -6.9641  -10.7489 C   0  0  0  0  0  0  0  0  0  0  0  0
    1.5122   -3.4897   -3.9514 C   0  0  0  0  0  0  0  0  0  0  0  0
    0.8496   -4.3066   -3.0513 C   0  0  0  0  0  0  0  0  0  0  0  0
    0.2678   -5.6484   -3.3754 C   0  0  0  0  0  0  0  0  0  0  0  0
   -1.1758   -5.8136   -2.9021 C   0  0  0  0  0  0  0  0  0  0  0  0
    0.9066   -3.7734   -1.7524 C   0  0  0  0  0  0  0  0  0  0  0  0
    0.2089   -4.2773   -0.2296 S   0  0  0  0  0  0  0  0  0  0  0  0
    0.7599   -2.8053    0.4886 C   0  0  0  0  0  0  0  0  0  0  0  0
    0.6595   -2.1128    1.7034 C   0  0  0  0  0  0  0  0  0  0  0  0
    0.1020   -2.4940    2.9432 C   0  0  0  0  0  0  0  0  0  0  0  0
    0.1274   -1.5597    4.0296 C   0  0  0  0  0  0  0  0  0  0  0  0
   -0.3983   -2.0570    5.1379 N   0  0  0  0  0  0  0  0  0  0  0  0
   -0.8854   -3.5713    4.8389 S   0  0  0  0  0  0  0  0  0  0  0  0
   -0.4462   -3.6502    3.2829 N   0  0  0  0  0  0  0  0  0  0  0  0
    0.6162   -0.2561    3.7926 C   0  0  0  0  0  0  0  0  0  0  0  0
    0.5570    0.8973    4.5872 C   0  0  0  0  0  0  0  0  0  0  0  0
   -0.0206    1.3829    6.1429 S   0  0  0  0  0  0  0  0  0  0  0  0
    0.3592    3.0369    5.7352 C   0  0  0  0  0  0  0  0  0  0  0  0
    0.1754    4.2635    6.3794 C   0  0  0  0  0  0  0  0  0  0  0  0
   -0.5177    4.7910    7.8610 S   0  0  0  0  0  0  0  0  0  0  0  0
   -0.2027    6.4750    7.4203 C   0  0  0  0  0  0  0  0  0  0  0  0
    0.4348    6.5889    6.1691 C   0  0  0  0  0  0  0  0  0  0  0  0
    0.7989    7.8617    5.4767 C   0  0  0  0  0  0  0  0  0  0  0  0
   -0.3994    8.4242    4.7067 C   0  0  0  0  0  0  0  0  0  0  0  0
    0.6240    5.3421    5.5984 C   0  0  0  0  0  0  0  0  0  0  0  0
    1.2829    4.8409    4.0613 S   0  0  0  0  0  0  0  0  0  0  0  0
    0.9318    3.1827    4.4623 C   0  0  0  0  0  0  0  0  0  0  0  0
    1.0403    1.9541    3.8058 C   0  0  0  0  0  0  0  0  0  0  0  0
    1.4294    1.4890    2.5787 N   0  0  0  0  0  0  0  0  0  0  0  0
    1.1654    0.1301    2.5355 C   0  0  0  0  0  0  0  0  0  0  0  0
    1.2835   -0.8458    1.5103 C   0  0  0  0  0  0  0  0  0  0  0  0
    1.8113   -0.8135    0.2283 N   0  0  0  0  0  0  0  0  0  0  0  0
    1.4773   -1.9882   -0.3883 C   0  0  0  0  0  0  0  0  0  0  0  0
    1.5837   -2.5519   -1.6642 C   0  0  0  0  0  0  0  0  0  0  0  0
    2.2664   -2.1013   -3.1783 S   0  0  0  0  0  0  0  0  0  0  0  0
    2.8663    0.0049   -0.3286 C   0  0  0  0  0  0  0  0  0  0  0  0
    4.1079   -0.0028    0.5595 C   0  0  0  0  0  0  0  0  0  0  0  0
    1.6713    2.4263    1.5054 C   0  0  0  0  0  0  0  0  0  0  0  0
    0.5008    2.4727    0.5263 C   0  0  0  0  0  0  0  0  0  0  0  0
   -0.5595    7.5916    8.1790 C   0  0  0  0  0  0  0  0  0  0  0  0
   -1.2439    7.6984    9.3677 C   0  0  0  0  0  0  0  0  0  0  0  0
   -1.7680    6.5884   10.1647 C   0  0  0  0  0  0  0  0  0  0  0  0
   -1.6567    5.3956    9.9512 O   0  0  0  0  0  0  0  0  0  0  0  0
   -2.4699    7.2074   11.3103 C   0  0  0  0  0  0  0  0  0  0  0  0
   -3.1478    6.5849   12.3375 C   0  0  0  0  0  0  0  0  0  0  0  0
   -3.7405    7.3804   13.3115 C   0  0  0  0  0  0  0  0  0  0  0  0
   -4.6042    6.6710   14.6187 Cl  0  0  0  0  0  0  0  0  0  0  0  0
   -3.6301    8.7692   13.2201 C   0  0  0  0  0  0  0  0  0  0  0  0
   -4.2040    9.5301   14.1604 F   0  0  0  0  0  0  0  0  0  0  0  0
   -2.9485    9.4002   12.1904 C   0  0  0  0  0  0  0  0  0  0  0  0
   -2.3595    8.6054   11.2199 C   0  0  0  0  0  0  0  0  0  0  0  0
   -1.5895    8.9424   10.0225 C   0  0  0  0  0  0  0  0  0  0  0  0
   -1.2723   10.2173    9.6248 C   0  0  0  0  0  0  0  0  0  0  0  0
   -0.5302   10.5645    8.4774 C   0  0  0  0  0  0  0  0  0  0  0  0
    0.0645   10.9333    7.5654 N   0  0  0  0  0  0  0  0  0  0  0  0
   -1.6520   11.3809   10.3263 C   0  0  0  0  0  0  0  0  0  0  0  0
   -1.9272   12.3677   10.8443 N   0  0  0  0  0  0  0  0  0  0  0  0
    2.6588   -3.3757   -5.7572 H   0  0  0  0  0  0  0  0  0  0  0  0
    0.7169   -5.7423  -10.1237 H   0  0  0  0  0  0  0  0  0  0  0  0
   -3.2090   -5.4016   -6.9386 H   0  0  0  0  0  0  0  0  0  0  0  0
   -4.2739   -6.3096  -10.0740 H   0  0  0  0  0  0  0  0  0  0  0  0
   -4.6665   -8.5005   -8.9598 H   0  0  0  0  0  0  0  0  0  0  0  0
   -2.5046   -9.0408   -7.5914 H   0  0  0  0  0  0  0  0  0  0  0  0
   -0.4709   -9.2303   -9.2894 H   0  0  0  0  0  0  0  0  0  0  0  0
   -1.3800   -8.8092  -11.7053 H   0  0  0  0  0  0  0  0  0  0  0  0
   -4.0578   -8.5609  -11.5811 H   0  0  0  0  0  0  0  0  0  0  0  0
   -3.5221  -10.0553  -10.7731 H   0  0  0  0  0  0  0  0  0  0  0  0
   -2.2978   -6.4936  -11.7244 H   0  0  0  0  0  0  0  0  0  0  0  0
    0.3327   -5.8256   -4.4501 H   0  0  0  0  0  0  0  0  0  0  0  0
    0.8823   -6.4057   -2.8777 H   0  0  0  0  0  0  0  0  0  0  0  0
   -1.2289   -5.7929   -1.8173 H   0  0  0  0  0  0  0  0  0  0  0  0
   -1.8130   -5.0209   -3.2856 H   0  0  0  0  0  0  0  0  0  0  0  0
   -1.5677   -6.7670   -3.2478 H   0  0  0  0  0  0  0  0  0  0  0  0
    1.6063    7.6498    4.7720 H   0  0  0  0  0  0  0  0  0  0  0  0
    1.1557    8.6081    6.1874 H   0  0  0  0  0  0  0  0  0  0  0  0
   -1.2220    8.6435    5.3830 H   0  0  0  0  0  0  0  0  0  0  0  0
   -0.1143    9.3427    4.2021 H   0  0  0  0  0  0  0  0  0  0  0  0
   -0.7429    7.7081    3.9635 H   0  0  0  0  0  0  0  0  0  0  0  0
    3.1156   -0.4325   -1.2987 H   0  0  0  0  0  0  0  0  0  0  0  0
    2.5136    1.0187   -0.5204 H   0  0  0  0  0  0  0  0  0  0  0  0
    3.8817    0.3591    1.5598 H   0  0  0  0  0  0  0  0  0  0  0  0
    4.4964   -1.0149    0.6469 H   0  0  0  0  0  0  0  0  0  0  0  0
    4.8788    0.6267    0.1232 H   0  0  0  0  0  0  0  0  0  0  0  0
    2.6103    2.1952    1.0033 H   0  0  0  0  0  0  0  0  0  0  0  0
    1.7904    3.4081    1.9700 H   0  0  0  0  0  0  0  0  0  0  0  0
    0.7161    3.1725   -0.2765 H   0  0  0  0  0  0  0  0  0  0  0  0
    0.3042    1.4934    0.0970 H   0  0  0  0  0  0  0  0  0  0  0  0
   -0.3987    2.8032    1.0405 H   0  0  0  0  0  0  0  0  0  0  0  0
   -0.2587    8.5272    7.7279 H   0  0  0  0  0  0  0  0  0  0  0  0
   -3.2156    5.5096   12.3797 H   0  0  0  0  0  0  0  0  0  0  0  0
   -2.9029   10.4768   12.1808 H   0  0  0  0  0  0  0  0  0  0  0  0
  1  2  2  0  0  0  0
  2  3  1  0  0  0  0
  3  4  2  0  0  0  0
  3  5  1  0  0  0  0
  5  6  2  0  0  0  0
  6  7  1  0  0  0  0
  7  8  2  0  0  0  0
  8  9  1  0  0  0  0
  9 10  2  0  0  0  0
 10 11  1  0  0  0  0
 11 12  2  0  0  0  0
 12 13  1  0  0  0  0
 13 14  3  0  0  0  0
 12 15  1  0  0  0  0
 15 16  3  0  0  0  0
  8 17  1  0  0  0  0
 17 18  1  0  0  0  0
 18 19  1  0  0  0  0
 19 20  2  0  0  0  0
 20 21  1  0  0  0  0
 21 22  1  0  0  0  0
 21 23  1  0  0  0  0
  1 24  1  0  0  0  0
 24 25  2  0  0  0  0
 25 26  1  0  0  0  0
 26 27  1  0  0  0  0
 25 28  1  0  0  0  0
 28 29  1  0  0  0  0
 29 30  1  0  0  0  0
 30 31  1  0  0  0  0
 31 32  1  0  0  0  0
 32 33  1  0  0  0  0
 33 34  2  0  0  0  0
 34 35  1  0  0  0  0
 35 36  1  0  0  0  0
 33 37  1  0  0  0  0
 37 38  1  0  0  0  0
 38 39  1  0  0  0  0
 39 40  1  0  0  0  0
 40 41  1  0  0  0  0
 41 42  1  0  0  0  0
 42 43  1  0  0  0  0
 43 44  2  0  0  0  0
 44 45  1  0  0  0  0
 45 46  1  0  0  0  0
 44 47  1  0  0  0  0
 47 48  1  0  0  0  0
 48 49  1  0  0  0  0
 49 50  1  0  0  0  0
 50 51  1  0  0  0  0
 51 52  1  0  0  0  0
 52 53  1  0  0  0  0
 53 54  1  0  0  0  0
 54 55  1  0  0  0  0
 55 56  1  0  0  0  0
 56 57  1  0  0  0  0
 54 58  1  0  0  0  0
 58 59  1  0  0  0  0
 51 60  1  0  0  0  0
 60 61  1  0  0  0  0
 43 62  1  0  0  0  0
 62 63  2  0  0  0  0
 63 64  1  0  0  0  0
 64 65  2  0  0  0  0
 64 66  1  0  0  0  0
 66 67  2  0  0  0  0
 67 68  1  0  0  0  0
 68 69  1  0  0  0  0
 68 70  2  0  0  0  0
 70 71  1  0  0  0  0
 70 72  1  0  0  0  0
 72 73  2  0  0  0  0
 73 74  1  0  0  0  0
 74 75  2  0  0  0  0
 75 76  1  0  0  0  0
 76 77  3  0  0  0  0
 75 78  1  0  0  0  0
 78 79  3  0  0  0  0
 11  2  1  0  0  0  0
 23 17  1  0  0  0  0
 57 24  1  0  0  0  0
 74 63  1  0  0  0  0
 10  5  1  0  0  0  0
 22 18  1  0  0  0  0
 56 28  2  0  0  0  0
 73 66  1  0  0  0  0
 23  7  1  0  0  0  0
 55 30  2  0  0  0  0
 53 31  2  0  0  0  0
 36 32  2  0  0  0  0
 52 37  2  0  0  0  0
 50 38  2  0  0  0  0
 49 40  2  0  0  0  0
 47 41  2  0  0  0  0
  1 80  1  0  0  0  0
  6 81  1  0  0  0  0
  9 82  1  0  0  0  0
 17 83  1  0  0  0  0
 18 84  1  0  0  0  0
 19 85  1  0  0  0  0
 20 86  1  0  0  0  0
 21 87  1  0  0  0  0
 22 88  1  0  0  0  0
 22 89  1  0  0  0  0
 23 90  1  0  0  0  0
 26 91  1  0  0  0  0
 26 92  1  0  0  0  0
 27 93  1  0  0  0  0
 27 94  1  0  0  0  0
 27 95  1  0  0  0  0
 45 96  1  0  0  0  0
 45 97  1  0  0  0  0
 46 98  1  0  0  0  0
 46 99  1  0  0  0  0
 46100  1  0  0  0  0
 58101  1  0  0  0  0
 58102  1  0  0  0  0
 59103  1  0  0  0  0
 59104  1  0  0  0  0
 59105  1  0  0  0  0
 60106  1  0  0  0  0
 60107  1  0  0  0  0
 61108  1  0  0  0  0
 61109  1  0  0  0  0
 61110  1  0  0  0  0
 62111  1  0  0  0  0
 67112  1  0  0  0  0
 72113  1  0  0  0  0
M  END
