
  xtb     02012218543D
 energy: -261.488499003763 gnorm: 0.000572708454 xtb: 6.4.1 (unknown)
167184  0     0  0            999 V2000
   -0.1493    5.5975    6.2727 C   0  0  0  0  0  0  0  0  0  0  0  0
   -0.4951    5.3075    7.5713 C   0  0  0  0  0  0  0  0  0  0  0  0
   -0.6058    3.9711    8.1591 C   0  0  0  0  0  0  0  0  0  0  0  0
   -0.4129    2.8983    7.6109 O   0  0  0  0  0  0  0  0  0  0  0  0
   -1.0044    4.1662    9.5638 C   0  0  0  0  0  0  0  0  0  0  0  0
   -1.2315    3.1759   10.5153 C   0  0  0  0  0  0  0  0  0  0  0  0
   -1.6005    3.6598   11.7475 C   0  0  0  0  0  0  0  0  0  0  0  0
   -1.7293    5.0288   12.0134 C   0  0  0  0  0  0  0  0  0  0  0  0
   -1.5032    6.0160   11.0832 C   0  0  0  0  0  0  0  0  0  0  0  0
   -1.1316    5.5457    9.8211 C   0  0  0  0  0  0  0  0  0  0  0  0
   -0.8174    6.2792    8.5941 C   0  0  0  0  0  0  0  0  0  0  0  0
   -0.8335    7.6469    8.4670 C   0  0  0  0  0  0  0  0  0  0  0  0
   -1.1668    8.5432    9.5029 C   0  0  0  0  0  0  0  0  0  0  0  0
   -1.4273    9.3377   10.2907 N   0  0  0  0  0  0  0  0  0  0  0  0
   -0.5231    8.3721    7.2991 C   0  0  0  0  0  0  0  0  0  0  0  0
   -0.2835    9.0423    6.3959 N   0  0  0  0  0  0  0  0  0  0  0  0
   -2.1424    4.7934   13.4448 C   0  0  0  0  0  0  0  0  0  0  0  0
   -3.6447    4.9355   13.7932 C   0  0  0  0  0  0  0  0  0  0  0  0
   -4.4085    4.6392   12.5266 C   0  0  0  0  0  0  0  0  0  0  0  0
   -4.2870    3.3428   12.2743 C   0  0  0  0  0  0  0  0  0  0  0  0
   -3.4384    2.7391   13.3659 C   0  0  0  0  0  0  0  0  0  0  0  0
   -3.8608    3.6177   14.5542 C   0  0  0  0  0  0  0  0  0  0  0  0
   -1.9989    3.2673   13.1481 C   0  0  0  0  0  0  0  0  0  0  0  0
    0.1798    4.7626    5.2026 C   0  0  0  0  0  0  0  0  0  0  0  0
    0.2047    3.0000    5.2484 S   0  0  0  0  0  0  0  0  0  0  0  0
    0.6510    2.9745    3.6008 C   0  0  0  0  0  0  0  0  0  0  0  0
    0.7948    2.0130    2.5729 C   0  0  0  0  0  0  0  0  0  0  0  0
    1.0206    2.6544    1.3683 C   0  0  0  0  0  0  0  0  0  0  0  0
    1.2565    4.1343    1.5933 C   0  0  0  0  0  0  0  0  0  0  0  0
    0.8039    4.2512    3.0365 C   0  0  0  0  0  0  0  0  0  0  0  0
    0.5270    5.2705    3.9274 C   0  0  0  0  0  0  0  0  0  0  0  0
    0.5404    6.7238    3.5879 C   0  0  0  0  0  0  0  0  0  0  0  0
    2.7751    4.3388    1.5336 C   0  0  0  0  0  0  0  0  0  0  0  0
    3.5058    3.8337    0.4632 C   0  0  0  0  0  0  0  0  0  0  0  0
    4.8733    4.0147    0.3869 C   0  0  0  0  0  0  0  0  0  0  0  0
    5.5609    4.7046    1.3762 C   0  0  0  0  0  0  0  0  0  0  0  0
    7.0518    4.8666    1.3128 C   0  0  0  0  0  0  0  0  0  0  0  0
    7.7471    3.6936    2.0067 C   0  0  0  0  0  0  0  0  0  0  0  0
    4.8329    5.2011    2.4472 C   0  0  0  0  0  0  0  0  0  0  0  0
    3.4634    5.0223    2.5275 C   0  0  0  0  0  0  0  0  0  0  0  0
    0.5169    5.0402    0.6253 C   0  0  0  0  0  0  0  0  0  0  0  0
    1.2070    6.0400   -0.0518 C   0  0  0  0  0  0  0  0  0  0  0  0
    0.5712    6.8769   -0.9482 C   0  0  0  0  0  0  0  0  0  0  0  0
   -0.7865    6.7394   -1.1934 C   0  0  0  0  0  0  0  0  0  0  0  0
   -1.4822    7.6017   -2.2061 C   0  0  0  0  0  0  0  0  0  0  0  0
   -1.4204    6.9523   -3.5902 C   0  0  0  0  0  0  0  0  0  0  0  0
   -1.4756    5.7526   -0.5055 C   0  0  0  0  0  0  0  0  0  0  0  0
   -0.8580    4.9036    0.4035 C   0  0  0  0  0  0  0  0  0  0  0  0
   -1.6997    3.8778    1.1018 C   0  0  0  0  0  0  0  0  0  0  0  0
    0.9619    1.7829    0.2598 C   0  0  0  0  0  0  0  0  0  0  0  0
    0.9929    2.0684   -1.1085 C   0  0  0  0  0  0  0  0  0  0  0  0
    0.8553    1.0245   -1.9917 C   0  0  0  0  0  0  0  0  0  0  0  0
    0.8459    1.1811   -3.7409 S   0  0  0  0  0  0  0  0  0  0  0  0
    0.6077   -0.5267   -3.8803 C   0  0  0  0  0  0  0  0  0  0  0  0
    0.3993   -1.4616   -4.9308 C   0  0  0  0  0  0  0  0  0  0  0  0
    0.1839   -2.7165   -4.3845 C   0  0  0  0  0  0  0  0  0  0  0  0
    0.2907   -2.6655   -2.8749 C   0  0  0  0  0  0  0  0  0  0  0  0
   -1.0107   -3.0186   -2.1766 C   0  0  0  0  0  0  0  0  0  0  0  0
   -1.0161   -3.6172   -0.9240 C   0  0  0  0  0  0  0  0  0  0  0  0
   -2.2095   -3.8756   -0.2754 C   0  0  0  0  0  0  0  0  0  0  0  0
   -3.4258   -3.5437   -0.8564 C   0  0  0  0  0  0  0  0  0  0  0  0
   -4.7165   -3.7814   -0.1277 C   0  0  0  0  0  0  0  0  0  0  0  0
   -5.0767   -2.5644    0.7269 C   0  0  0  0  0  0  0  0  0  0  0  0
   -3.4148   -2.9387   -2.1065 C   0  0  0  0  0  0  0  0  0  0  0  0
   -2.2247   -2.6758   -2.7575 C   0  0  0  0  0  0  0  0  0  0  0  0
    1.4399   -3.5621   -2.4587 C   0  0  0  0  0  0  0  0  0  0  0  0
    2.6623   -3.0524   -2.0481 C   0  0  0  0  0  0  0  0  0  0  0  0
    3.7005   -3.9051   -1.7158 C   0  0  0  0  0  0  0  0  0  0  0  0
    3.5494   -5.2819   -1.7939 C   0  0  0  0  0  0  0  0  0  0  0  0
    4.6629   -6.2055   -1.3924 C   0  0  0  0  0  0  0  0  0  0  0  0
    4.5375   -6.5832    0.0848 C   0  0  0  0  0  0  0  0  0  0  0  0
    2.3229   -5.7876   -2.2080 C   0  0  0  0  0  0  0  0  0  0  0  0
    1.2831   -4.9416   -2.5384 C   0  0  0  0  0  0  0  0  0  0  0  0
    0.5514   -1.1881   -2.6720 C   0  0  0  0  0  0  0  0  0  0  0  0
    0.6821   -0.3243   -1.5619 C   0  0  0  0  0  0  0  0  0  0  0  0
    0.6266   -0.6064   -0.1972 C   0  0  0  0  0  0  0  0  0  0  0  0
    0.7483    0.4389    0.6882 C   0  0  0  0  0  0  0  0  0  0  0  0
    0.5968    0.2991    2.4302 S   0  0  0  0  0  0  0  0  0  0  0  0
   -0.0693   -3.6919   -5.3569 C   0  0  0  0  0  0  0  0  0  0  0  0
   -0.0443   -3.1746   -6.6238 C   0  0  0  0  0  0  0  0  0  0  0  0
    0.3005   -1.4671   -6.6451 S   0  0  0  0  0  0  0  0  0  0  0  0
   -0.2907   -3.9155   -7.8988 C   0  0  0  0  0  0  0  0  0  0  0  0
   -1.5815   -4.6717   -7.8153 C   0  0  0  0  0  0  0  0  0  0  0  0
   -1.7713   -5.8762   -8.3674 C   0  0  0  0  0  0  0  0  0  0  0  0
   -0.7588   -6.5243   -9.1555 C   0  0  0  0  0  0  0  0  0  0  0  0
   -0.9345   -7.7620   -9.6895 C   0  0  0  0  0  0  0  0  0  0  0  0
    0.2912   -8.5442  -10.6829 S   0  0  0  0  0  0  0  0  0  0  0  0
   -0.7154   -9.9586  -10.8938 C   0  0  0  0  0  0  0  0  0  0  0  0
   -0.2641  -11.0131  -11.6458 C   0  0  0  0  0  0  0  0  0  0  0  0
    1.0166  -10.9404  -12.2337 C   0  0  0  0  0  0  0  0  0  0  0  0
    2.0576  -10.8884  -12.7126 N   0  0  0  0  0  0  0  0  0  0  0  0
   -0.9485  -12.2111  -11.9121 C   0  0  0  0  0  0  0  0  0  0  0  0
   -1.4461  -13.2150  -12.1651 N   0  0  0  0  0  0  0  0  0  0  0  0
   -1.9047   -9.8200  -10.2544 N   0  0  0  0  0  0  0  0  0  0  0  0
   -2.9417  -10.8349  -10.2030 C   0  0  0  0  0  0  0  0  0  0  0  0
   -2.6568  -11.8734   -9.1248 C   0  0  0  0  0  0  0  0  0  0  0  0
   -2.1007   -8.6317   -9.5590 C   0  0  0  0  0  0  0  0  0  0  0  0
   -3.1235   -8.4063   -8.9502 O   0  0  0  0  0  0  0  0  0  0  0  0
    0.5013   -5.7539   -9.4104 C   0  0  0  0  0  0  0  0  0  0  0  0
    0.8603   -4.8811   -8.2120 C   0  0  0  0  0  0  0  0  0  0  0  0
   -0.1210    6.6478    6.0157 H   0  0  0  0  0  0  0  0  0  0  0  0
   -1.1178    2.1322   10.2666 H   0  0  0  0  0  0  0  0  0  0  0  0
   -1.6056    7.0644   11.3076 H   0  0  0  0  0  0  0  0  0  0  0  0
   -1.4974    5.2279   14.2059 H   0  0  0  0  0  0  0  0  0  0  0  0
   -3.9039    5.8583   14.3051 H   0  0  0  0  0  0  0  0  0  0  0  0
   -4.8945    5.3897   11.9313 H   0  0  0  0  0  0  0  0  0  0  0  0
   -4.6510    2.7937   11.4257 H   0  0  0  0  0  0  0  0  0  0  0  0
   -3.5102    1.6616   13.4893 H   0  0  0  0  0  0  0  0  0  0  0  0
   -4.8993    3.4639   14.8436 H   0  0  0  0  0  0  0  0  0  0  0  0
   -3.2161    3.5088   15.4251 H   0  0  0  0  0  0  0  0  0  0  0  0
   -1.2601    2.7050   13.7159 H   0  0  0  0  0  0  0  0  0  0  0  0
    0.8505    6.8596    2.5553 H   0  0  0  0  0  0  0  0  0  0  0  0
   -0.4542    7.1527    3.7072 H   0  0  0  0  0  0  0  0  0  0  0  0
    1.2173    7.2795    4.2359 H   0  0  0  0  0  0  0  0  0  0  0  0
    3.0078    3.2986   -0.3283 H   0  0  0  0  0  0  0  0  0  0  0  0
    5.4135    3.6147   -0.4595 H   0  0  0  0  0  0  0  0  0  0  0  0
    7.3752    4.9113    0.2708 H   0  0  0  0  0  0  0  0  0  0  0  0
    7.3436    5.7980    1.8022 H   0  0  0  0  0  0  0  0  0  0  0  0
    7.4460    3.6395    3.0506 H   0  0  0  0  0  0  0  0  0  0  0  0
    7.4786    2.7560    1.5249 H   0  0  0  0  0  0  0  0  0  0  0  0
    8.8273    3.8111    1.9620 H   0  0  0  0  0  0  0  0  0  0  0  0
    5.3406    5.7422    3.2330 H   0  0  0  0  0  0  0  0  0  0  0  0
    2.9389    5.4285    3.3765 H   0  0  0  0  0  0  0  0  0  0  0  0
    2.2644    6.1720    0.1234 H   0  0  0  0  0  0  0  0  0  0  0  0
    1.1377    7.6433   -1.4567 H   0  0  0  0  0  0  0  0  0  0  0  0
   -2.5264    7.7414   -1.9199 H   0  0  0  0  0  0  0  0  0  0  0  0
   -1.0043    8.5824   -2.2469 H   0  0  0  0  0  0  0  0  0  0  0  0
   -1.9244    7.5748   -4.3258 H   0  0  0  0  0  0  0  0  0  0  0  0
   -1.9009    5.9766   -3.5721 H   0  0  0  0  0  0  0  0  0  0  0  0
   -0.3861    6.8176   -3.8989 H   0  0  0  0  0  0  0  0  0  0  0  0
   -2.5372    5.6410   -0.6790 H   0  0  0  0  0  0  0  0  0  0  0  0
   -1.4922    3.8558    2.1687 H   0  0  0  0  0  0  0  0  0  0  0  0
   -1.5108    2.8834    0.6986 H   0  0  0  0  0  0  0  0  0  0  0  0
   -2.7546    4.1016    0.9617 H   0  0  0  0  0  0  0  0  0  0  0  0
    1.0857    3.0861   -1.4560 H   0  0  0  0  0  0  0  0  0  0  0  0
   -0.0835   -3.8948   -0.4539 H   0  0  0  0  0  0  0  0  0  0  0  0
   -2.1937   -4.3437    0.6986 H   0  0  0  0  0  0  0  0  0  0  0  0
   -4.6226   -4.6580    0.5164 H   0  0  0  0  0  0  0  0  0  0  0  0
   -5.5185   -3.9681   -0.8448 H   0  0  0  0  0  0  0  0  0  0  0  0
   -5.1875   -1.6819    0.1006 H   0  0  0  0  0  0  0  0  0  0  0  0
   -4.2936   -2.3688    1.4560 H   0  0  0  0  0  0  0  0  0  0  0  0
   -6.0109   -2.7345    1.2568 H   0  0  0  0  0  0  0  0  0  0  0  0
   -4.3499   -2.6694   -2.5769 H   0  0  0  0  0  0  0  0  0  0  0  0
   -2.2390   -2.1990   -3.7272 H   0  0  0  0  0  0  0  0  0  0  0  0
    2.8103   -1.9850   -1.9821 H   0  0  0  0  0  0  0  0  0  0  0  0
    4.6448   -3.4896   -1.3940 H   0  0  0  0  0  0  0  0  0  0  0  0
    5.6259   -5.7191   -1.5590 H   0  0  0  0  0  0  0  0  0  0  0  0
    4.6283   -7.1124   -1.9994 H   0  0  0  0  0  0  0  0  0  0  0  0
    5.3442   -7.2514    0.3765 H   0  0  0  0  0  0  0  0  0  0  0  0
    4.5814   -5.6926    0.7076 H   0  0  0  0  0  0  0  0  0  0  0  0
    3.5888   -7.0825    0.2688 H   0  0  0  0  0  0  0  0  0  0  0  0
    2.1825   -6.8572   -2.2747 H   0  0  0  0  0  0  0  0  0  0  0  0
    0.3333   -5.3528   -2.8480 H   0  0  0  0  0  0  0  0  0  0  0  0
    0.4667   -1.6150    0.1455 H   0  0  0  0  0  0  0  0  0  0  0  0
   -0.2780   -4.7267   -5.1542 H   0  0  0  0  0  0  0  0  0  0  0  0
   -0.3721   -3.1830   -8.7138 H   0  0  0  0  0  0  0  0  0  0  0  0
   -2.3794   -4.1990   -7.2616 H   0  0  0  0  0  0  0  0  0  0  0  0
   -2.7112   -6.3909   -8.2475 H   0  0  0  0  0  0  0  0  0  0  0  0
   -3.0350  -11.3041  -11.1834 H   0  0  0  0  0  0  0  0  0  0  0  0
   -3.8669  -10.3020   -9.9661 H   0  0  0  0  0  0  0  0  0  0  0  0
   -2.5864  -11.3933   -8.1513 H   0  0  0  0  0  0  0  0  0  0  0  0
   -1.7308  -12.4062   -9.3278 H   0  0  0  0  0  0  0  0  0  0  0  0
   -3.4670  -12.5958   -9.1007 H   0  0  0  0  0  0  0  0  0  0  0  0
    0.3431   -5.1176  -10.2878 H   0  0  0  0  0  0  0  0  0  0  0  0
    1.3226   -6.4359   -9.6422 H   0  0  0  0  0  0  0  0  0  0  0  0
    1.0390   -5.5142   -7.3405 H   0  0  0  0  0  0  0  0  0  0  0  0
    1.7733   -4.3205   -8.4163 H   0  0  0  0  0  0  0  0  0  0  0  0
  1  2  2  0  0  0  0
  2  3  1  0  0  0  0
  3  4  2  0  0  0  0
  3  5  1  0  0  0  0
  5  6  2  0  0  0  0
  6  7  1  0  0  0  0
  7  8  2  0  0  0  0
  8  9  1  0  0  0  0
  9 10  2  0  0  0  0
 10 11  1  0  0  0  0
 11 12  2  0  0  0  0
 12 13  1  0  0  0  0
 13 14  3  0  0  0  0
 12 15  1  0  0  0  0
 15 16  3  0  0  0  0
  8 17  1  0  0  0  0
 17 18  1  0  0  0  0
 18 19  1  0  0  0  0
 19 20  2  0  0  0  0
 20 21  1  0  0  0  0
 21 22  1  0  0  0  0
 21 23  1  0  0  0  0
  1 24  1  0  0  0  0
 24 25  1  0  0  0  0
 25 26  1  0  0  0  0
 26 27  1  0  0  0  0
 27 28  2  0  0  0  0
 28 29  1  0  0  0  0
 29 30  1  0  0  0  0
 30 31  1  0  0  0  0
 31 32  1  0  0  0  0
 29 33  1  0  0  0  0
 33 34  2  0  0  0  0
 34 35  1  0  0  0  0
 35 36  2  0  0  0  0
 36 37  1  0  0  0  0
 37 38  1  0  0  0  0
 36 39  1  0  0  0  0
 39 40  2  0  0  0  0
 29 41  1  0  0  0  0
 41 42  2  0  0  0  0
 42 43  1  0  0  0  0
 43 44  2  0  0  0  0
 44 45  1  0  0  0  0
 45 46  1  0  0  0  0
 44 47  1  0  0  0  0
 47 48  2  0  0  0  0
 48 49  1  0  0  0  0
 28 50  1  0  0  0  0
 50 51  2  0  0  0  0
 51 52  1  0  0  0  0
 52 53  1  0  0  0  0
 53 54  1  0  0  0  0
 54 55  1  0  0  0  0
 55 56  2  0  0  0  0
 56 57  1  0  0  0  0
 57 58  1  0  0  0  0
 58 59  2  0  0  0  0
 59 60  1  0  0  0  0
 60 61  2  0  0  0  0
 61 62  1  0  0  0  0
 62 63  1  0  0  0  0
 61 64  1  0  0  0  0
 64 65  2  0  0  0  0
 57 66  1  0  0  0  0
 66 67  2  0  0  0  0
 67 68  1  0  0  0  0
 68 69  2  0  0  0  0
 69 70  1  0  0  0  0
 70 71  1  0  0  0  0
 69 72  1  0  0  0  0
 72 73  2  0  0  0  0
 57 74  1  0  0  0  0
 74 75  1  0  0  0  0
 75 76  1  0  0  0  0
 76 77  2  0  0  0  0
 77 78  1  0  0  0  0
 56 79  1  0  0  0  0
 79 80  2  0  0  0  0
 80 81  1  0  0  0  0
 80 82  1  0  0  0  0
 82 83  1  0  0  0  0
 83 84  2  0  0  0  0
 84 85  1  0  0  0  0
 85 86  2  0  0  0  0
 86 87  1  0  0  0  0
 87 88  1  0  0  0  0
 88 89  2  0  0  0  0
 89 90  1  0  0  0  0
 90 91  3  0  0  0  0
 89 92  1  0  0  0  0
 92 93  3  0  0  0  0
 88 94  1  0  0  0  0
 94 95  1  0  0  0  0
 95 96  1  0  0  0  0
 94 97  1  0  0  0  0
 97 98  2  0  0  0  0
 85 99  1  0  0  0  0
 99100  1  0  0  0  0
 11  2  1  0  0  0  0
 23 17  1  0  0  0  0
 31 24  2  0  0  0  0
 40 33  1  0  0  0  0
 48 41  1  0  0  0  0
 77 50  1  0  0  0  0
100 82  1  0  0  0  0
 10  5  1  0  0  0  0
 22 18  1  0  0  0  0
 30 26  2  0  0  0  0
 75 52  2  0  0  0  0
 97 86  1  0  0  0  0
 23  7  1  0  0  0  0
 78 27  1  0  0  0  0
 74 54  2  0  0  0  0
 81 55  1  0  0  0  0
 65 58  1  0  0  0  0
 73 66  1  0  0  0  0
  1101  1  0  0  0  0
  6102  1  0  0  0  0
  9103  1  0  0  0  0
 17104  1  0  0  0  0
 18105  1  0  0  0  0
 19106  1  0  0  0  0
 20107  1  0  0  0  0
 21108  1  0  0  0  0
 22109  1  0  0  0  0
 22110  1  0  0  0  0
 23111  1  0  0  0  0
 32112  1  0  0  0  0
 32113  1  0  0  0  0
 32114  1  0  0  0  0
 34115  1  0  0  0  0
 35116  1  0  0  0  0
 37117  1  0  0  0  0
 37118  1  0  0  0  0
 38119  1  0  0  0  0
 38120  1  0  0  0  0
 38121  1  0  0  0  0
 39122  1  0  0  0  0
 40123  1  0  0  0  0
 42124  1  0  0  0  0
 43125  1  0  0  0  0
 45126  1  0  0  0  0
 45127  1  0  0  0  0
 46128  1  0  0  0  0
 46129  1  0  0  0  0
 46130  1  0  0  0  0
 47131  1  0  0  0  0
 49132  1  0  0  0  0
 49133  1  0  0  0  0
 49134  1  0  0  0  0
 51135  1  0  0  0  0
 59136  1  0  0  0  0
 60137  1  0  0  0  0
 62138  1  0  0  0  0
 62139  1  0  0  0  0
 63140  1  0  0  0  0
 63141  1  0  0  0  0
 63142  1  0  0  0  0
 64143  1  0  0  0  0
 65144  1  0  0  0  0
 67145  1  0  0  0  0
 68146  1  0  0  0  0
 70147  1  0  0  0  0
 70148  1  0  0  0  0
 71149  1  0  0  0  0
 71150  1  0  0  0  0
 71151  1  0  0  0  0
 72152  1  0  0  0  0
 73153  1  0  0  0  0
 76154  1  0  0  0  0
 79155  1  0  0  0  0
 82156  1  0  0  0  0
 83157  1  0  0  0  0
 84158  1  0  0  0  0
 95159  1  0  0  0  0
 95160  1  0  0  0  0
 96161  1  0  0  0  0
 96162  1  0  0  0  0
 96163  1  0  0  0  0
 99164  1  0  0  0  0
 99165  1  0  0  0  0
100166  1  0  0  0  0
100167  1  0  0  0  0
M  END
