162

C         -0.49460        4.63190       -4.83970
C         -1.22730        5.76570       -4.66830
C         -1.39550        6.71730       -5.79950
O         -1.10690        6.51860       -6.95840
C         -1.93350        7.95240       -5.19830
C         -2.15590        9.17370       -5.83210
C         -2.64350       10.15470       -5.00260
C         -2.88260        9.94530       -3.63730
C         -2.67510        8.74560       -2.99980
C         -2.19440        7.72940       -3.83030
C         -1.90910        6.32920       -3.52060
C         -2.45570        5.64320       -2.46670
C         -2.39600        4.24620       -2.28880
N         -2.45200        3.11500       -2.09980
C         -3.29490        6.22860       -1.49540
N         -4.00980        6.63930       -0.69640
C         -3.34740       11.36330       -3.41850
C         -2.34480       12.32650       -2.74860
C         -2.87270       13.69880       -3.09990
C         -2.65170       13.89710       -4.39310
C         -1.97030       12.66240       -4.93770
C         -1.15040       12.24960       -3.70850
C         -3.08610       11.59600       -4.94130
C          0.05110        3.81580       -3.82250
C          0.41590        4.18570       -2.53630
C          0.85820        3.10620       -1.78800
C          1.18910        2.86980       -0.33850
C          0.02700        3.46130        0.43660
C         -1.09860        2.71650        0.74470
C         -2.21260        3.31030        1.31330
C         -2.22180        4.67710        1.57060
O         -3.25790        5.36750        2.09890
C         -4.52520        4.74510        2.19050
C         -5.54550        5.83430        2.47840
C         -1.08100        5.42660        1.27150
C          0.02080        4.82710        0.70650
C          2.52970        3.42360        0.09970
C          2.79960        3.61060        1.45200
C          4.03190        4.06420        1.86560
C          5.03980        4.34090        0.93850
O          6.20430        4.80550        1.46510
C          7.32120        5.02530        0.62790
C          8.02580        3.73000        0.23460
C          4.77510        4.14730       -0.41250
C          3.53200        3.69050       -0.81790
C          1.27620        1.35330       -0.31120
C          1.08880        0.80860       -1.60550
C          0.81300        1.90350       -2.48150
S          0.31400        2.10430       -4.10620
C          1.13290       -0.56330       -1.84080
C          1.34210       -1.38140       -0.75530
C          1.42060       -2.89790       -0.72390
C          2.58440       -3.33220       -1.59240
C          3.86140       -3.46010       -1.07180
C          4.93280       -3.81390       -1.87490
C          4.74040       -4.04310       -3.23250
O          5.69790       -4.41950       -4.12250
C          7.04820       -4.50440       -3.71470
C          7.71570       -3.13650       -3.60390
C          3.45440       -3.90410       -3.76040
C          2.39600       -3.55180       -2.95330
C          0.13370       -3.61950       -1.07860
C         -1.09910       -2.98170       -1.08700
C         -2.26100       -3.71030       -1.23740
C         -2.22190       -5.09890       -1.36260
O         -3.42880       -5.72280       -1.45870
C         -3.49350       -7.12460       -1.28880
C         -3.20680       -7.55730        0.14700
C         -0.98420       -5.73390       -1.39530
C          0.17360       -4.99600       -1.25120
C          1.62040       -3.14270        0.75010
C          1.67450       -1.93500        1.43880
C          1.52890       -0.83580        0.53850
C          1.50950        0.53750        0.76990
S          1.79390       -2.15330        3.12970
C          1.68010       -3.90440        2.92130
C          1.61930       -4.25280        1.57810
C          1.65040       -4.68930        4.08910
C          1.18430       -5.96450        4.26410
C          0.34360       -6.75640        3.33580
O          0.11530       -6.56720        2.15770
C         -0.23230       -7.84320        4.15190
C         -1.16090       -8.79240        3.73150
C         -1.53470       -9.68060        4.71060
C         -1.02440       -9.62880        6.01480
C         -0.10400       -8.70110        6.44100
C          0.28960       -7.78790        5.45880
C          1.22890       -6.67340        5.53020
C          2.06890       -6.40150        6.57880
C          3.06370       -5.40040        6.57840
N          3.91360       -4.63060        6.64370
C          2.09170       -7.12440        7.78910
N          2.16000       -7.66710        8.79870
C         -1.85270      -10.80380        6.47070
C         -3.11550      -10.51060        7.31820
C         -3.57180       -9.12240        6.94360
C         -4.05240       -9.17340        5.70850
C         -3.93010      -10.59760        5.22570
C         -4.14630      -11.35120        6.54770
C         -2.41870      -10.86360        5.01680
H         -0.28080        4.35890       -5.86800
H         -1.95650        9.29590       -6.88520
H         -2.85660        8.59570       -1.94810
H         -4.36170       11.47450       -3.04040
H         -2.15690       12.12900       -1.69670
H         -3.38600       14.33940       -2.40710
H         -2.94360       14.73660       -4.99640
H         -1.44060       12.77140       -5.88020
H         -0.70500       11.25930       -3.78450
H         -0.37900       12.97840       -3.46480
H         -3.92730       11.86170       -5.57860
H          0.37070        5.20100       -2.18490
H         -1.11970        1.65830        0.53250
H         -3.07110        2.69850        1.53980
H         -4.76570        4.24620        1.24250
H         -4.51940        3.99500        2.99480
H         -5.53290        6.55800        1.66870
H         -6.53820        5.40110        2.56150
H         -5.29590        6.34160        3.40630
H         -1.09670        6.48490        1.47990
H          0.88990        5.42340        0.46710
H          2.03040        3.41280        2.18350
H          4.24490        4.21780        2.91160
H          7.99260        5.64320        1.23080
H          7.03260        5.59920       -0.26160
H          7.36310        3.08480       -0.33720
H          8.33690        3.19520        1.12840
H          8.90290        3.95740       -0.36490
H          5.52050        4.34890       -1.16560
H          3.34890        3.54400       -1.87280
H          0.98740       -0.95990       -2.83360
H          4.03430       -3.28580       -0.01970
H          5.90660       -3.90960       -1.42120
H          7.53180       -5.08920       -4.50230
H          7.13530       -5.05940       -2.77250
H          7.65010       -2.61760       -4.55700
H          8.76240       -3.25970       -3.33960
H          7.22860       -2.52620       -2.84720
H          3.31370       -4.08390       -4.81450
H          1.40760       -3.45980       -3.37850
H         -1.15720       -1.91050       -0.96140
H         -3.22280       -3.22210       -1.23720
H         -2.82020       -7.63360       -1.99030
H         -4.52220       -7.37990       -1.55880
H         -3.92420       -7.09500        0.82080
H         -2.20740       -7.25350        0.45170
H         -3.29280       -8.63820        0.22530
H         -0.90380       -6.80210       -1.51590
H          1.12600       -5.50490       -1.26350
H          1.65310        0.93320        1.76330
H          1.56550       -5.27040        1.24440
H          1.98470       -4.16720        4.97900
H         -1.53160       -8.79440        2.71830
H          0.27630       -8.67060        7.44850
H         -1.29780      -11.66470        6.83830
H         -3.00150      -10.70800        8.38060
H         -3.44900       -8.26130        7.57410
H         -4.41050       -8.36320        5.10070
H         -4.55840      -10.87440        4.38310
H         -5.15720      -11.23810        6.93650
H         -3.88960      -12.40820        6.49180
H         -2.23190      -11.76390        4.43460
