
  xtb     02012222283D
 energy: -198.010132542317 gnorm: 0.000388989589 xtb: 6.4.1 (unknown)
111126  0     0  0            999 V2000
   -1.8228   -2.2908   -7.0970 C   0  0  0  0  0  0  0  0  0  0  0  0
   -2.7222   -1.7507   -7.9623 C   0  0  0  0  0  0  0  0  0  0  0  0
   -2.7550   -2.1799   -9.3851 C   0  0  0  0  0  0  0  0  0  0  0  0
   -2.2010   -3.1450   -9.8635 O   0  0  0  0  0  0  0  0  0  0  0  0
   -3.5557   -1.1542  -10.0820 C   0  0  0  0  0  0  0  0  0  0  0  0
   -3.7844   -1.0487  -11.4524 C   0  0  0  0  0  0  0  0  0  0  0  0
   -4.5640    0.0249  -11.8102 C   0  0  0  0  0  0  0  0  0  0  0  0
   -5.0775    0.9358  -10.8766 C   0  0  0  0  0  0  0  0  0  0  0  0
   -4.8680    0.8413   -9.5214 C   0  0  0  0  0  0  0  0  0  0  0  0
   -4.0829   -0.2479   -9.1371 C   0  0  0  0  0  0  0  0  0  0  0  0
   -3.7020   -0.6984   -7.8015 C   0  0  0  0  0  0  0  0  0  0  0  0
   -4.3678   -0.3995   -6.6407 C   0  0  0  0  0  0  0  0  0  0  0  0
   -5.3996    0.5541   -6.5423 C   0  0  0  0  0  0  0  0  0  0  0  0
   -6.2378    1.3266   -6.4039 N   0  0  0  0  0  0  0  0  0  0  0  0
   -4.1686   -1.1064   -5.4368 C   0  0  0  0  0  0  0  0  0  0  0  0
   -4.0779   -1.7032   -4.4598 N   0  0  0  0  0  0  0  0  0  0  0  0
   -5.7560    1.7640  -11.9383 C   0  0  0  0  0  0  0  0  0  0  0  0
   -5.0849    3.0951  -12.3580 C   0  0  0  0  0  0  0  0  0  0  0  0
   -3.6090    2.9356  -12.0896 C   0  0  0  0  0  0  0  0  0  0  0  0
   -3.1274    2.0727  -12.9742 C   0  0  0  0  0  0  0  0  0  0  0  0
   -4.2692    1.6324  -13.8565 C   0  0  0  0  0  0  0  0  0  0  0  0
   -5.1025    2.9237  -13.8854 C   0  0  0  0  0  0  0  0  0  0  0  0
   -5.1881    0.7475  -12.9783 C   0  0  0  0  0  0  0  0  0  0  0  0
   -1.3661   -1.7673   -5.8639 C   0  0  0  0  0  0  0  0  0  0  0  0
   -1.3562   -0.0303   -5.5421 S   0  0  0  0  0  0  0  0  0  0  0  0
   -0.6710   -0.3109   -3.9914 C   0  0  0  0  0  0  0  0  0  0  0  0
   -0.2645    0.3619   -2.8429 C   0  0  0  0  0  0  0  0  0  0  0  0
   -0.2136    1.9898   -2.2350 S   0  0  0  0  0  0  0  0  0  0  0  0
    0.4119    1.3618   -0.7517 C   0  0  0  0  0  0  0  0  0  0  0  0
    0.8213    1.8779    0.4910 C   0  0  0  0  0  0  0  0  0  0  0  0
    0.9445    3.1956    0.9858 C   0  0  0  0  0  0  0  0  0  0  0  0
    1.4707    3.3965    2.3087 C   0  0  0  0  0  0  0  0  0  0  0  0
    1.5811    4.6789    2.6175 N   0  0  0  0  0  0  0  0  0  0  0  0
    1.0646    5.5574    1.3596 S   0  0  0  0  0  0  0  0  0  0  0  0
    0.6799    4.3372    0.3707 N   0  0  0  0  0  0  0  0  0  0  0  0
    1.7285    2.2711    3.1239 C   0  0  0  0  0  0  0  0  0  0  0  0
    2.0362    2.1467    4.4850 C   0  0  0  0  0  0  0  0  0  0  0  0
    2.3724    3.1718    5.8341 S   0  0  0  0  0  0  0  0  0  0  0  0
    2.4170    1.7507    6.8583 C   0  0  0  0  0  0  0  0  0  0  0  0
    2.6163    1.5984    8.2232 C   0  0  0  0  0  0  0  0  0  0  0  0
    2.9181    2.7457    9.1307 C   0  0  0  0  0  0  0  0  0  0  0  0
    4.4278    2.8895    9.3423 C   0  0  0  0  0  0  0  0  0  0  0  0
    2.5506    0.2469    8.6016 C   0  0  0  0  0  0  0  0  0  0  0  0
    2.2361   -0.8121    7.2264 S   0  0  0  0  0  0  0  0  0  0  0  0
    2.1911    0.5470    6.1660 C   0  0  0  0  0  0  0  0  0  0  0  0
    1.9850    0.7808    4.8031 C   0  0  0  0  0  0  0  0  0  0  0  0
    1.6916    0.0565    3.6744 N   0  0  0  0  0  0  0  0  0  0  0  0
    1.5424    0.9482    2.6324 C   0  0  0  0  0  0  0  0  0  0  0  0
    1.2150    0.7662    1.2705 C   0  0  0  0  0  0  0  0  0  0  0  0
    1.1172   -0.3986    0.5101 N   0  0  0  0  0  0  0  0  0  0  0  0
    0.5929   -0.0275   -0.7208 C   0  0  0  0  0  0  0  0  0  0  0  0
    0.1825   -0.6234   -1.9255 C   0  0  0  0  0  0  0  0  0  0  0  0
    0.0457   -1.8683   -2.4908 N   0  0  0  0  0  0  0  0  0  0  0  0
   -0.4654   -1.6872   -3.7510 C   0  0  0  0  0  0  0  0  0  0  0  0
   -0.8272   -2.5000   -4.8217 C   0  0  0  0  0  0  0  0  0  0  0  0
    0.1845   -3.1644   -1.8755 C   0  0  0  0  0  0  0  0  0  0  0  0
    1.4826   -3.8608   -2.2787 C   0  0  0  0  0  0  0  0  0  0  0  0
    2.1546   -1.4124    0.5814 C   0  0  0  0  0  0  0  0  0  0  0  0
    3.3053   -1.0975   -0.3745 C   0  0  0  0  0  0  0  0  0  0  0  0
    1.2321   -1.3141    3.7546 C   0  0  0  0  0  0  0  0  0  0  0  0
    2.3573   -2.2997    4.0655 C   0  0  0  0  0  0  0  0  0  0  0  0
    2.7059   -0.1819    9.9235 C   0  0  0  0  0  0  0  0  0  0  0  0
    2.6956   -1.4372   10.4769 C   0  0  0  0  0  0  0  0  0  0  0  0
    2.5291   -2.7129    9.7569 C   0  0  0  0  0  0  0  0  0  0  0  0
    2.3604   -2.8793    8.5613 O   0  0  0  0  0  0  0  0  0  0  0  0
    2.6119   -3.7326   10.7966 C   0  0  0  0  0  0  0  0  0  0  0  0
    2.5291   -5.4380   10.8700 S   0  0  0  0  0  0  0  0  0  0  0  0
    2.7512   -5.3770   12.5792 C   0  0  0  0  0  0  0  0  0  0  0  0
    2.8831   -4.1138   13.0758 C   0  0  0  0  0  0  0  0  0  0  0  0
    2.8032   -3.1577   12.0452 C   0  0  0  0  0  0  0  0  0  0  0  0
    2.8617   -1.7152   11.8922 C   0  0  0  0  0  0  0  0  0  0  0  0
    3.0375   -0.8341   12.9289 C   0  0  0  0  0  0  0  0  0  0  0  0
    3.1791   -1.2789   14.2599 C   0  0  0  0  0  0  0  0  0  0  0  0
    3.2970   -1.6174   15.3502 N   0  0  0  0  0  0  0  0  0  0  0  0
    3.0980    0.5689   12.8263 C   0  0  0  0  0  0  0  0  0  0  0  0
    3.1580    1.7166   12.8162 N   0  0  0  0  0  0  0  0  0  0  0  0
   -1.3474   -3.2091   -7.4290 H   0  0  0  0  0  0  0  0  0  0  0  0
   -3.3727   -1.7706  -12.1404 H   0  0  0  0  0  0  0  0  0  0  0  0
   -5.2632    1.5476   -8.8097 H   0  0  0  0  0  0  0  0  0  0  0  0
   -6.8369    1.8547  -11.8512 H   0  0  0  0  0  0  0  0  0  0  0  0
   -5.5540    3.9856  -11.9482 H   0  0  0  0  0  0  0  0  0  0  0  0
   -3.0944    3.4076  -11.2732 H   0  0  0  0  0  0  0  0  0  0  0  0
   -2.1300    1.6799  -13.0445 H   0  0  0  0  0  0  0  0  0  0  0  0
   -3.9959    1.1916  -14.8117 H   0  0  0  0  0  0  0  0  0  0  0  0
   -4.6005    3.7375  -14.4066 H   0  0  0  0  0  0  0  0  0  0  0  0
   -6.1023    2.7859  -14.2949 H   0  0  0  0  0  0  0  0  0  0  0  0
   -5.8994    0.1733  -13.5690 H   0  0  0  0  0  0  0  0  0  0  0  0
    2.5349    3.6570    8.6673 H   0  0  0  0  0  0  0  0  0  0  0  0
    2.4274    2.6216   10.0972 H   0  0  0  0  0  0  0  0  0  0  0  0
    4.8417    1.9884    9.7890 H   0  0  0  0  0  0  0  0  0  0  0  0
    4.9273    3.0677    8.3928 H   0  0  0  0  0  0  0  0  0  0  0  0
    4.6283    3.7257   10.0058 H   0  0  0  0  0  0  0  0  0  0  0  0
   -0.7589   -3.5722   -4.8488 H   0  0  0  0  0  0  0  0  0  0  0  0
    0.1268   -3.0405   -0.7921 H   0  0  0  0  0  0  0  0  0  0  0  0
   -0.6685   -3.7748   -2.1890 H   0  0  0  0  0  0  0  0  0  0  0  0
    1.5205   -3.9848   -3.3579 H   0  0  0  0  0  0  0  0  0  0  0  0
    1.5350   -4.8419   -1.8144 H   0  0  0  0  0  0  0  0  0  0  0  0
    2.3488   -3.2819   -1.9707 H   0  0  0  0  0  0  0  0  0  0  0  0
    1.7284   -2.3922    0.3553 H   0  0  0  0  0  0  0  0  0  0  0  0
    2.5462   -1.4258    1.5943 H   0  0  0  0  0  0  0  0  0  0  0  0
    3.7483   -0.1369   -0.1191 H   0  0  0  0  0  0  0  0  0  0  0  0
    2.9575   -1.0473   -1.4037 H   0  0  0  0  0  0  0  0  0  0  0  0
    4.0712   -1.8650   -0.2965 H   0  0  0  0  0  0  0  0  0  0  0  0
    0.4907   -1.3735    4.5596 H   0  0  0  0  0  0  0  0  0  0  0  0
    0.7303   -1.5635    2.8185 H   0  0  0  0  0  0  0  0  0  0  0  0
    3.1935   -2.1910    3.3785 H   0  0  0  0  0  0  0  0  0  0  0  0
    1.9772   -3.3148    3.9948 H   0  0  0  0  0  0  0  0  0  0  0  0
    2.7267   -2.1469    5.0752 H   0  0  0  0  0  0  0  0  0  0  0  0
    2.8623    0.6315   10.6194 H   0  0  0  0  0  0  0  0  0  0  0  0
    2.7724   -6.2965   13.1309 H   0  0  0  0  0  0  0  0  0  0  0  0
    3.0279   -3.8939   14.1171 H   0  0  0  0  0  0  0  0  0  0  0  0
  1  2  2  0  0  0  0
  2  3  1  0  0  0  0
  3  4  2  0  0  0  0
  3  5  1  0  0  0  0
  5  6  2  0  0  0  0
  6  7  1  0  0  0  0
  7  8  2  0  0  0  0
  8  9  1  0  0  0  0
  9 10  2  0  0  0  0
 10 11  1  0  0  0  0
 11 12  2  0  0  0  0
 12 13  1  0  0  0  0
 13 14  3  0  0  0  0
 12 15  1  0  0  0  0
 15 16  3  0  0  0  0
  8 17  1  0  0  0  0
 17 18  1  0  0  0  0
 18 19  1  0  0  0  0
 19 20  2  0  0  0  0
 20 21  1  0  0  0  0
 21 22  1  0  0  0  0
 21 23  1  0  0  0  0
  1 24  1  0  0  0  0
 24 25  1  0  0  0  0
 25 26  1  0  0  0  0
 26 27  1  0  0  0  0
 27 28  1  0  0  0  0
 28 29  1  0  0  0  0
 29 30  1  0  0  0  0
 30 31  1  0  0  0  0
 31 32  1  0  0  0  0
 32 33  2  0  0  0  0
 33 34  1  0  0  0  0
 34 35  1  0  0  0  0
 32 36  1  0  0  0  0
 36 37  1  0  0  0  0
 37 38  1  0  0  0  0
 38 39  1  0  0  0  0
 39 40  1  0  0  0  0
 40 41  1  0  0  0  0
 41 42  1  0  0  0  0
 40 43  2  0  0  0  0
 43 44  1  0  0  0  0
 44 45  1  0  0  0  0
 45 46  1  0  0  0  0
 46 47  1  0  0  0  0
 47 48  1  0  0  0  0
 48 49  1  0  0  0  0
 49 50  1  0  0  0  0
 50 51  1  0  0  0  0
 51 52  1  0  0  0  0
 52 53  1  0  0  0  0
 53 54  1  0  0  0  0
 54 55  1  0  0  0  0
 53 56  1  0  0  0  0
 56 57  1  0  0  0  0
 50 58  1  0  0  0  0
 58 59  1  0  0  0  0
 47 60  1  0  0  0  0
 60 61  1  0  0  0  0
 43 62  1  0  0  0  0
 62 63  2  0  0  0  0
 63 64  1  0  0  0  0
 64 65  2  0  0  0  0
 64 66  1  0  0  0  0
 66 67  1  0  0  0  0
 67 68  1  0  0  0  0
 68 69  2  0  0  0  0
 69 70  1  0  0  0  0
 70 71  1  0  0  0  0
 71 72  2  0  0  0  0
 72 73  1  0  0  0  0
 73 74  3  0  0  0  0
 72 75  1  0  0  0  0
 75 76  3  0  0  0  0
 11  2  1  0  0  0  0
 23 17  1  0  0  0  0
 55 24  2  0  0  0  0
 71 63  1  0  0  0  0
 10  5  1  0  0  0  0
 22 18  1  0  0  0  0
 54 26  2  0  0  0  0
 70 66  2  0  0  0  0
 23  7  1  0  0  0  0
 52 27  2  0  0  0  0
 51 29  2  0  0  0  0
 49 30  2  0  0  0  0
 35 31  2  0  0  0  0
 48 36  2  0  0  0  0
 46 37  2  0  0  0  0
 45 39  2  0  0  0  0
  1 77  1  0  0  0  0
  6 78  1  0  0  0  0
  9 79  1  0  0  0  0
 17 80  1  0  0  0  0
 18 81  1  0  0  0  0
 19 82  1  0  0  0  0
 20 83  1  0  0  0  0
 21 84  1  0  0  0  0
 22 85  1  0  0  0  0
 22 86  1  0  0  0  0
 23 87  1  0  0  0  0
 41 88  1  0  0  0  0
 41 89  1  0  0  0  0
 42 90  1  0  0  0  0
 42 91  1  0  0  0  0
 42 92  1  0  0  0  0
 55 93  1  0  0  0  0
 56 94  1  0  0  0  0
 56 95  1  0  0  0  0
 57 96  1  0  0  0  0
 57 97  1  0  0  0  0
 57 98  1  0  0  0  0
 58 99  1  0  0  0  0
 58100  1  0  0  0  0
 59101  1  0  0  0  0
 59102  1  0  0  0  0
 59103  1  0  0  0  0
 60104  1  0  0  0  0
 60105  1  0  0  0  0
 61106  1  0  0  0  0
 61107  1  0  0  0  0
 61108  1  0  0  0  0
 62109  1  0  0  0  0
 68110  1  0  0  0  0
 69111  1  0  0  0  0
M  END
