
  xtb     02022202233D
 energy: -208.522158071797 gnorm: 0.000307183330 xtb: 6.4.1 (unknown)
114129  0     0  0            999 V2000
    4.1569   -4.7228    4.1912 C   0  0  0  0  0  0  0  0  0  0  0  0
    5.2390   -3.9204    4.4431 C   0  0  0  0  0  0  0  0  0  0  0  0
    5.4954   -2.5860    3.8549 C   0  0  0  0  0  0  0  0  0  0  0  0
    4.7235   -1.8408    3.2817 O   0  0  0  0  0  0  0  0  0  0  0  0
    6.9380   -2.3423    4.0390 C   0  0  0  0  0  0  0  0  0  0  0  0
    7.6624   -1.2532    3.5581 C   0  0  0  0  0  0  0  0  0  0  0  0
    8.9989   -1.2882    3.8736 C   0  0  0  0  0  0  0  0  0  0  0  0
    9.5760   -2.3309    4.6109 C   0  0  0  0  0  0  0  0  0  0  0  0
    8.8740   -3.4133    5.0867 C   0  0  0  0  0  0  0  0  0  0  0  0
    7.5105   -3.3960    4.7777 C   0  0  0  0  0  0  0  0  0  0  0  0
    6.4587   -4.3577    5.0935 C   0  0  0  0  0  0  0  0  0  0  0  0
    6.5783   -5.4347    5.9326 C   0  0  0  0  0  0  0  0  0  0  0  0
    7.7735   -5.8108    6.5784 C   0  0  0  0  0  0  0  0  0  0  0  0
    8.7151   -6.1681    7.1303 N   0  0  0  0  0  0  0  0  0  0  0  0
    5.5099   -6.2768    6.3077 C   0  0  0  0  0  0  0  0  0  0  0  0
    4.6849   -6.9834    6.6801 N   0  0  0  0  0  0  0  0  0  0  0  0
   10.9521   -1.7150    4.5544 C   0  0  0  0  0  0  0  0  0  0  0  0
   11.4407   -0.9976    5.8307 C   0  0  0  0  0  0  0  0  0  0  0  0
   12.5608   -0.1093    5.3389 C   0  0  0  0  0  0  0  0  0  0  0  0
   12.0158    0.8770    4.6383 C   0  0  0  0  0  0  0  0  0  0  0  0
   10.5181    0.6719    4.6448 C   0  0  0  0  0  0  0  0  0  0  0  0
   10.3423    0.0533    6.0376 C   0  0  0  0  0  0  0  0  0  0  0  0
   10.3085   -0.5537    3.7307 C   0  0  0  0  0  0  0  0  0  0  0  0
    2.9359   -4.3348    3.6087 C   0  0  0  0  0  0  0  0  0  0  0  0
    2.0072   -5.5501    2.7116 S   0  0  0  0  0  0  0  0  0  0  0  0
    0.8873   -4.3423    2.2213 C   0  0  0  0  0  0  0  0  0  0  0  0
   -0.2012   -4.1302    1.3808 C   0  0  0  0  0  0  0  0  0  0  0  0
   -1.1416   -5.0600    0.2531 S   0  0  0  0  0  0  0  0  0  0  0  0
   -1.9772   -3.6052   -0.1554 C   0  0  0  0  0  0  0  0  0  0  0  0
   -2.9101   -3.2133   -1.1220 C   0  0  0  0  0  0  0  0  0  0  0  0
   -3.4450   -3.9183   -2.2236 C   0  0  0  0  0  0  0  0  0  0  0  0
   -4.1281   -3.1800   -3.2456 C   0  0  0  0  0  0  0  0  0  0  0  0
   -4.4888   -3.9430   -4.2653 N   0  0  0  0  0  0  0  0  0  0  0  0
   -4.0198   -5.4623   -3.9599 S   0  0  0  0  0  0  0  0  0  0  0  0
   -3.3298   -5.2027   -2.5196 N   0  0  0  0  0  0  0  0  0  0  0  0
   -4.3566   -1.7992   -3.0540 C   0  0  0  0  0  0  0  0  0  0  0  0
   -4.9696   -0.8410   -3.8742 C   0  0  0  0  0  0  0  0  0  0  0  0
   -5.6468   -0.7082   -5.4600 S   0  0  0  0  0  0  0  0  0  0  0  0
   -5.9510    0.9946   -5.1557 C   0  0  0  0  0  0  0  0  0  0  0  0
   -6.4643    2.0118   -5.9435 C   0  0  0  0  0  0  0  0  0  0  0  0
   -6.9756    1.7886   -7.3286 C   0  0  0  0  0  0  0  0  0  0  0  0
   -8.4981    1.6251   -7.3290 C   0  0  0  0  0  0  0  0  0  0  0  0
   -6.4692    3.2433   -5.2548 C   0  0  0  0  0  0  0  0  0  0  0  0
   -5.8388    3.0877   -3.6110 S   0  0  0  0  0  0  0  0  0  0  0  0
   -5.5573    1.4100   -3.8686 C   0  0  0  0  0  0  0  0  0  0  0  0
   -4.9935    0.3569   -3.1517 C   0  0  0  0  0  0  0  0  0  0  0  0
   -4.4168    0.1836   -1.9143 N   0  0  0  0  0  0  0  0  0  0  0  0
   -3.9747   -1.1324   -1.8514 C   0  0  0  0  0  0  0  0  0  0  0  0
   -3.1288   -1.8206   -0.9422 C   0  0  0  0  0  0  0  0  0  0  0  0
   -2.3133   -1.3902    0.0869 N   0  0  0  0  0  0  0  0  0  0  0  0
   -1.5934   -2.4622    0.5646 C   0  0  0  0  0  0  0  0  0  0  0  0
   -0.5405   -2.7520    1.4600 C   0  0  0  0  0  0  0  0  0  0  0  0
    0.2972   -2.1396    2.3686 N   0  0  0  0  0  0  0  0  0  0  0  0
    1.1878   -3.0897    2.8002 C   0  0  0  0  0  0  0  0  0  0  0  0
    2.3320   -3.0889    3.5865 C   0  0  0  0  0  0  0  0  0  0  0  0
    0.5268   -0.7497    2.6856 C   0  0  0  0  0  0  0  0  0  0  0  0
    1.6030   -0.1398    1.7881 C   0  0  0  0  0  0  0  0  0  0  0  0
   -2.1157   -0.0466    0.5623 C   0  0  0  0  0  0  0  0  0  0  0  0
   -2.8561    0.1821    1.8832 C   0  0  0  0  0  0  0  0  0  0  0  0
   -4.9270    1.0380   -0.8580 C   0  0  0  0  0  0  0  0  0  0  0  0
   -6.3777    0.6878   -0.5269 C   0  0  0  0  0  0  0  0  0  0  0  0
   -6.8831    4.4382   -5.8392 C   0  0  0  0  0  0  0  0  0  0  0  0
   -6.9113    5.7262   -5.3462 C   0  0  0  0  0  0  0  0  0  0  0  0
   -6.5219    6.1457   -4.0026 C   0  0  0  0  0  0  0  0  0  0  0  0
   -6.1358    5.4521   -3.0771 O   0  0  0  0  0  0  0  0  0  0  0  0
   -6.6881    7.6143   -3.9688 C   0  0  0  0  0  0  0  0  0  0  0  0
   -6.4345    8.4821   -2.9262 C   0  0  0  0  0  0  0  0  0  0  0  0
   -6.6610    9.8316   -3.1451 C   0  0  0  0  0  0  0  0  0  0  0  0
   -6.4257   10.7110   -2.1624 F   0  0  0  0  0  0  0  0  0  0  0  0
   -7.1295   10.2813   -4.3789 C   0  0  0  0  0  0  0  0  0  0  0  0
   -7.3380   11.5902   -4.5637 F   0  0  0  0  0  0  0  0  0  0  0  0
   -7.3853    9.4071   -5.4258 C   0  0  0  0  0  0  0  0  0  0  0  0
   -7.1603    8.0561   -5.2155 C   0  0  0  0  0  0  0  0  0  0  0  0
   -7.3164    6.8953   -6.0960 C   0  0  0  0  0  0  0  0  0  0  0  0
   -7.7609    6.9506   -7.3933 C   0  0  0  0  0  0  0  0  0  0  0  0
   -7.9128    5.8509   -8.2627 C   0  0  0  0  0  0  0  0  0  0  0  0
   -8.0625    5.0117   -9.0336 N   0  0  0  0  0  0  0  0  0  0  0  0
   -8.1347    8.1420   -8.0498 C   0  0  0  0  0  0  0  0  0  0  0  0
   -8.4533    9.0723   -8.6421 N   0  0  0  0  0  0  0  0  0  0  0  0
    4.2624   -5.7854    4.3769 H   0  0  0  0  0  0  0  0  0  0  0  0
    7.1795   -0.4741    2.9892 H   0  0  0  0  0  0  0  0  0  0  0  0
    9.3332   -4.2158    5.6394 H   0  0  0  0  0  0  0  0  0  0  0  0
   11.7245   -2.3213    4.0851 H   0  0  0  0  0  0  0  0  0  0  0  0
   11.6678   -1.6564    6.6642 H   0  0  0  0  0  0  0  0  0  0  0  0
   13.6031   -0.3141    5.4986 H   0  0  0  0  0  0  0  0  0  0  0  0
   12.5117    1.6605    4.0958 H   0  0  0  0  0  0  0  0  0  0  0  0
    9.9051    1.5348    4.3980 H   0  0  0  0  0  0  0  0  0  0  0  0
   10.5884    0.7544    6.8334 H   0  0  0  0  0  0  0  0  0  0  0  0
    9.3540   -0.3669    6.2152 H   0  0  0  0  0  0  0  0  0  0  0  0
   10.6501   -0.3876    2.7105 H   0  0  0  0  0  0  0  0  0  0  0  0
   -6.7013    2.6150   -7.9861 H   0  0  0  0  0  0  0  0  0  0  0  0
   -6.5190    0.8762   -7.7174 H   0  0  0  0  0  0  0  0  0  0  0  0
   -8.8482    1.4546   -8.3428 H   0  0  0  0  0  0  0  0  0  0  0  0
   -8.7879    0.7784   -6.7111 H   0  0  0  0  0  0  0  0  0  0  0  0
   -8.9823    2.5192   -6.9437 H   0  0  0  0  0  0  0  0  0  0  0  0
    2.7181   -2.2473    4.1265 H   0  0  0  0  0  0  0  0  0  0  0  0
    0.8600   -0.7107    3.7266 H   0  0  0  0  0  0  0  0  0  0  0  0
   -0.4043   -0.1919    2.6165 H   0  0  0  0  0  0  0  0  0  0  0  0
    2.5526   -0.6445    1.9480 H   0  0  0  0  0  0  0  0  0  0  0  0
    1.3333   -0.2383    0.7382 H   0  0  0  0  0  0  0  0  0  0  0  0
    1.7263    0.9143    2.0217 H   0  0  0  0  0  0  0  0  0  0  0  0
   -1.0429    0.1070    0.7008 H   0  0  0  0  0  0  0  0  0  0  0  0
   -2.4347    0.6516   -0.2118 H   0  0  0  0  0  0  0  0  0  0  0  0
   -3.9231    0.0008    1.7739 H   0  0  0  0  0  0  0  0  0  0  0  0
   -2.7063    1.2010    2.2314 H   0  0  0  0  0  0  0  0  0  0  0  0
   -2.4956   -0.5086    2.6425 H   0  0  0  0  0  0  0  0  0  0  0  0
   -4.8690    2.0684   -1.2204 H   0  0  0  0  0  0  0  0  0  0  0  0
   -4.3321    0.9479    0.0414 H   0  0  0  0  0  0  0  0  0  0  0  0
   -6.4527   -0.3475   -0.1992 H   0  0  0  0  0  0  0  0  0  0  0  0
   -6.7379    1.3351    0.2677 H   0  0  0  0  0  0  0  0  0  0  0  0
   -7.0147    0.8229   -1.3970 H   0  0  0  0  0  0  0  0  0  0  0  0
   -7.2184    4.3215   -6.8604 H   0  0  0  0  0  0  0  0  0  0  0  0
   -6.0714    8.1289   -1.9744 H   0  0  0  0  0  0  0  0  0  0  0  0
   -7.7454    9.8080   -6.3587 H   0  0  0  0  0  0  0  0  0  0  0  0
  1  2  2  0  0  0  0
  2  3  1  0  0  0  0
  3  4  2  0  0  0  0
  3  5  1  0  0  0  0
  5  6  2  0  0  0  0
  6  7  1  0  0  0  0
  7  8  2  0  0  0  0
  8  9  1  0  0  0  0
  9 10  2  0  0  0  0
 10 11  1  0  0  0  0
 11 12  2  0  0  0  0
 12 13  1  0  0  0  0
 13 14  3  0  0  0  0
 12 15  1  0  0  0  0
 15 16  3  0  0  0  0
  8 17  1  0  0  0  0
 17 18  1  0  0  0  0
 18 19  1  0  0  0  0
 19 20  2  0  0  0  0
 20 21  1  0  0  0  0
 21 22  1  0  0  0  0
 21 23  1  0  0  0  0
  1 24  1  0  0  0  0
 24 25  1  0  0  0  0
 25 26  1  0  0  0  0
 26 27  1  0  0  0  0
 27 28  1  0  0  0  0
 28 29  1  0  0  0  0
 29 30  1  0  0  0  0
 30 31  1  0  0  0  0
 31 32  1  0  0  0  0
 32 33  2  0  0  0  0
 33 34  1  0  0  0  0
 34 35  1  0  0  0  0
 32 36  1  0  0  0  0
 36 37  1  0  0  0  0
 37 38  1  0  0  0  0
 38 39  1  0  0  0  0
 39 40  1  0  0  0  0
 40 41  1  0  0  0  0
 41 42  1  0  0  0  0
 40 43  2  0  0  0  0
 43 44  1  0  0  0  0
 44 45  1  0  0  0  0
 45 46  1  0  0  0  0
 46 47  1  0  0  0  0
 47 48  1  0  0  0  0
 48 49  1  0  0  0  0
 49 50  1  0  0  0  0
 50 51  1  0  0  0  0
 51 52  1  0  0  0  0
 52 53  1  0  0  0  0
 53 54  1  0  0  0  0
 54 55  1  0  0  0  0
 53 56  1  0  0  0  0
 56 57  1  0  0  0  0
 50 58  1  0  0  0  0
 58 59  1  0  0  0  0
 47 60  1  0  0  0  0
 60 61  1  0  0  0  0
 43 62  1  0  0  0  0
 62 63  2  0  0  0  0
 63 64  1  0  0  0  0
 64 65  2  0  0  0  0
 64 66  1  0  0  0  0
 66 67  2  0  0  0  0
 67 68  1  0  0  0  0
 68 69  1  0  0  0  0
 68 70  2  0  0  0  0
 70 71  1  0  0  0  0
 70 72  1  0  0  0  0
 72 73  2  0  0  0  0
 73 74  1  0  0  0  0
 74 75  2  0  0  0  0
 75 76  1  0  0  0  0
 76 77  3  0  0  0  0
 75 78  1  0  0  0  0
 78 79  3  0  0  0  0
 11  2  1  0  0  0  0
 23 17  1  0  0  0  0
 55 24  2  0  0  0  0
 74 63  1  0  0  0  0
 10  5  1  0  0  0  0
 22 18  1  0  0  0  0
 54 26  2  0  0  0  0
 73 66  1  0  0  0  0
 23  7  1  0  0  0  0
 52 27  2  0  0  0  0
 51 29  2  0  0  0  0
 49 30  2  0  0  0  0
 35 31  2  0  0  0  0
 48 36  2  0  0  0  0
 46 37  2  0  0  0  0
 45 39  2  0  0  0  0
  1 80  1  0  0  0  0
  6 81  1  0  0  0  0
  9 82  1  0  0  0  0
 17 83  1  0  0  0  0
 18 84  1  0  0  0  0
 19 85  1  0  0  0  0
 20 86  1  0  0  0  0
 21 87  1  0  0  0  0
 22 88  1  0  0  0  0
 22 89  1  0  0  0  0
 23 90  1  0  0  0  0
 41 91  1  0  0  0  0
 41 92  1  0  0  0  0
 42 93  1  0  0  0  0
 42 94  1  0  0  0  0
 42 95  1  0  0  0  0
 55 96  1  0  0  0  0
 56 97  1  0  0  0  0
 56 98  1  0  0  0  0
 57 99  1  0  0  0  0
 57100  1  0  0  0  0
 57101  1  0  0  0  0
 58102  1  0  0  0  0
 58103  1  0  0  0  0
 59104  1  0  0  0  0
 59105  1  0  0  0  0
 59106  1  0  0  0  0
 60107  1  0  0  0  0
 60108  1  0  0  0  0
 61109  1  0  0  0  0
 61110  1  0  0  0  0
 61111  1  0  0  0  0
 62112  1  0  0  0  0
 67113  1  0  0  0  0
 72114  1  0  0  0  0
M  END
