
  xtb     02022213273D
 energy: -207.609350240171 gnorm: 0.000204485867 xtb: 6.4.1 (unknown)
117133  0     0  0            999 V2000
   -7.6816    2.0078    0.0011 C   0  0  0  0  0  0  0  0  0  0  0  0
   -7.9537    2.7559    1.1179 C   0  0  0  0  0  0  0  0  0  0  0  0
   -7.2285    2.8075    2.4050 C   0  0  0  0  0  0  0  0  0  0  0  0
   -6.4179    2.0239    2.8643 O   0  0  0  0  0  0  0  0  0  0  0  0
   -7.6814    4.0410    3.0740 C   0  0  0  0  0  0  0  0  0  0  0  0
   -7.1916    4.5654    4.2678 C   0  0  0  0  0  0  0  0  0  0  0  0
   -7.7691    5.7570    4.6328 C   0  0  0  0  0  0  0  0  0  0  0  0
   -8.7628    6.3817    3.8673 C   0  0  0  0  0  0  0  0  0  0  0  0
   -9.2669    5.8656    2.6969 C   0  0  0  0  0  0  0  0  0  0  0  0
   -8.6922    4.6523    2.3085 C   0  0  0  0  0  0  0  0  0  0  0  0
   -8.9510    3.8136    1.1411 C   0  0  0  0  0  0  0  0  0  0  0  0
  -10.0021    3.9685    0.2753 C   0  0  0  0  0  0  0  0  0  0  0  0
  -10.3325    3.0919   -0.7805 C   0  0  0  0  0  0  0  0  0  0  0  0
  -10.6916    2.4199   -1.6400 N   0  0  0  0  0  0  0  0  0  0  0  0
  -10.9520    5.0078    0.3582 C   0  0  0  0  0  0  0  0  0  0  0  0
  -11.7574    5.8263    0.3626 N   0  0  0  0  0  0  0  0  0  0  0  0
   -8.8585    7.5574    4.8070 C   0  0  0  0  0  0  0  0  0  0  0  0
   -8.1712    8.8784    4.3800 C   0  0  0  0  0  0  0  0  0  0  0  0
   -7.0393    8.4976    3.4585 C   0  0  0  0  0  0  0  0  0  0  0  0
   -6.1042    7.9046    4.1886 C   0  0  0  0  0  0  0  0  0  0  0  0
   -6.5877    7.8730    5.6174 C   0  0  0  0  0  0  0  0  0  0  0  0
   -7.3828    9.1875    5.6629 C   0  0  0  0  0  0  0  0  0  0  0  0
   -7.7566    6.8578    5.6638 C   0  0  0  0  0  0  0  0  0  0  0  0
   -6.7045    1.0262   -0.2332 C   0  0  0  0  0  0  0  0  0  0  0  0
   -6.4601    0.5497   -1.9285 S   0  0  0  0  0  0  0  0  0  0  0  0
   -5.1522   -0.4619   -1.4704 C   0  0  0  0  0  0  0  0  0  0  0  0
   -4.1432   -1.2591   -2.0039 C   0  0  0  0  0  0  0  0  0  0  0  0
   -3.5123   -1.6894   -3.5698 S   0  0  0  0  0  0  0  0  0  0  0  0
   -2.1964   -2.4759   -2.7695 C   0  0  0  0  0  0  0  0  0  0  0  0
   -0.9890   -3.0996   -3.1271 C   0  0  0  0  0  0  0  0  0  0  0  0
   -0.4141   -3.3789   -4.3862 C   0  0  0  0  0  0  0  0  0  0  0  0
    0.8979   -3.9586   -4.4383 C   0  0  0  0  0  0  0  0  0  0  0  0
    1.3030   -4.1812   -5.6789 N   0  0  0  0  0  0  0  0  0  0  0  0
    0.1364   -3.7011   -6.6933 S   0  0  0  0  0  0  0  0  0  0  0  0
   -0.9294   -3.1878   -5.5904 N   0  0  0  0  0  0  0  0  0  0  0  0
    1.6075   -4.1506   -3.2323 C   0  0  0  0  0  0  0  0  0  0  0  0
    2.9529   -4.4620   -2.9900 C   0  0  0  0  0  0  0  0  0  0  0  0
    4.4028   -4.7771   -3.8775 S   0  0  0  0  0  0  0  0  0  0  0  0
    5.3072   -4.7304   -2.3803 C   0  0  0  0  0  0  0  0  0  0  0  0
    6.6816   -4.7313   -2.1023 C   0  0  0  0  0  0  0  0  0  0  0  0
    7.7349   -4.9725   -3.1346 C   0  0  0  0  0  0  0  0  0  0  0  0
    7.4971   -6.2800   -3.8899 C   0  0  0  0  0  0  0  0  0  0  0  0
    6.9176   -4.5550   -0.7456 C   0  0  0  0  0  0  0  0  0  0  0  0
    5.4266   -4.4702    0.1882 S   0  0  0  0  0  0  0  0  0  0  0  0
    4.4943   -4.5339   -1.2568 C   0  0  0  0  0  0  0  0  0  0  0  0
    3.1523   -4.3663   -1.6088 C   0  0  0  0  0  0  0  0  0  0  0  0
    1.9779   -4.0415   -0.9867 N   0  0  0  0  0  0  0  0  0  0  0  0
    1.0137   -3.8804   -1.9655 C   0  0  0  0  0  0  0  0  0  0  0  0
   -0.3305   -3.4384   -1.9175 C   0  0  0  0  0  0  0  0  0  0  0  0
   -1.1539   -3.1002   -0.8456 N   0  0  0  0  0  0  0  0  0  0  0  0
   -2.2635   -2.4642   -1.3716 C   0  0  0  0  0  0  0  0  0  0  0  0
   -3.3715   -1.7348   -0.9117 C   0  0  0  0  0  0  0  0  0  0  0  0
   -3.8827   -1.2395    0.2619 N   0  0  0  0  0  0  0  0  0  0  0  0
   -4.9623   -0.4584   -0.0657 C   0  0  0  0  0  0  0  0  0  0  0  0
   -5.8331    0.3704    0.6242 C   0  0  0  0  0  0  0  0  0  0  0  0
   -3.3668   -1.3393    1.6048 C   0  0  0  0  0  0  0  0  0  0  0  0
   -4.1507   -2.3502    2.4402 C   0  0  0  0  0  0  0  0  0  0  0  0
   -1.2865   -3.8571    0.3875 C   0  0  0  0  0  0  0  0  0  0  0  0
   -1.1099   -5.3569    0.1657 C   0  0  0  0  0  0  0  0  0  0  0  0
    1.9905   -3.5934    0.3869 C   0  0  0  0  0  0  0  0  0  0  0  0
    1.8240   -2.0800    0.4883 C   0  0  0  0  0  0  0  0  0  0  0  0
    8.1273   -4.4197   -0.0243 C   0  0  0  0  0  0  0  0  0  0  0  0
    9.2830   -3.8122   -0.4122 C   0  0  0  0  0  0  0  0  0  0  0  0
   10.5462   -4.0819    0.3238 C   0  0  0  0  0  0  0  0  0  0  0  0
   10.6598   -4.6789    1.3713 O   0  0  0  0  0  0  0  0  0  0  0  0
   11.6162   -3.5134   -0.5176 C   0  0  0  0  0  0  0  0  0  0  0  0
   12.9752   -3.5738   -0.3258 C   0  0  0  0  0  0  0  0  0  0  0  0
   13.7982   -2.9653   -1.2789 C   0  0  0  0  0  0  0  0  0  0  0  0
   15.2188   -2.8809   -1.3148 C   0  0  0  0  0  0  0  0  0  0  0  0
   15.6730   -2.2160   -2.3994 C   0  0  0  0  0  0  0  0  0  0  0  0
   14.4154   -1.6523   -3.4446 S   0  0  0  0  0  0  0  0  0  0  0  0
   13.2084   -2.3244   -2.3946 C   0  0  0  0  0  0  0  0  0  0  0  0
   11.8335   -2.2546   -2.5863 C   0  0  0  0  0  0  0  0  0  0  0  0
   11.0352   -2.8516   -1.6305 C   0  0  0  0  0  0  0  0  0  0  0  0
    9.5833   -2.9113   -1.5037 C   0  0  0  0  0  0  0  0  0  0  0  0
    8.7010   -2.0724   -2.1376 C   0  0  0  0  0  0  0  0  0  0  0  0
    9.0694   -1.1655   -3.1514 C   0  0  0  0  0  0  0  0  0  0  0  0
    9.3073   -0.4265   -3.9974 N   0  0  0  0  0  0  0  0  0  0  0  0
    7.3457   -1.9235   -1.7837 C   0  0  0  0  0  0  0  0  0  0  0  0
    6.2541   -1.6953   -1.5085 N   0  0  0  0  0  0  0  0  0  0  0  0
   -8.2576    2.2517   -0.8844 H   0  0  0  0  0  0  0  0  0  0  0  0
   -6.4210    4.0536    4.8230 H   0  0  0  0  0  0  0  0  0  0  0  0
  -10.0304    6.3589    2.1191 H   0  0  0  0  0  0  0  0  0  0  0  0
   -9.8312    7.7262    5.2646 H   0  0  0  0  0  0  0  0  0  0  0  0
   -8.8514    9.6425    4.0136 H   0  0  0  0  0  0  0  0  0  0  0  0
   -7.0589    8.6424    2.3941 H   0  0  0  0  0  0  0  0  0  0  0  0
   -5.1869    7.4549    3.8561 H   0  0  0  0  0  0  0  0  0  0  0  0
   -5.8268    7.7215    6.3787 H   0  0  0  0  0  0  0  0  0  0  0  0
   -8.0122    9.2836    6.5466 H   0  0  0  0  0  0  0  0  0  0  0  0
   -6.7480   10.0670    5.5658 H   0  0  0  0  0  0  0  0  0  0  0  0
   -8.0123    6.5644    6.6802 H   0  0  0  0  0  0  0  0  0  0  0  0
    8.7162   -5.0092   -2.6585 H   0  0  0  0  0  0  0  0  0  0  0  0
    7.7308   -4.1405   -3.8467 H   0  0  0  0  0  0  0  0  0  0  0  0
    6.5560   -6.2512   -4.4317 H   0  0  0  0  0  0  0  0  0  0  0  0
    8.3006   -6.4422   -4.6037 H   0  0  0  0  0  0  0  0  0  0  0  0
    7.4754   -7.1176   -3.1962 H   0  0  0  0  0  0  0  0  0  0  0  0
   -5.8469    0.5294    1.6858 H   0  0  0  0  0  0  0  0  0  0  0  0
   -2.3089   -1.6041    1.5561 H   0  0  0  0  0  0  0  0  0  0  0  0
   -3.4502   -0.3513    2.0679 H   0  0  0  0  0  0  0  0  0  0  0  0
   -4.1302   -3.3385    1.9851 H   0  0  0  0  0  0  0  0  0  0  0  0
   -3.7251   -2.4158    3.4375 H   0  0  0  0  0  0  0  0  0  0  0  0
   -5.1878   -2.0369    2.5248 H   0  0  0  0  0  0  0  0  0  0  0  0
   -0.5956   -3.4867    1.1498 H   0  0  0  0  0  0  0  0  0  0  0  0
   -2.3011   -3.6866    0.7489 H   0  0  0  0  0  0  0  0  0  0  0  0
   -1.8400   -5.7133   -0.5577 H   0  0  0  0  0  0  0  0  0  0  0  0
   -0.1186   -5.5965   -0.2086 H   0  0  0  0  0  0  0  0  0  0  0  0
   -1.2649   -5.8842    1.1038 H   0  0  0  0  0  0  0  0  0  0  0  0
    2.9628   -3.8763    0.7975 H   0  0  0  0  0  0  0  0  0  0  0  0
    1.2309   -4.1205    0.9649 H   0  0  0  0  0  0  0  0  0  0  0  0
    1.8440   -1.7754    1.5313 H   0  0  0  0  0  0  0  0  0  0  0  0
    2.6396   -1.5844   -0.0326 H   0  0  0  0  0  0  0  0  0  0  0  0
    0.8860   -1.7577    0.0428 H   0  0  0  0  0  0  0  0  0  0  0  0
    8.1475   -4.8603    0.9685 H   0  0  0  0  0  0  0  0  0  0  0  0
   13.3905   -4.0728    0.5360 H   0  0  0  0  0  0  0  0  0  0  0  0
   15.8541   -3.3021   -0.5569 H   0  0  0  0  0  0  0  0  0  0  0  0
   16.6913   -2.0109   -2.6671 H   0  0  0  0  0  0  0  0  0  0  0  0
   11.4286   -1.7588   -3.4529 H   0  0  0  0  0  0  0  0  0  0  0  0
  1  2  2  0  0  0  0
  2  3  1  0  0  0  0
  3  4  2  0  0  0  0
  3  5  1  0  0  0  0
  5  6  2  0  0  0  0
  6  7  1  0  0  0  0
  7  8  2  0  0  0  0
  8  9  1  0  0  0  0
  9 10  2  0  0  0  0
 10 11  1  0  0  0  0
 11 12  2  0  0  0  0
 12 13  1  0  0  0  0
 13 14  3  0  0  0  0
 12 15  1  0  0  0  0
 15 16  3  0  0  0  0
  8 17  1  0  0  0  0
 17 18  1  0  0  0  0
 18 19  1  0  0  0  0
 19 20  2  0  0  0  0
 20 21  1  0  0  0  0
 21 22  1  0  0  0  0
 21 23  1  0  0  0  0
  1 24  1  0  0  0  0
 24 25  1  0  0  0  0
 25 26  1  0  0  0  0
 26 27  1  0  0  0  0
 27 28  1  0  0  0  0
 28 29  1  0  0  0  0
 29 30  1  0  0  0  0
 30 31  1  0  0  0  0
 31 32  1  0  0  0  0
 32 33  2  0  0  0  0
 33 34  1  0  0  0  0
 34 35  1  0  0  0  0
 32 36  1  0  0  0  0
 36 37  1  0  0  0  0
 37 38  1  0  0  0  0
 38 39  1  0  0  0  0
 39 40  1  0  0  0  0
 40 41  1  0  0  0  0
 41 42  1  0  0  0  0
 40 43  2  0  0  0  0
 43 44  1  0  0  0  0
 44 45  1  0  0  0  0
 45 46  1  0  0  0  0
 46 47  1  0  0  0  0
 47 48  1  0  0  0  0
 48 49  1  0  0  0  0
 49 50  1  0  0  0  0
 50 51  1  0  0  0  0
 51 52  1  0  0  0  0
 52 53  1  0  0  0  0
 53 54  1  0  0  0  0
 54 55  1  0  0  0  0
 53 56  1  0  0  0  0
 56 57  1  0  0  0  0
 50 58  1  0  0  0  0
 58 59  1  0  0  0  0
 47 60  1  0  0  0  0
 60 61  1  0  0  0  0
 43 62  1  0  0  0  0
 62 63  2  0  0  0  0
 63 64  1  0  0  0  0
 64 65  2  0  0  0  0
 64 66  1  0  0  0  0
 66 67  2  0  0  0  0
 67 68  1  0  0  0  0
 68 69  1  0  0  0  0
 69 70  2  0  0  0  0
 70 71  1  0  0  0  0
 71 72  1  0  0  0  0
 72 73  1  0  0  0  0
 73 74  2  0  0  0  0
 74 75  1  0  0  0  0
 75 76  2  0  0  0  0
 76 77  1  0  0  0  0
 77 78  3  0  0  0  0
 76 79  1  0  0  0  0
 79 80  3  0  0  0  0
 11  2  1  0  0  0  0
 23 17  1  0  0  0  0
 55 24  2  0  0  0  0
 75 63  1  0  0  0  0
 10  5  1  0  0  0  0
 22 18  1  0  0  0  0
 54 26  2  0  0  0  0
 74 66  1  0  0  0  0
 23  7  1  0  0  0  0
 52 27  2  0  0  0  0
 72 68  2  0  0  0  0
 51 29  2  0  0  0  0
 49 30  2  0  0  0  0
 35 31  2  0  0  0  0
 48 36  2  0  0  0  0
 46 37  2  0  0  0  0
 45 39  2  0  0  0  0
  1 81  1  0  0  0  0
  6 82  1  0  0  0  0
  9 83  1  0  0  0  0
 17 84  1  0  0  0  0
 18 85  1  0  0  0  0
 19 86  1  0  0  0  0
 20 87  1  0  0  0  0
 21 88  1  0  0  0  0
 22 89  1  0  0  0  0
 22 90  1  0  0  0  0
 23 91  1  0  0  0  0
 41 92  1  0  0  0  0
 41 93  1  0  0  0  0
 42 94  1  0  0  0  0
 42 95  1  0  0  0  0
 42 96  1  0  0  0  0
 55 97  1  0  0  0  0
 56 98  1  0  0  0  0
 56 99  1  0  0  0  0
 57100  1  0  0  0  0
 57101  1  0  0  0  0
 57102  1  0  0  0  0
 58103  1  0  0  0  0
 58104  1  0  0  0  0
 59105  1  0  0  0  0
 59106  1  0  0  0  0
 59107  1  0  0  0  0
 60108  1  0  0  0  0
 60109  1  0  0  0  0
 61110  1  0  0  0  0
 61111  1  0  0  0  0
 61112  1  0  0  0  0
 62113  1  0  0  0  0
 67114  1  0  0  0  0
 69115  1  0  0  0  0
 70116  1  0  0  0  0
 73117  1  0  0  0  0
M  END
