
  xtb     02012217063D
 energy: -248.459356793056 gnorm: 0.000424439250 xtb: 6.4.1 (unknown)
149164  0     0  0            999 V2000
   -3.6823    2.6850    3.9011 C   0  0  0  0  0  0  0  0  0  0  0  0
   -4.9975    3.0448    3.9878 C   0  0  0  0  0  0  0  0  0  0  0  0
   -6.0002    3.1349    2.8986 C   0  0  0  0  0  0  0  0  0  0  0  0
   -5.8205    3.2439    1.7038 O   0  0  0  0  0  0  0  0  0  0  0  0
   -7.3142    3.0511    3.5660 C   0  0  0  0  0  0  0  0  0  0  0  0
   -8.5570    2.9443    2.9446 C   0  0  0  0  0  0  0  0  0  0  0  0
   -9.6120    2.8449    3.8192 C   0  0  0  0  0  0  0  0  0  0  0  0
   -9.4462    2.8519    5.2112 C   0  0  0  0  0  0  0  0  0  0  0  0
   -8.2276    2.9622    5.8371 C   0  0  0  0  0  0  0  0  0  0  0  0
   -7.1403    3.0647    4.9636 C   0  0  0  0  0  0  0  0  0  0  0  0
   -5.7134    3.1697    5.2471 C   0  0  0  0  0  0  0  0  0  0  0  0
   -5.1577    3.4261    6.4725 C   0  0  0  0  0  0  0  0  0  0  0  0
   -5.8983    3.5796    7.6629 C   0  0  0  0  0  0  0  0  0  0  0  0
   -6.4406    3.7118    8.6662 N   0  0  0  0  0  0  0  0  0  0  0  0
   -3.7817    3.6375    6.7059 C   0  0  0  0  0  0  0  0  0  0  0  0
   -2.6832    3.8432    6.9700 N   0  0  0  0  0  0  0  0  0  0  0  0
  -10.9249    2.7006    5.4684 C   0  0  0  0  0  0  0  0  0  0  0  0
  -11.6866    3.9720    5.8982 C   0  0  0  0  0  0  0  0  0  0  0  0
  -13.1331    3.6402    5.6103 C   0  0  0  0  0  0  0  0  0  0  0  0
  -13.2911    3.6339    4.2928 C   0  0  0  0  0  0  0  0  0  0  0  0
  -11.9540    3.9614    3.6680 C   0  0  0  0  0  0  0  0  0  0  0  0
  -11.3949    4.9196    4.7275 C   0  0  0  0  0  0  0  0  0  0  0  0
  -11.1098    2.6937    3.9169 C   0  0  0  0  0  0  0  0  0  0  0  0
   -2.8686    2.4706    2.7700 C   0  0  0  0  0  0  0  0  0  0  0  0
   -3.0079    2.8354    1.4368 C   0  0  0  0  0  0  0  0  0  0  0  0
   -1.9622    2.3683    0.6566 C   0  0  0  0  0  0  0  0  0  0  0  0
   -1.6114    2.3774   -0.8092 C   0  0  0  0  0  0  0  0  0  0  0  0
   -1.2213    3.7504   -1.3292 C   0  0  0  0  0  0  0  0  0  0  0  0
   -1.2490    4.0132   -2.6901 C   0  0  0  0  0  0  0  0  0  0  0  0
   -0.8556    5.2413   -3.1927 C   0  0  0  0  0  0  0  0  0  0  0  0
   -0.4160    6.2383   -2.3282 C   0  0  0  0  0  0  0  0  0  0  0  0
   -0.0105    7.4785   -2.7026 O   0  0  0  0  0  0  0  0  0  0  0  0
   -0.0442    7.8297   -4.0720 C   0  0  0  0  0  0  0  0  0  0  0  0
    0.4330    9.2686   -4.1903 C   0  0  0  0  0  0  0  0  0  0  0  0
   -0.3755    5.9713   -0.9586 C   0  0  0  0  0  0  0  0  0  0  0  0
   -0.7681    4.7446   -0.4697 C   0  0  0  0  0  0  0  0  0  0  0  0
   -2.7854    1.7983   -1.5770 C   0  0  0  0  0  0  0  0  0  0  0  0
   -3.8986    2.6012   -1.8121 C   0  0  0  0  0  0  0  0  0  0  0  0
   -5.0018    2.0995   -2.4628 C   0  0  0  0  0  0  0  0  0  0  0  0
   -5.0314    0.7719   -2.8977 C   0  0  0  0  0  0  0  0  0  0  0  0
   -6.1797    0.3874   -3.5173 O   0  0  0  0  0  0  0  0  0  0  0  0
   -6.2787   -0.9024   -4.0859 C   0  0  0  0  0  0  0  0  0  0  0  0
   -5.5290   -1.0199   -5.4100 C   0  0  0  0  0  0  0  0  0  0  0  0
   -3.9272   -0.0351   -2.6518 C   0  0  0  0  0  0  0  0  0  0  0  0
   -2.8227    0.4779   -1.9903 C   0  0  0  0  0  0  0  0  0  0  0  0
   -0.3663    1.5065   -0.8133 C   0  0  0  0  0  0  0  0  0  0  0  0
   -0.0246    1.1005    0.4997 C   0  0  0  0  0  0  0  0  0  0  0  0
   -1.0184    1.6380    1.3730 C   0  0  0  0  0  0  0  0  0  0  0  0
   -1.3808    1.5581    3.0400 S   0  0  0  0  0  0  0  0  0  0  0  0
    1.0711    0.2803    0.7581 C   0  0  0  0  0  0  0  0  0  0  0  0
    1.8042   -0.1478   -0.3234 C   0  0  0  0  0  0  0  0  0  0  0  0
    2.9891   -1.0991   -0.3347 C   0  0  0  0  0  0  0  0  0  0  0  0
    4.0963   -0.5403    0.5348 C   0  0  0  0  0  0  0  0  0  0  0  0
    4.1100   -0.7964    1.9026 C   0  0  0  0  0  0  0  0  0  0  0  0
    5.0887   -0.2589    2.7078 C   0  0  0  0  0  0  0  0  0  0  0  0
    6.0875    0.5579    2.1717 C   0  0  0  0  0  0  0  0  0  0  0  0
    7.0128    1.0062    3.0603 O   0  0  0  0  0  0  0  0  0  0  0  0
    8.0154    1.9112    2.6438 C   0  0  0  0  0  0  0  0  0  0  0  0
    7.4938    3.3365    2.4854 C   0  0  0  0  0  0  0  0  0  0  0  0
    6.0710    0.8225    0.8069 C   0  0  0  0  0  0  0  0  0  0  0  0
    5.0804    0.2786    0.0062 C   0  0  0  0  0  0  0  0  0  0  0  0
    2.6110   -2.5193    0.0640 C   0  0  0  0  0  0  0  0  0  0  0  0
    3.6086   -3.4513    0.3107 C   0  0  0  0  0  0  0  0  0  0  0  0
    3.3083   -4.7592    0.6478 C   0  0  0  0  0  0  0  0  0  0  0  0
    1.9801   -5.1629    0.7479 C   0  0  0  0  0  0  0  0  0  0  0  0
    1.5406   -6.3866    1.1315 O   0  0  0  0  0  0  0  0  0  0  0  0
    2.4554   -7.3930    1.5240 C   0  0  0  0  0  0  0  0  0  0  0  0
    3.0098   -8.1819    0.3436 C   0  0  0  0  0  0  0  0  0  0  0  0
    0.9771   -4.2357    0.4583 C   0  0  0  0  0  0  0  0  0  0  0  0
    1.2878   -2.9391    0.1142 C   0  0  0  0  0  0  0  0  0  0  0  0
    3.3069   -1.1374   -1.8051 C   0  0  0  0  0  0  0  0  0  0  0  0
    2.3968   -0.3621   -2.5195 C   0  0  0  0  0  0  0  0  0  0  0  0
    1.4724    0.2705   -1.6353 C   0  0  0  0  0  0  0  0  0  0  0  0
    0.3925    1.1133   -1.8903 C   0  0  0  0  0  0  0  0  0  0  0  0
    2.6339   -0.4631   -4.2079 S   0  0  0  0  0  0  0  0  0  0  0  0
    3.9378   -1.6190   -3.9693 C   0  0  0  0  0  0  0  0  0  0  0  0
    4.1758   -1.8430   -2.6158 C   0  0  0  0  0  0  0  0  0  0  0  0
    4.5850   -2.1657   -5.0912 C   0  0  0  0  0  0  0  0  0  0  0  0
    5.3778   -3.2779   -5.1603 C   0  0  0  0  0  0  0  0  0  0  0  0
    6.2981   -3.4380   -6.3128 C   0  0  0  0  0  0  0  0  0  0  0  0
    6.3004   -2.7990   -7.3398 O   0  0  0  0  0  0  0  0  0  0  0  0
    7.2400   -4.5080   -5.9083 C   0  0  0  0  0  0  0  0  0  0  0  0
    8.3525   -4.9737   -6.5770 C   0  0  0  0  0  0  0  0  0  0  0  0
    9.0943   -5.9806   -5.9688 C   0  0  0  0  0  0  0  0  0  0  0  0
   10.4929   -6.5997   -6.7615 Cl  0  0  0  0  0  0  0  0  0  0  0  0
    8.7291   -6.4973   -4.7308 C   0  0  0  0  0  0  0  0  0  0  0  0
    7.6034   -6.0299   -4.0698 C   0  0  0  0  0  0  0  0  0  0  0  0
    6.8486   -5.0284   -4.6612 C   0  0  0  0  0  0  0  0  0  0  0  0
    5.6086   -4.3733   -4.2471 C   0  0  0  0  0  0  0  0  0  0  0  0
    4.7249   -4.8799   -3.3262 C   0  0  0  0  0  0  0  0  0  0  0  0
    5.0147   -5.9570   -2.4698 C   0  0  0  0  0  0  0  0  0  0  0  0
    5.2128   -6.8003   -1.7151 N   0  0  0  0  0  0  0  0  0  0  0  0
    3.3962   -4.4330   -3.1747 C   0  0  0  0  0  0  0  0  0  0  0  0
    2.2894   -4.1532   -3.0552 N   0  0  0  0  0  0  0  0  0  0  0  0
   -3.1869    2.4510    4.8374 H   0  0  0  0  0  0  0  0  0  0  0  0
   -8.6388    2.9332    1.8690 H   0  0  0  0  0  0  0  0  0  0  0  0
   -8.1125    2.9523    6.9082 H   0  0  0  0  0  0  0  0  0  0  0  0
  -11.2191    1.8173    6.0322 H   0  0  0  0  0  0  0  0  0  0  0  0
  -11.4545    4.3249    6.8992 H   0  0  0  0  0  0  0  0  0  0  0  0
  -13.8551    3.3969    6.3675 H   0  0  0  0  0  0  0  0  0  0  0  0
  -14.1713    3.3840    3.7299 H   0  0  0  0  0  0  0  0  0  0  0  0
  -11.9667    4.3052    2.6372 H   0  0  0  0  0  0  0  0  0  0  0  0
  -11.9693    5.8422    4.7922 H   0  0  0  0  0  0  0  0  0  0  0  0
  -10.3401    5.1554    4.6000 H   0  0  0  0  0  0  0  0  0  0  0  0
  -11.5272    1.8053    3.4463 H   0  0  0  0  0  0  0  0  0  0  0  0
   -3.8450    3.4024    1.0774 H   0  0  0  0  0  0  0  0  0  0  0  0
   -1.5975    3.2544   -3.3753 H   0  0  0  0  0  0  0  0  0  0  0  0
   -0.8981    5.4064   -4.2577 H   0  0  0  0  0  0  0  0  0  0  0  0
    0.6126    7.1634   -4.6488 H   0  0  0  0  0  0  0  0  0  0  0  0
   -1.0681    7.7365   -4.4601 H   0  0  0  0  0  0  0  0  0  0  0  0
    0.4219    9.5782   -5.2314 H   0  0  0  0  0  0  0  0  0  0  0  0
    1.4436    9.3569   -3.8013 H   0  0  0  0  0  0  0  0  0  0  0  0
   -0.2169    9.9226   -3.6155 H   0  0  0  0  0  0  0  0  0  0  0  0
   -0.0306    6.7485   -0.2953 H   0  0  0  0  0  0  0  0  0  0  0  0
   -0.7257    4.5626    0.5938 H   0  0  0  0  0  0  0  0  0  0  0  0
   -3.8934    3.6305   -1.4873 H   0  0  0  0  0  0  0  0  0  0  0  0
   -5.8670    2.7167   -2.6446 H   0  0  0  0  0  0  0  0  0  0  0  0
   -5.9409   -1.6674   -3.3760 H   0  0  0  0  0  0  0  0  0  0  0  0
   -7.3506   -1.0409   -4.2543 H   0  0  0  0  0  0  0  0  0  0  0  0
   -5.6899   -2.0064   -5.8361 H   0  0  0  0  0  0  0  0  0  0  0  0
   -5.8946   -0.2697   -6.1067 H   0  0  0  0  0  0  0  0  0  0  0  0
   -4.4622   -0.8660   -5.2681 H   0  0  0  0  0  0  0  0  0  0  0  0
   -3.9071   -1.0692   -2.9579 H   0  0  0  0  0  0  0  0  0  0  0  0
   -1.9817   -0.1740   -1.8039 H   0  0  0  0  0  0  0  0  0  0  0  0
    1.3108   -0.0223    1.7654 H   0  0  0  0  0  0  0  0  0  0  0  0
    3.3542   -1.4349    2.3352 H   0  0  0  0  0  0  0  0  0  0  0  0
    5.1079   -0.4587    3.7674 H   0  0  0  0  0  0  0  0  0  0  0  0
    8.7586    1.8767    3.4454 H   0  0  0  0  0  0  0  0  0  0  0  0
    8.4918    1.5634    1.7187 H   0  0  0  0  0  0  0  0  0  0  0  0
    7.0508    3.6712    3.4198 H   0  0  0  0  0  0  0  0  0  0  0  0
    6.7353    3.3905    1.7083 H   0  0  0  0  0  0  0  0  0  0  0  0
    8.3144    3.9996    2.2257 H   0  0  0  0  0  0  0  0  0  0  0  0
    6.8210    1.4462    0.3465 H   0  0  0  0  0  0  0  0  0  0  0  0
    5.0848    0.5021   -1.0512 H   0  0  0  0  0  0  0  0  0  0  0  0
    4.6456   -3.1506    0.2553 H   0  0  0  0  0  0  0  0  0  0  0  0
    4.1185   -5.4489    0.8243 H   0  0  0  0  0  0  0  0  0  0  0  0
    3.2657   -6.9650    2.1259 H   0  0  0  0  0  0  0  0  0  0  0  0
    1.8649   -8.0557    2.1649 H   0  0  0  0  0  0  0  0  0  0  0  0
    3.6155   -9.0063    0.7096 H   0  0  0  0  0  0  0  0  0  0  0  0
    2.1894   -8.5815   -0.2474 H   0  0  0  0  0  0  0  0  0  0  0  0
    3.6240   -7.5561   -0.2986 H   0  0  0  0  0  0  0  0  0  0  0  0
   -0.0492   -4.5614    0.5153 H   0  0  0  0  0  0  0  0  0  0  0  0
    0.4893   -2.2474   -0.1068 H   0  0  0  0  0  0  0  0  0  0  0  0
    0.1542    1.4180   -2.8975 H   0  0  0  0  0  0  0  0  0  0  0  0
    4.9770   -2.4629   -2.2569 H   0  0  0  0  0  0  0  0  0  0  0  0
    4.4967   -1.6106   -6.0199 H   0  0  0  0  0  0  0  0  0  0  0  0
    8.6287   -4.5679   -7.5373 H   0  0  0  0  0  0  0  0  0  0  0  0
    9.3304   -7.2728   -4.2829 H   0  0  0  0  0  0  0  0  0  0  0  0
    7.3406   -6.4419   -3.1089 H   0  0  0  0  0  0  0  0  0  0  0  0
  1  2  2  0  0  0  0
  2  3  1  0  0  0  0
  3  4  2  0  0  0  0
  3  5  1  0  0  0  0
  5  6  2  0  0  0  0
  6  7  1  0  0  0  0
  7  8  2  0  0  0  0
  8  9  1  0  0  0  0
  9 10  2  0  0  0  0
 10 11  1  0  0  0  0
 11 12  2  0  0  0  0
 12 13  1  0  0  0  0
 13 14  3  0  0  0  0
 12 15  1  0  0  0  0
 15 16  3  0  0  0  0
  8 17  1  0  0  0  0
 17 18  1  0  0  0  0
 18 19  1  0  0  0  0
 19 20  2  0  0  0  0
 20 21  1  0  0  0  0
 21 22  1  0  0  0  0
 21 23  1  0  0  0  0
  1 24  1  0  0  0  0
 24 25  2  0  0  0  0
 25 26  1  0  0  0  0
 26 27  1  0  0  0  0
 27 28  1  0  0  0  0
 28 29  2  0  0  0  0
 29 30  1  0  0  0  0
 30 31  2  0  0  0  0
 31 32  1  0  0  0  0
 32 33  1  0  0  0  0
 33 34  1  0  0  0  0
 31 35  1  0  0  0  0
 35 36  2  0  0  0  0
 27 37  1  0  0  0  0
 37 38  2  0  0  0  0
 38 39  1  0  0  0  0
 39 40  2  0  0  0  0
 40 41  1  0  0  0  0
 41 42  1  0  0  0  0
 42 43  1  0  0  0  0
 40 44  1  0  0  0  0
 44 45  2  0  0  0  0
 27 46  1  0  0  0  0
 46 47  2  0  0  0  0
 47 48  1  0  0  0  0
 48 49  1  0  0  0  0
 47 50  1  0  0  0  0
 50 51  2  0  0  0  0
 51 52  1  0  0  0  0
 52 53  1  0  0  0  0
 53 54  2  0  0  0  0
 54 55  1  0  0  0  0
 55 56  2  0  0  0  0
 56 57  1  0  0  0  0
 57 58  1  0  0  0  0
 58 59  1  0  0  0  0
 56 60  1  0  0  0  0
 60 61  2  0  0  0  0
 52 62  1  0  0  0  0
 62 63  2  0  0  0  0
 63 64  1  0  0  0  0
 64 65  2  0  0  0  0
 65 66  1  0  0  0  0
 66 67  1  0  0  0  0
 67 68  1  0  0  0  0
 65 69  1  0  0  0  0
 69 70  2  0  0  0  0
 52 71  1  0  0  0  0
 71 72  2  0  0  0  0
 72 73  1  0  0  0  0
 73 74  2  0  0  0  0
 72 75  1  0  0  0  0
 75 76  1  0  0  0  0
 76 77  2  0  0  0  0
 76 78  1  0  0  0  0
 78 79  2  0  0  0  0
 79 80  1  0  0  0  0
 80 81  2  0  0  0  0
 80 82  1  0  0  0  0
 82 83  2  0  0  0  0
 83 84  1  0  0  0  0
 84 85  1  0  0  0  0
 84 86  2  0  0  0  0
 86 87  1  0  0  0  0
 87 88  2  0  0  0  0
 88 89  1  0  0  0  0
 89 90  2  0  0  0  0
 90 91  1  0  0  0  0
 91 92  3  0  0  0  0
 90 93  1  0  0  0  0
 93 94  3  0  0  0  0
 11  2  1  0  0  0  0
 23 17  1  0  0  0  0
 49 24  1  0  0  0  0
 73 51  1  0  0  0  0
 89 79  1  0  0  0  0
 10  5  1  0  0  0  0
 22 18  1  0  0  0  0
 48 26  2  0  0  0  0
 61 53  1  0  0  0  0
 70 62  1  0  0  0  0
 77 71  1  0  0  0  0
 88 82  1  0  0  0  0
 23  7  1  0  0  0  0
 36 28  1  0  0  0  0
 45 37  1  0  0  0  0
 74 46  1  0  0  0  0
  1 95  1  0  0  0  0
  6 96  1  0  0  0  0
  9 97  1  0  0  0  0
 17 98  1  0  0  0  0
 18 99  1  0  0  0  0
 19100  1  0  0  0  0
 20101  1  0  0  0  0
 21102  1  0  0  0  0
 22103  1  0  0  0  0
 22104  1  0  0  0  0
 23105  1  0  0  0  0
 25106  1  0  0  0  0
 29107  1  0  0  0  0
 30108  1  0  0  0  0
 33109  1  0  0  0  0
 33110  1  0  0  0  0
 34111  1  0  0  0  0
 34112  1  0  0  0  0
 34113  1  0  0  0  0
 35114  1  0  0  0  0
 36115  1  0  0  0  0
 38116  1  0  0  0  0
 39117  1  0  0  0  0
 42118  1  0  0  0  0
 42119  1  0  0  0  0
 43120  1  0  0  0  0
 43121  1  0  0  0  0
 43122  1  0  0  0  0
 44123  1  0  0  0  0
 45124  1  0  0  0  0
 50125  1  0  0  0  0
 54126  1  0  0  0  0
 55127  1  0  0  0  0
 58128  1  0  0  0  0
 58129  1  0  0  0  0
 59130  1  0  0  0  0
 59131  1  0  0  0  0
 59132  1  0  0  0  0
 60133  1  0  0  0  0
 61134  1  0  0  0  0
 63135  1  0  0  0  0
 64136  1  0  0  0  0
 67137  1  0  0  0  0
 67138  1  0  0  0  0
 68139  1  0  0  0  0
 68140  1  0  0  0  0
 68141  1  0  0  0  0
 69142  1  0  0  0  0
 70143  1  0  0  0  0
 74144  1  0  0  0  0
 77145  1  0  0  0  0
 78146  1  0  0  0  0
 83147  1  0  0  0  0
 86148  1  0  0  0  0
 87149  1  0  0  0  0
M  END
