145

C         -0.69770       -1.00620        5.28520
C          0.07380       -0.95690        6.41310
C          1.48780       -0.53510        6.55380
O          2.18110        0.08500        5.77320
C          1.92460       -1.03650        7.87030
C          3.21320       -0.97090        8.39740
C          3.33760       -1.53850        9.64210
C          2.26000       -2.13170       10.31450
C          0.98480       -2.20250        9.80700
C          0.83580       -1.62560        8.54140
C         -0.34510       -1.50920        7.69230
C         -1.62870       -1.79620        8.07690
C         -1.98420       -2.30940        9.34210
N         -2.34860       -2.73110       10.34600
C         -2.78710       -1.57380        7.30160
N         -3.78080       -1.40300        6.75120
C          3.10520       -2.50370       11.50710
C          2.95660       -1.61800       12.76240
C          4.20840       -1.90840       13.55850
C          5.22990       -1.34900       12.92270
C          4.68570       -0.67010       11.68640
C          3.31170       -0.23180       12.20910
C          4.30650       -1.84300       10.75760
C         -0.45570       -0.54850        3.97500
S         -1.61200       -1.07240        2.74630
C         -0.73280       -0.23360        1.54710
C         -0.81100       -0.06210        0.13190
C          0.29850        0.73150       -0.24960
C          1.12980        1.12470        0.95930
C          2.54510        0.57460        0.95300
C          2.95600       -0.40330        0.06020
C          4.24610       -0.90110        0.11470
C          5.14800       -0.44810        1.06690
C          6.56170       -0.95280        1.08950
C          7.45020       -0.08370        0.19680
C          4.72500        0.52070        1.96870
C          3.44090        1.02480        1.91600
C          1.12470        2.64050        1.05760
C          2.07510        3.38140        0.36630
C          2.05280        4.76220        0.40700
C          1.08010        5.43960        1.13120
C          1.09010        6.93870        1.21280
C          1.96670        7.40350        2.37750
C          0.12920        4.69410        1.81440
C          0.14500        3.31180        1.77480
C          0.37170        0.43770        2.06580
C          0.53340        0.26200        3.43020
C          0.50390        1.06450       -1.56750
C         -0.40160        0.56250       -2.50020
C         -0.44890        0.69030       -3.92050
C         -1.55670        0.01730       -4.43930
C         -2.32950       -0.64460       -3.32830
C         -1.50480       -0.24010       -2.11960
C         -1.72830       -0.54620       -0.79760
C         -3.73550       -0.09910       -3.14870
C         -4.69190       -0.85220       -2.47980
C         -5.96250       -0.34910       -2.27530
C         -6.31090        0.91620       -2.72970
C         -7.67800        1.47920       -2.46970
C         -7.68330        2.28530       -1.16910
C         -5.34710        1.66870       -3.38730
C         -4.07340        1.17150       -3.59200
C         -2.34770       -2.13800       -3.60710
C         -1.50320       -3.02550       -2.95760
C         -1.53930       -4.37150       -3.28070
C         -2.40320       -4.83600       -4.25490
C         -3.24180       -3.95580       -4.92720
C         -4.21160       -4.44110       -5.96510
C         -5.59620       -4.64320       -5.34650
C         -3.20380       -2.61100       -4.59260
C         -1.64180        0.07400       -5.81660
C         -0.59520        0.80180       -6.38050
S          0.50120        1.41920       -5.13360
C         -0.25190        1.11380       -7.70360
C         -0.82790        0.78450       -8.90720
C         -2.02810       -0.03620       -9.16410
O         -2.78170       -0.57110       -8.37660
C         -2.16190       -0.09870      -10.63690
C         -3.12510       -0.75920      -11.37180
C         -3.05760       -0.69050      -12.75770
Cl        -4.22470       -1.48960      -13.73630
C         -2.02610        0.03710      -13.35530
F         -1.96330        0.09730      -14.69110
C         -1.05750        0.70410      -12.62150
C         -1.12840        0.63530      -11.23840
C         -0.28760        1.20820      -10.18890
C          0.80280        2.00650      -10.42260
C          1.64600        2.59720       -9.45710
N          2.38890        3.12380       -8.75670
C          1.25180        2.37070      -11.71080
N          1.67740        2.71190      -12.72070
H         -1.64580       -1.52350        5.38230
H          4.01540       -0.51170        7.84110
H          0.17000       -2.67350       10.33070
H          3.15580       -3.56560       11.73960
H          2.00900       -1.72240       13.28340
H          4.22910       -2.51800       14.44270
H          6.27430       -1.39810       13.16960
H          5.31400        0.08910       11.22850
H          3.39040        0.51700       12.99550
H          2.63480        0.12380       11.43440
H          5.15800       -2.46540       10.48850
H          2.27160       -0.78040       -0.68590
H          4.55280       -1.65780       -0.59350
H          6.59370       -1.98470        0.73390
H          6.94630       -0.93050        2.11100
H          7.09070       -0.10470       -0.82960
H          8.47600       -0.44410        0.21320
H          7.43840        0.94780        0.54190
H          5.40760        0.88150        2.72420
H          3.13110        1.77990        2.62300
H          2.84550        2.87450       -0.19660
H          2.80130        5.32290       -0.13460
H          1.47790        7.35720        0.28180
H          0.07340        7.30920        1.35720
H          1.58630        7.01030        3.31760
H          2.98710        7.05010        2.24730
H          1.97950        8.48940        2.43460
H         -0.63800        5.20040        2.38290
H         -0.61040        2.75510        2.31030
H          1.32400        0.68020        4.02370
H          1.33520        1.67770       -1.87930
H         -2.56880       -1.14600       -0.48460
H         -4.44550       -1.84410       -2.12930
H         -6.69620       -0.95060       -1.75760
H         -8.40480        0.66820       -2.39350
H         -7.97470        2.12820       -3.29610
H         -6.97710        3.11030       -1.23210
H         -7.39600        1.65340       -0.33160
H         -8.67410        2.68940       -0.97590
H         -5.59610        2.65680       -3.74730
H         -3.34120        1.77760       -4.10570
H         -0.81920       -2.67350       -2.19960
H         -0.88490       -5.06050       -2.76680
H         -2.42370       -5.88800       -4.50030
H         -3.86260       -5.38500       -6.38790
H         -4.28100       -3.70820       -6.77140
H         -5.96590       -3.70740       -4.93280
H         -5.54890       -5.37720       -4.54490
H         -6.30080       -4.99400       -6.09690
H         -3.85730       -1.92000       -5.10520
H         -2.40870       -0.37950       -6.41530
H          0.64490        1.71810       -7.76870
H         -3.90790       -1.31320      -10.87890
H         -0.29040        1.24590      -13.14940
