115

C          6.32330       -0.39980       -4.08110
C          6.08530        0.19560       -5.29330
C          4.88280        0.94710       -5.71300
O          3.78800        0.99950       -5.18460
C          5.27890        1.69630       -6.92010
C          4.49480        2.60730       -7.62520
C          5.12670        3.16630       -8.70930
C          6.44480        2.84900       -9.06330
C          7.22950        1.95400       -8.37540
C          6.60200        1.36790       -7.27180
C          7.09940        0.38410       -6.31430
C          8.28130       -0.30270       -6.42130
C          9.22740       -0.10290       -7.44750
N         10.04100        0.01030       -8.25010
C          8.69870       -1.34230       -5.56330
N          9.09810       -2.21630       -4.93400
C          6.43370        3.77870      -10.25150
C          6.26830        3.12160      -11.63820
C          5.81420        4.25810      -12.52540
C          4.56540        4.55700      -12.19110
C          4.15450        3.62750      -11.07200
C          4.94040        2.37160      -11.47030
C          4.96330        4.13080       -9.85760
C          5.43350       -0.67200       -3.02820
S          6.14800       -0.99490       -1.43510
C          4.58250       -1.12930       -0.74580
C          3.93190       -1.28940        0.47560
S          4.33040       -1.40280        2.16700
C          2.63700       -1.41500        2.51760
C          1.80870       -1.43720        3.65500
C          2.08750       -1.52280        5.03740
C          0.99550       -1.55500        5.97250
N          1.40830       -1.67990        7.22420
S          3.02520       -1.74560        7.22910
N          3.26460       -1.61780        5.63560
C         -0.32340       -1.38870        5.49400
C         -1.54820       -1.18520        6.14820
S         -2.16840       -1.08080        7.75840
C         -3.72690       -0.62800        7.10540
C         -4.93750       -0.27810        7.70910
C         -5.14220       -0.27500        9.18810
C         -5.58070       -1.66110        9.66890
C         -5.90260        0.05060        6.76280
S         -5.29750       -0.12850        5.11560
C         -3.74610       -0.58900        5.70430
C         -2.50220       -0.90690        5.15850
N         -1.91820       -0.95400        3.92020
C         -0.58410       -1.25620        4.10110
C          0.47570       -1.39790        3.18000
N          0.47560       -1.42600        1.78480
C          1.80370       -1.38430        1.39270
C          2.53970       -1.26290        0.20510
N          2.32870       -1.09280       -1.14300
C          3.56960       -0.98630       -1.72580
C          4.04840       -0.73540       -3.00260
C          1.13280       -0.62380       -1.80490
C          1.16690        0.88860       -2.01750
C         -0.45780       -2.23270        1.00870
C         -0.79260       -3.54880        1.70660
C         -2.55550       -0.34060        2.77650
C         -3.65320       -1.21680        2.17830
C         -7.24850        0.38640        7.01700
C         -8.18360        0.90650        6.17280
C         -9.63060        0.71390        6.47870
O        -10.09420        0.36300        7.53790
C        -10.32250        0.98600        5.20380
C        -11.66910        0.83840        4.87680
O        -12.54260        0.41510        5.80310
C        -12.05500        1.14410        3.56710
C        -11.13320        1.57130        2.63040
C         -9.79120        1.72930        2.95360
C         -9.39510        1.43850        4.24600
C         -8.08560        1.55050        4.88720
C         -7.06520        2.36500        4.46580
C         -5.97140        2.70710        5.28810
N         -5.09830        3.05090        5.94980
C         -7.02710        3.00890        3.21530
N         -6.91830        3.52560        2.19520
H          7.35390       -0.65170       -3.85820
H          3.48610        2.82820       -7.31270
H          8.24550        1.72910       -8.65320
H          7.17970        4.57110      -10.24190
H          7.12800        2.54950      -11.97580
H          6.44590        4.74850      -13.24260
H          3.94550        5.34700      -12.57300
H          3.08790        3.51660      -10.89490
H          4.96110        1.59920      -10.70370
H          4.58720        1.94500      -12.40760
H          4.72840        5.15830       -9.58580
H         -4.19690       -0.01240        9.66700
H         -5.88790        0.46940        9.46650
H         -5.71070       -1.65590       10.74770
H         -4.82890       -2.40430        9.41350
H         -6.52270       -1.94810        9.20700
H          3.44590       -0.59740       -3.87880
H          1.05590       -1.13330       -2.77020
H          0.26660       -0.88660       -1.19830
H          1.99490        1.16520       -2.66470
H          0.24040        1.21490       -2.48190
H          1.28060        1.40060       -1.06430
H          0.03700       -2.46680        0.06450
H         -1.37010       -1.67550        0.78700
H         -1.42970       -4.15060        1.06310
H          0.11930       -4.10610        1.91050
H         -1.30640       -3.37900        2.64890
H         -1.78530       -0.09840        2.04400
H         -3.00510        0.60220        3.10980
H         -3.27340       -2.19090        1.88340
H         -4.07770       -0.72340        1.30820
H         -4.44770       -1.36720        2.90430
H         -7.62870        0.10230        7.99310
H        -13.43640        0.37150        5.43980
H        -13.09560        1.04010        3.28930
H        -11.46470        1.78940        1.62660
H         -9.08690        2.05960        2.20830
