117

C         -1.64660        7.74570       -1.12740
C         -1.99620        8.54460       -2.18460
C         -1.55490        8.37490       -3.57470
O         -0.66170        7.65780       -3.98800
C         -2.42400        9.24370       -4.38830
C         -2.45670        9.33170       -5.77730
C         -3.41800       10.18740       -6.25980
C         -4.27570       10.91190       -5.42180
C         -4.24400       10.84450       -4.04890
C         -3.28090        9.97080       -3.53740
C         -2.98270        9.60470       -2.15370
C         -3.52100       10.19740       -1.03950
C         -4.46240       11.24660       -1.06960
N         -5.22970       12.09940       -1.01490
C         -3.19550        9.87370        0.29360
N         -2.98230        9.67520        1.40540
C         -5.00890       11.53860       -6.58120
C         -6.40380       10.96820       -6.93980
C         -6.41350        9.53320       -6.47450
C         -5.60210        8.84530       -7.26670
C         -5.02930        9.80290       -8.28220
C         -6.21950       10.76060       -8.45150
C         -4.05380       10.73020       -7.51490
C         -0.78160        6.64350       -1.06660
S          0.28650        6.08140       -2.35420
C          0.79810        4.77750       -1.35690
C          1.59200        3.63280       -1.38720
S          2.62070        2.80500       -2.52060
C          2.78430        1.53230       -1.36440
C          3.37880        0.26140       -1.30800
C          4.21860       -0.42910       -2.21020
C          4.67640       -1.74610       -1.86640
N          5.48770       -2.25340       -2.78060
S          5.65980       -1.17050       -3.97230
N          4.70280       -0.01370       -3.36960
C          4.17110       -2.36120       -0.69860
C          4.23600       -3.68480       -0.24400
S          4.97060       -5.18670       -0.68890
C          4.07200       -5.97090        0.59840
C          3.97910       -7.29660        0.99860
C          4.72490       -8.39950        0.32120
C          3.86870       -9.04360       -0.77280
C          3.05320       -7.45290        2.04530
S          2.33960       -5.91460        2.53630
C          3.26250       -5.09020        1.33660
C          3.37490       -3.78290        0.85740
N          2.82660       -2.55870        1.13090
C          3.29550       -1.66660        0.18670
C          3.01190       -0.30220       -0.06050
N          2.28990        0.63980        0.66740
C          2.11770        1.74280       -0.14900
C          1.41190        2.95760       -0.15350
N          0.52710        3.66670        0.62670
C          0.15230        4.77400       -0.09530
C         -0.71640        5.83540        0.07290
C         -0.03610        3.34140        1.91250
C          0.65300        4.10250        3.04500
C          2.34370        0.79890        2.10980
C          3.71460        0.45120        2.68390
C          1.71040       -2.44300        2.04140
C          0.41100       -2.11700        1.31090
C          2.72730       -8.69670        2.59300
C          1.79090       -9.04920        3.53490
C          0.86700       -8.14340        4.22090
O          0.81760       -6.92650        4.14180
C         -0.00740       -8.99760        5.04450
C         -1.06090       -8.62860        5.85330
C         -1.76200       -9.61770        6.54080
C         -2.92770       -9.25770        7.40590
C         -1.37490      -10.94680        6.38970
C         -0.31370      -11.32400        5.57910
C          0.38250      -10.34010        4.89510
C          1.51740      -10.40250        3.97680
C          2.18690      -11.54780        3.62580
C          3.29220      -11.62510        2.75450
N          4.19500      -11.77450        2.05850
C          1.85950      -12.83240        4.10710
N          1.64910      -13.90610        4.45600
H         -2.15140        7.93850       -0.18790
H         -1.77870        8.75350       -6.38550
H         -4.91480       11.40420       -3.41860
H         -4.97800       12.62490       -6.63650
H         -7.23940       11.58300       -6.61630
H         -6.94770        9.18790       -5.60870
H         -5.32250        7.81040       -7.19460
H         -4.61420        9.35600       -9.18180
H         -5.96820       11.67470       -8.98770
H         -7.08010       10.28430       -8.91910
H         -3.40000       11.28780       -8.18250
H          5.03360       -9.16270        1.03700
H          5.62160       -7.97450       -0.13420
H          3.58730       -8.30270       -1.51760
H          2.96320       -9.47330       -0.35060
H          4.43000       -9.83480       -1.26140
H         -1.30350        6.03920        0.95050
H          0.03050        2.26260        2.06600
H         -1.09640        3.61260        1.88990
H          1.71900        3.88640        3.07190
H          0.53050        5.17300        2.90250
H          0.21590        3.82530        4.00020
H          1.55570        0.21580        2.59560
H          2.15280        1.85240        2.31300
H          3.96940       -0.59240        2.52450
H          3.72010        0.65010        3.75270
H          4.48050        1.06330        2.21260
H          1.92540       -1.70350        2.81460
H          1.61160       -3.41150        2.53740
H          0.48300       -1.17260        0.77740
H          0.18420       -2.89970        0.59120
H         -0.40580       -2.05840        2.02510
H          3.29880       -9.51110        2.16950
H         -1.33070       -7.58690        5.94440
H         -2.80440       -8.26360        7.82870
H         -3.84180       -9.25860        6.81080
H         -3.05200       -9.97620        8.21240
H         -1.91960      -11.71290        6.92220
H         -0.05190      -12.36570        5.49360
