
  xtb     02012220233D
 energy: -202.534624124286 gnorm: 0.000811191347 xtb: 6.4.1 (unknown)
128141  0     0  0            999 V2000
    4.1677   -4.4435    3.4981 C   0  0  0  0  0  0  0  0  0  0  0  0
    3.8950   -5.4457    4.3895 C   0  0  0  0  0  0  0  0  0  0  0  0
    2.5984   -5.7870    5.0163 C   0  0  0  0  0  0  0  0  0  0  0  0
    1.5858   -5.1188    5.0858 O   0  0  0  0  0  0  0  0  0  0  0  0
    2.7558   -7.1596    5.5351 C   0  0  0  0  0  0  0  0  0  0  0  0
    1.7653   -7.9465    6.1200 C   0  0  0  0  0  0  0  0  0  0  0  0
    2.1903   -9.2017    6.4831 C   0  0  0  0  0  0  0  0  0  0  0  0
    3.5055   -9.6429    6.2834 C   0  0  0  0  0  0  0  0  0  0  0  0
    4.4945   -8.8743    5.7177 C   0  0  0  0  0  0  0  0  0  0  0  0
    4.0809   -7.5936    5.3377 C   0  0  0  0  0  0  0  0  0  0  0  0
    4.8292   -6.5127    4.7046 C   0  0  0  0  0  0  0  0  0  0  0  0
    6.1868   -6.4870    4.5181 C   0  0  0  0  0  0  0  0  0  0  0  0
    6.9199   -5.3899    4.0171 C   0  0  0  0  0  0  0  0  0  0  0  0
    7.5922   -4.5376    3.6417 N   0  0  0  0  0  0  0  0  0  0  0  0
    7.0569   -7.5451    4.8534 C   0  0  0  0  0  0  0  0  0  0  0  0
    7.8222   -8.3657    5.0967 N   0  0  0  0  0  0  0  0  0  0  0  0
    3.2210  -11.0072    6.8603 C   0  0  0  0  0  0  0  0  0  0  0  0
    3.0441  -12.1586    5.8476 C   0  0  0  0  0  0  0  0  0  0  0  0
    2.3184  -13.2250    6.6357 C   0  0  0  0  0  0  0  0  0  0  0  0
    1.0734  -12.8079    6.8274 C   0  0  0  0  0  0  0  0  0  0  0  0
    0.9367  -11.4527    6.1717 C   0  0  0  0  0  0  0  0  0  0  0  0
    1.8886  -11.6380    4.9829 C   0  0  0  0  0  0  0  0  0  0  0  0
    1.7552  -10.5151    7.0849 C   0  0  0  0  0  0  0  0  0  0  0  0
    3.3831   -3.3560    3.0731 C   0  0  0  0  0  0  0  0  0  0  0  0
    3.9277   -2.5259    1.6138 S   0  0  0  0  0  0  0  0  0  0  0  0
    2.5858   -1.4768    1.7024 C   0  0  0  0  0  0  0  0  0  0  0  0
    2.0602   -0.4106    0.9129 C   0  0  0  0  0  0  0  0  0  0  0  0
    0.8765    0.0303    1.5488 C   0  0  0  0  0  0  0  0  0  0  0  0
    0.6292   -0.7408    2.8373 C   0  0  0  0  0  0  0  0  0  0  0  0
    1.7712   -1.7267    2.8032 C   0  0  0  0  0  0  0  0  0  0  0  0
    2.2294   -2.7737    3.5870 C   0  0  0  0  0  0  0  0  0  0  0  0
   -0.7484   -1.4260    2.7648 C   0  0  0  0  0  0  0  0  0  0  0  0
   -1.1135   -2.2851    3.9686 C   0  0  0  0  0  0  0  0  0  0  0  0
    0.8216    0.1475    4.0862 C   0  0  0  0  0  0  0  0  0  0  0  0
   -0.1972    1.2653    4.2622 C   0  0  0  0  0  0  0  0  0  0  0  0
    0.0939    0.9849    0.9390 C   0  0  0  0  0  0  0  0  0  0  0  0
    0.5327    1.5140   -0.2729 C   0  0  0  0  0  0  0  0  0  0  0  0
   -0.1156    2.4693   -1.1438 C   0  0  0  0  0  0  0  0  0  0  0  0
    0.6893    2.6541   -2.2861 C   0  0  0  0  0  0  0  0  0  0  0  0
    1.9479    1.8168   -2.1948 C   0  0  0  0  0  0  0  0  0  0  0  0
    2.0337    0.7391   -3.2967 C   0  0  0  0  0  0  0  0  0  0  0  0
    2.1880    1.2412   -4.7263 C   0  0  0  0  0  0  0  0  0  0  0  0
    3.1537    2.7803   -2.1664 C   0  0  0  0  0  0  0  0  0  0  0  0
    4.5217    2.1315   -2.0034 C   0  0  0  0  0  0  0  0  0  0  0  0
    1.7406    1.1091   -0.8720 C   0  0  0  0  0  0  0  0  0  0  0  0
    2.5054    0.1211   -0.2928 C   0  0  0  0  0  0  0  0  0  0  0  0
    0.3098    3.5371   -3.2719 C   0  0  0  0  0  0  0  0  0  0  0  0
   -0.9133    4.1832   -3.1163 C   0  0  0  0  0  0  0  0  0  0  0  0
   -1.6088    5.0849   -3.9748 C   0  0  0  0  0  0  0  0  0  0  0  0
   -2.8339    5.4614   -3.4188 C   0  0  0  0  0  0  0  0  0  0  0  0
   -2.9996    4.8256   -2.0621 C   0  0  0  0  0  0  0  0  0  0  0  0
   -1.7273    3.9941   -1.9785 C   0  0  0  0  0  0  0  0  0  0  0  0
   -1.3248    3.1402   -0.9775 C   0  0  0  0  0  0  0  0  0  0  0  0
   -2.9315    5.8904   -0.9440 C   0  0  0  0  0  0  0  0  0  0  0  0
   -4.1132    6.8474   -0.8772 C   0  0  0  0  0  0  0  0  0  0  0  0
   -4.2320    3.8999   -1.9352 C   0  0  0  0  0  0  0  0  0  0  0  0
   -5.4545    4.3051   -2.7505 C   0  0  0  0  0  0  0  0  0  0  0  0
   -3.5485    6.3210   -4.2339 C   0  0  0  0  0  0  0  0  0  0  0  0
   -2.8880    6.6017   -5.4291 C   0  0  0  0  0  0  0  0  0  0  0  0
   -1.3240    5.7782   -5.5037 S   0  0  0  0  0  0  0  0  0  0  0  0
   -3.2221    7.3740   -6.5504 C   0  0  0  0  0  0  0  0  0  0  0  0
   -4.3502    8.0867   -6.8788 C   0  0  0  0  0  0  0  0  0  0  0  0
   -5.6097    8.2199   -6.1162 C   0  0  0  0  0  0  0  0  0  0  0  0
   -5.8638    7.8379   -4.9935 O   0  0  0  0  0  0  0  0  0  0  0  0
   -6.5374    8.9455   -7.0119 C   0  0  0  0  0  0  0  0  0  0  0  0
   -7.8628    9.2949   -6.8279 C   0  0  0  0  0  0  0  0  0  0  0  0
   -8.5081    8.9850   -5.6982 F   0  0  0  0  0  0  0  0  0  0  0  0
   -8.5472    9.9746   -7.8276 C   0  0  0  0  0  0  0  0  0  0  0  0
   -7.8929   10.2969   -9.0037 C   0  0  0  0  0  0  0  0  0  0  0  0
   -6.5610    9.9590   -9.2097 C   0  0  0  0  0  0  0  0  0  0  0  0
   -5.8826    9.2828   -8.2089 C   0  0  0  0  0  0  0  0  0  0  0  0
   -4.5026    8.7996   -8.1328 C   0  0  0  0  0  0  0  0  0  0  0  0
   -3.5446    9.0359   -9.0857 C   0  0  0  0  0  0  0  0  0  0  0  0
   -2.1893    8.6448   -9.0330 C   0  0  0  0  0  0  0  0  0  0  0  0
   -1.0695    8.3909   -9.0787 N   0  0  0  0  0  0  0  0  0  0  0  0
   -3.7712    9.7480  -10.2828 C   0  0  0  0  0  0  0  0  0  0  0  0
   -3.8750   10.3101  -11.2787 N   0  0  0  0  0  0  0  0  0  0  0  0
    5.1176   -4.5133    2.9795 H   0  0  0  0  0  0  0  0  0  0  0  0
    0.7647   -7.5668    6.2558 H   0  0  0  0  0  0  0  0  0  0  0  0
    5.5010   -9.2278    5.5689 H   0  0  0  0  0  0  0  0  0  0  0  0
    3.8152  -11.2902    7.7270 H   0  0  0  0  0  0  0  0  0  0  0  0
    3.9551  -12.4607    5.3384 H   0  0  0  0  0  0  0  0  0  0  0  0
    2.7853  -14.1178    7.0080 H   0  0  0  0  0  0  0  0  0  0  0  0
    0.2926  -13.2827    7.3921 H   0  0  0  0  0  0  0  0  0  0  0  0
   -0.0729  -11.1127    5.9570 H   0  0  0  0  0  0  0  0  0  0  0  0
    2.1143  -10.7179    4.4470 H   0  0  0  0  0  0  0  0  0  0  0  0
    1.5293  -12.3890    4.2812 H   0  0  0  0  0  0  0  0  0  0  0  0
    1.3714  -10.4694    8.1023 H   0  0  0  0  0  0  0  0  0  0  0  0
    1.7771   -3.1263    4.4936 H   0  0  0  0  0  0  0  0  0  0  0  0
   -1.5078   -0.6539    2.6308 H   0  0  0  0  0  0  0  0  0  0  0  0
   -0.7581   -2.0495    1.8666 H   0  0  0  0  0  0  0  0  0  0  0  0
   -2.1028   -2.7119    3.8168 H   0  0  0  0  0  0  0  0  0  0  0  0
   -1.1382   -1.6975    4.8823 H   0  0  0  0  0  0  0  0  0  0  0  0
   -0.4121   -3.1038    4.0968 H   0  0  0  0  0  0  0  0  0  0  0  0
    1.8205    0.5883    4.0261 H   0  0  0  0  0  0  0  0  0  0  0  0
    0.8041   -0.5006    4.9637 H   0  0  0  0  0  0  0  0  0  0  0  0
   -0.1407    1.9751    3.4415 H   0  0  0  0  0  0  0  0  0  0  0  0
    0.0142    1.8012    5.1851 H   0  0  0  0  0  0  0  0  0  0  0  0
   -1.2091    0.8742    4.3244 H   0  0  0  0  0  0  0  0  0  0  0  0
   -0.8469    1.3037    1.3595 H   0  0  0  0  0  0  0  0  0  0  0  0
    2.8750    0.0862   -3.0600 H   0  0  0  0  0  0  0  0  0  0  0  0
    1.1260    0.1325   -3.2322 H   0  0  0  0  0  0  0  0  0  0  0  0
    2.3276    0.3901   -5.3897 H   0  0  0  0  0  0  0  0  0  0  0  0
    3.0519    1.8920   -4.8292 H   0  0  0  0  0  0  0  0  0  0  0  0
    1.3006    1.7749   -5.0536 H   0  0  0  0  0  0  0  0  0  0  0  0
    3.1420    3.3630   -3.0888 H   0  0  0  0  0  0  0  0  0  0  0  0
    2.9944    3.4791   -1.3403 H   0  0  0  0  0  0  0  0  0  0  0  0
    4.6064    1.6345   -1.0412 H   0  0  0  0  0  0  0  0  0  0  0  0
    5.2903    2.9000   -2.0518 H   0  0  0  0  0  0  0  0  0  0  0  0
    4.7172    1.4110   -2.7929 H   0  0  0  0  0  0  0  0  0  0  0  0
    3.4034   -0.2656   -0.7484 H   0  0  0  0  0  0  0  0  0  0  0  0
    0.9162    3.7396   -4.1402 H   0  0  0  0  0  0  0  0  0  0  0  0
   -1.9256    2.9843   -0.0944 H   0  0  0  0  0  0  0  0  0  0  0  0
   -2.8403    5.3679    0.0112 H   0  0  0  0  0  0  0  0  0  0  0  0
   -2.0133    6.4665   -1.0902 H   0  0  0  0  0  0  0  0  0  0  0  0
   -4.2434    7.3770   -1.8162 H   0  0  0  0  0  0  0  0  0  0  0  0
   -3.9348    7.5837   -0.0960 H   0  0  0  0  0  0  0  0  0  0  0  0
   -5.0325    6.3207   -0.6378 H   0  0  0  0  0  0  0  0  0  0  0  0
   -3.9342    2.8968   -2.2525 H   0  0  0  0  0  0  0  0  0  0  0  0
   -4.5035    3.8396   -0.8795 H   0  0  0  0  0  0  0  0  0  0  0  0
   -6.2702    3.6171   -2.5367 H   0  0  0  0  0  0  0  0  0  0  0  0
   -5.7874    5.3098   -2.5133 H   0  0  0  0  0  0  0  0  0  0  0  0
   -5.2428    4.2551   -3.8155 H   0  0  0  0  0  0  0  0  0  0  0  0
   -4.5138    6.7399   -4.0223 H   0  0  0  0  0  0  0  0  0  0  0  0
   -2.4404    7.3751   -7.3009 H   0  0  0  0  0  0  0  0  0  0  0  0
   -9.5809   10.2395   -7.6713 H   0  0  0  0  0  0  0  0  0  0  0  0
   -8.4286   10.8223   -9.7792 H   0  0  0  0  0  0  0  0  0  0  0  0
   -6.0824   10.2220  -10.1377 H   0  0  0  0  0  0  0  0  0  0  0  0
  1  2  2  0  0  0  0
  2  3  1  0  0  0  0
  3  4  2  0  0  0  0
  3  5  1  0  0  0  0
  5  6  2  0  0  0  0
  6  7  1  0  0  0  0
  7  8  2  0  0  0  0
  8  9  1  0  0  0  0
  9 10  2  0  0  0  0
 10 11  1  0  0  0  0
 11 12  2  0  0  0  0
 12 13  1  0  0  0  0
 13 14  3  0  0  0  0
 12 15  1  0  0  0  0
 15 16  3  0  0  0  0
  8 17  1  0  0  0  0
 17 18  1  0  0  0  0
 18 19  1  0  0  0  0
 19 20  2  0  0  0  0
 20 21  1  0  0  0  0
 21 22  1  0  0  0  0
 21 23  1  0  0  0  0
  1 24  1  0  0  0  0
 24 25  1  0  0  0  0
 25 26  1  0  0  0  0
 26 27  1  0  0  0  0
 27 28  2  0  0  0  0
 28 29  1  0  0  0  0
 29 30  1  0  0  0  0
 30 31  1  0  0  0  0
 29 32  1  0  0  0  0
 32 33  1  0  0  0  0
 29 34  1  0  0  0  0
 34 35  1  0  0  0  0
 28 36  1  0  0  0  0
 36 37  2  0  0  0  0
 37 38  1  0  0  0  0
 38 39  2  0  0  0  0
 39 40  1  0  0  0  0
 40 41  1  0  0  0  0
 41 42  1  0  0  0  0
 40 43  1  0  0  0  0
 43 44  1  0  0  0  0
 40 45  1  0  0  0  0
 45 46  2  0  0  0  0
 39 47  1  0  0  0  0
 47 48  2  0  0  0  0
 48 49  1  0  0  0  0
 49 50  2  0  0  0  0
 50 51  1  0  0  0  0
 51 52  1  0  0  0  0
 52 53  2  0  0  0  0
 51 54  1  0  0  0  0
 54 55  1  0  0  0  0
 51 56  1  0  0  0  0
 56 57  1  0  0  0  0
 50 58  1  0  0  0  0
 58 59  2  0  0  0  0
 59 60  1  0  0  0  0
 59 61  1  0  0  0  0
 61 62  2  0  0  0  0
 62 63  1  0  0  0  0
 63 64  2  0  0  0  0
 63 65  1  0  0  0  0
 65 66  2  0  0  0  0
 66 67  1  0  0  0  0
 66 68  1  0  0  0  0
 68 69  2  0  0  0  0
 69 70  1  0  0  0  0
 70 71  2  0  0  0  0
 71 72  1  0  0  0  0
 72 73  2  0  0  0  0
 73 74  1  0  0  0  0
 74 75  3  0  0  0  0
 73 76  1  0  0  0  0
 76 77  3  0  0  0  0
 11  2  1  0  0  0  0
 23 17  1  0  0  0  0
 31 24  2  0  0  0  0
 45 37  1  0  0  0  0
 52 48  1  0  0  0  0
 72 62  1  0  0  0  0
 10  5  1  0  0  0  0
 22 18  1  0  0  0  0
 30 26  2  0  0  0  0
 53 38  1  0  0  0  0
 71 65  1  0  0  0  0
 23  7  1  0  0  0  0
 46 27  1  0  0  0  0
 60 49  1  0  0  0  0
  1 78  1  0  0  0  0
  6 79  1  0  0  0  0
  9 80  1  0  0  0  0
 17 81  1  0  0  0  0
 18 82  1  0  0  0  0
 19 83  1  0  0  0  0
 20 84  1  0  0  0  0
 21 85  1  0  0  0  0
 22 86  1  0  0  0  0
 22 87  1  0  0  0  0
 23 88  1  0  0  0  0
 31 89  1  0  0  0  0
 32 90  1  0  0  0  0
 32 91  1  0  0  0  0
 33 92  1  0  0  0  0
 33 93  1  0  0  0  0
 33 94  1  0  0  0  0
 34 95  1  0  0  0  0
 34 96  1  0  0  0  0
 35 97  1  0  0  0  0
 35 98  1  0  0  0  0
 35 99  1  0  0  0  0
 36100  1  0  0  0  0
 41101  1  0  0  0  0
 41102  1  0  0  0  0
 42103  1  0  0  0  0
 42104  1  0  0  0  0
 42105  1  0  0  0  0
 43106  1  0  0  0  0
 43107  1  0  0  0  0
 44108  1  0  0  0  0
 44109  1  0  0  0  0
 44110  1  0  0  0  0
 46111  1  0  0  0  0
 47112  1  0  0  0  0
 53113  1  0  0  0  0
 54114  1  0  0  0  0
 54115  1  0  0  0  0
 55116  1  0  0  0  0
 55117  1  0  0  0  0
 55118  1  0  0  0  0
 56119  1  0  0  0  0
 56120  1  0  0  0  0
 57121  1  0  0  0  0
 57122  1  0  0  0  0
 57123  1  0  0  0  0
 58124  1  0  0  0  0
 61125  1  0  0  0  0
 68126  1  0  0  0  0
 69127  1  0  0  0  0
 70128  1  0  0  0  0
M  END
