110

C         -4.04770       -2.92510        4.56710
C         -4.84530       -1.84150        4.83850
C         -4.77560       -0.52870        4.19290
O         -3.99000       -0.16210        3.33340
C         -5.84960        0.28450        4.78600
C         -6.17660        1.60110        4.46910
C         -7.23740        2.10090        5.18550
C         -7.92560        1.34460        6.14320
C         -7.61340        0.04460        6.46410
C         -6.53260       -0.48270        5.75090
C         -5.91640       -1.80800        5.81450
C         -6.29580       -2.81510        6.66620
C         -5.70800       -4.09430        6.74800
N         -5.28970       -5.15660        6.88210
C         -7.34130       -2.71500        7.60770
N         -8.17290       -2.71130        8.39960
C         -8.87230        2.47250        6.47070
C         -8.60010        3.24360        7.77950
C         -9.34800        4.54430        7.59530
C         -8.69390        5.26120        6.69040
C         -7.49300        4.45690        6.24750
C         -7.16270        3.73230        7.55880
C         -8.10300        3.31680        5.40450
C         -2.99650       -3.08670        3.65800
C         -2.29990       -4.29760        3.50370
C         -2.59060       -5.57260        4.22570
C         -3.72610       -6.33860        3.54120
C         -1.31270       -4.19320        2.53260
S         -0.14340       -5.34300        1.90840
C          0.45690       -4.11040        0.85470
C          1.46360       -3.93090       -0.10410
C          2.50330       -4.78880       -0.52580
C          3.48020       -4.29140       -1.44960
N          4.42680       -5.17870       -1.71210
S          4.11280       -6.52650       -0.87270
N          2.75740       -6.02960       -0.14090
C          3.30080       -3.00400       -2.00140
C          3.99140       -2.34000       -3.02550
S          5.35650       -2.59150       -4.05800
C          4.97470       -1.09790       -4.87430
C          5.53830       -0.39770       -5.94530
S          6.87810       -0.63520       -6.99040
C          6.55300        0.90930       -7.78430
C          5.40550        1.53160       -7.29920
C          4.78380        2.74850       -7.89760
C          3.27950        2.60330       -8.11520
C          4.85050        0.78310       -6.25380
S          3.48000        1.02920       -5.20460
C          3.84750       -0.44540       -4.35790
C          3.29080       -1.15820       -3.29030
N          2.21180       -1.05970       -2.45480
C          2.20390       -2.17200       -1.63350
C          1.34690       -2.59240       -0.58230
N          0.31600       -1.96970        0.10390
C         -0.21390       -2.88870        0.97410
C         -1.22460       -2.92290        1.93870
S         -2.38820       -1.82680        2.58230
C          0.12470       -0.56770        0.41180
C          1.22120       -0.06360        1.34790
C          1.18690       -0.07870       -2.72600
C          1.55620        1.30150       -2.18370
C          7.43110        1.27930       -8.82470
C          7.83090        2.54550       -9.15720
C          7.77060        3.71710       -8.24290
O          7.26160        3.77340       -7.14350
C          8.56490        4.75740       -8.91340
C          8.94790        6.03390       -8.66130
S          9.92590        6.64390       -9.94620
C          9.82330        5.16440      -10.82730
C          9.06790        4.25320      -10.15600
C          8.60700        2.89170      -10.33380
C          8.81640        2.13030      -11.45410
C          8.28830        0.84300      -11.67050
N          7.86500       -0.19700      -11.91160
C          9.58190        2.61510      -12.53380
N         10.20610        2.99880      -13.41720
H         -4.25560       -3.81930        5.13810
H         -5.62310        2.14420        3.71910
H         -8.15800       -0.52270        7.19980
H         -9.92870        2.26690        6.30920
H         -8.80600        2.68450        8.68810
H        -10.27520        4.77770        8.08470
H         -8.96570        6.21300        6.27270
H         -6.68990        5.00420        5.76100
H         -6.43320        2.93160        7.45220
H         -6.83760        4.41970        8.33800
H         -8.64720        3.67620        4.53300
H         -1.68760       -6.18620        4.20960
H         -2.85720       -5.38390        5.26670
H         -4.64090       -5.75050        3.53880
H         -3.45940       -6.57100        2.51280
H         -3.91560       -7.26700        4.07210
H          4.98280        3.59960       -7.23920
H          5.26860        2.95610       -8.85350
H          3.06340        1.71510       -8.70520
H          2.90460        3.47190       -8.65060
H          2.74730        2.53240       -7.17050
H          0.09210        0.03590       -0.48910
H         -0.84650       -0.48550        0.90640
H          2.20100       -0.17160        0.88620
H          1.21460       -0.63220        2.27470
H          1.05350        0.98360        1.58430
H          1.08120       -0.00760       -3.81440
H          0.23720       -0.44120       -2.33110
H          2.42040        1.68870       -2.71660
H          0.72820        1.98960       -2.33020
H          1.80140        1.26230       -1.12620
H          7.87200        0.45100       -9.36830
H          8.71950        6.65450       -7.81830
H         10.32920        5.07350      -11.76750
