114

C         -0.59630        2.65870        7.28750
C         -1.37430        1.85090        8.07670
C         -2.11580        0.62540        7.71050
O         -2.03270       -0.05160        6.70210
C         -3.03130        0.35520        8.83440
C         -3.99020       -0.65410        8.90030
C         -4.71790       -0.65830       10.06530
C         -4.51230        0.27700       11.08840
C         -3.56890        1.27540       11.03690
C         -2.81130        1.29200        9.86150
C         -1.72990        2.18160        9.44700
C         -1.11640        3.10300       10.25570
C          0.00560        3.88830        9.91360
N          0.92930        4.54860        9.73890
C         -1.48790        3.36130       11.59180
N         -1.73410        3.63090       12.68060
C         -5.59480       -0.31490       11.95640
C         -5.12840       -1.19160       13.13770
C         -6.35440       -2.00100       13.49360
C         -6.54660       -2.88890       12.52640
C         -5.45360       -2.69420       11.50030
C         -4.30220       -2.26620       12.41920
C         -5.82170       -1.35990       10.81720
C         -0.15250        2.51190        5.96260
S          0.66410        3.91940        5.24990
C          0.87080        3.06910        3.77490
C          1.36430        3.22320        2.48200
S          2.07420        4.46710        1.49280
C          2.07870        3.34960        0.17320
C          2.44220        3.35670       -1.18580
C          3.07660        4.30550       -2.02100
C          3.39800        3.94610       -3.37880
N          4.04610        4.91030       -4.01270
S          4.23070        6.16090       -3.00240
N          3.49280        5.52330       -1.71310
C          2.95710        2.70280       -3.88930
C          2.97250        2.12350       -5.16840
S          3.58190        2.45590       -6.75340
C          2.84320        0.96780       -7.32110
C          2.79830        0.35640       -8.56480
C          3.47710        0.91920       -9.77040
C          4.86870        0.30610       -9.94950
C          2.09010       -0.86070       -8.51260
S          1.47230       -1.20400       -6.89370
C          2.16230        0.26200       -6.31240
C          2.24100        0.92860       -5.09040
N          1.78860        0.73460       -3.80840
C          2.23930        1.80020       -3.05690
C          2.11870        2.07290       -1.68090
N          1.63920        1.27250       -0.65230
C          1.58730        2.07080        0.47870
C          1.14980        1.99310        1.80990
N          0.54910        1.09920        2.66370
C          0.35160        1.75200        3.85520
C         -0.22000        1.44330        5.08010
C         -0.04990       -0.17050        2.33450
C         -1.25900        0.00330        1.41780
C          1.96700       -0.14160       -0.57350
C          3.15010       -0.39260        0.36110
C          0.60210       -0.06270       -3.57030
C         -0.60800        0.52330       -4.29650
C          1.91740       -1.68460       -9.62590
C          1.31650       -2.91610       -9.75690
C          0.70330       -3.69560       -8.68010
O          0.55310       -3.36260       -7.51740
C          0.29430       -4.97730       -9.28610
C         -0.30060       -6.08460       -8.70590
Cl        -0.68990       -6.10650       -7.03400
C         -0.57890       -7.19290       -9.50310
C         -0.26270       -7.17500      -10.84950
C          0.33200       -6.06800      -11.44510
C          0.61050       -4.96450      -10.65800
C          1.22600       -3.67540      -10.98340
C          1.61120       -3.28420      -12.24150
C          1.47670       -4.07940      -13.39860
N          1.40040       -4.66550      -14.38300
C          2.18060       -2.03880      -12.57830
N          2.64390       -1.04900      -12.93440
H         -0.28770        3.59770        7.73260
H         -4.12090       -1.34800        8.08460
H         -3.43050        1.99240       11.82840
H         -6.41150        0.35470       12.21920
H         -4.64860       -0.64730       13.94630
H         -6.96760       -1.81380       14.35540
H         -7.35240       -3.59120       12.41880
H         -5.27030       -3.52020       10.81810
H         -3.99310       -3.06530       13.09110
H         -3.43320       -1.87820       11.89110
H         -6.79070       -1.38870       10.32190
H          3.57950        1.99720       -9.63080
H          2.88560        0.74600      -10.67060
H          5.48610        0.50860       -9.07750
H          5.34880        0.73410      -10.82480
H          4.80120       -0.77090      -10.08490
H         -0.68110        0.51210        5.35030
H         -0.35990       -0.63400        3.27270
H          0.69800       -0.81730        1.86800
H         -1.67590       -0.96690        1.16160
H         -0.97710        0.52010        0.50290
H         -2.02520        0.58920        1.91940
H          2.24630       -0.48030       -1.57120
H          1.09120       -0.70690       -0.24200
H          3.38830       -1.45300        0.37080
H          4.02220        0.15630        0.01240
H          2.93050       -0.07370        1.37680
H          0.39060       -0.08470       -2.50370
H          0.79230       -1.07860       -3.92900
H         -1.49050       -0.06680       -4.06610
H         -0.45770        0.51040       -5.37210
H         -0.77840        1.54970       -3.97770
H          2.35310       -1.27860      -10.52830
H         -1.04010       -8.06100       -9.05970
H         -0.48210       -8.04190      -11.45360
H          0.56710       -6.08710      -12.49600
