
  xtb     02022219583D
 energy: -205.359397158209 gnorm: 0.000905973136 xtb: 6.4.1 (unknown)
113129  0     0  0            999 V2000
   -3.0574   -3.7932    5.4122 C   0  0  0  0  0  0  0  0  0  0  0  0
   -3.8577   -2.7538    5.8186 C   0  0  0  0  0  0  0  0  0  0  0  0
   -3.8262   -1.3827    5.3055 C   0  0  0  0  0  0  0  0  0  0  0  0
   -3.1013   -0.9287    4.4345 O   0  0  0  0  0  0  0  0  0  0  0  0
   -4.8493   -0.6338    6.0528 C   0  0  0  0  0  0  0  0  0  0  0  0
   -5.1679    0.7153    5.9142 C   0  0  0  0  0  0  0  0  0  0  0  0
   -6.1657    1.1426    6.7567 C   0  0  0  0  0  0  0  0  0  0  0  0
   -6.7981    0.2904    7.6712 C   0  0  0  0  0  0  0  0  0  0  0  0
   -6.4897   -1.0413    7.8203 C   0  0  0  0  0  0  0  0  0  0  0  0
   -5.4784   -1.4986    6.9701 C   0  0  0  0  0  0  0  0  0  0  0  0
   -4.8826   -2.8288    6.8407 C   0  0  0  0  0  0  0  0  0  0  0  0
   -5.2521   -3.9321    7.5685 C   0  0  0  0  0  0  0  0  0  0  0  0
   -6.2719   -3.9429    8.5430 C   0  0  0  0  0  0  0  0  0  0  0  0
   -7.0883   -4.0378    9.3452 N   0  0  0  0  0  0  0  0  0  0  0  0
   -4.6871   -5.2198    7.4636 C   0  0  0  0  0  0  0  0  0  0  0  0
   -4.2848   -6.2965    7.4446 N   0  0  0  0  0  0  0  0  0  0  0  0
   -7.7016    1.3828    8.1868 C   0  0  0  0  0  0  0  0  0  0  0  0
   -9.1602    1.3668    7.6821 C   0  0  0  0  0  0  0  0  0  0  0  0
   -9.6506    2.7709    7.9530 C   0  0  0  0  0  0  0  0  0  0  0  0
   -9.0497    3.5813    7.0911 C   0  0  0  0  0  0  0  0  0  0  0  0
   -8.1438    2.7386    6.2225 C   0  0  0  0  0  0  0  0  0  0  0  0
   -8.9654    1.4443    6.1622 C   0  0  0  0  0  0  0  0  0  0  0  0
   -6.9940    2.3342    7.1692 C   0  0  0  0  0  0  0  0  0  0  0  0
   -2.0461   -3.8484    4.4473 C   0  0  0  0  0  0  0  0  0  0  0  0
   -1.3286   -5.0210    4.1541 C   0  0  0  0  0  0  0  0  0  0  0  0
   -1.5576   -6.3634    4.7684 C   0  0  0  0  0  0  0  0  0  0  0  0
   -2.7082   -7.0920    4.0685 C   0  0  0  0  0  0  0  0  0  0  0  0
   -0.3916   -4.8051    3.1521 C   0  0  0  0  0  0  0  0  0  0  0  0
    0.7629   -5.8662    2.3637 S   0  0  0  0  0  0  0  0  0  0  0  0
    1.2734   -4.5328    1.3867 C   0  0  0  0  0  0  0  0  0  0  0  0
    2.1572   -4.2646    0.3333 C   0  0  0  0  0  0  0  0  0  0  0  0
    2.9888   -5.1244   -0.4179 C   0  0  0  0  0  0  0  0  0  0  0  0
    3.6820   -4.5964   -1.5560 C   0  0  0  0  0  0  0  0  0  0  0  0
    4.3743   -5.5218   -2.2016 N   0  0  0  0  0  0  0  0  0  0  0  0
    4.1759   -6.9356   -1.4384 S   0  0  0  0  0  0  0  0  0  0  0  0
    3.1958   -6.4219   -0.2569 N   0  0  0  0  0  0  0  0  0  0  0  0
    3.5958   -3.2129   -1.8261 C   0  0  0  0  0  0  0  0  0  0  0  0
    4.2238   -2.4263   -2.8034 C   0  0  0  0  0  0  0  0  0  0  0  0
    5.2630   -2.6185   -4.1739 S   0  0  0  0  0  0  0  0  0  0  0  0
    5.2279   -0.8898   -4.4060 C   0  0  0  0  0  0  0  0  0  0  0  0
    5.7821   -0.0139   -5.3469 C   0  0  0  0  0  0  0  0  0  0  0  0
    6.7606   -0.1763   -6.7487 S   0  0  0  0  0  0  0  0  0  0  0  0
    6.6283    1.5568   -7.0625 C   0  0  0  0  0  0  0  0  0  0  0  0
    5.9276    2.2294   -6.0695 C   0  0  0  0  0  0  0  0  0  0  0  0
    5.8156    3.7128   -5.9536 C   0  0  0  0  0  0  0  0  0  0  0  0
    6.2050    4.2209   -4.5668 C   0  0  0  0  0  0  0  0  0  0  0  0
    5.4451    1.3240   -5.1146 C   0  0  0  0  0  0  0  0  0  0  0  0
    4.4345    1.5093   -3.7074 S   0  0  0  0  0  0  0  0  0  0  0  0
    4.4566   -0.2114   -3.4548 C   0  0  0  0  0  0  0  0  0  0  0  0
    3.8755   -1.0980   -2.5409 C   0  0  0  0  0  0  0  0  0  0  0  0
    3.0386   -1.0349   -1.4603 N   0  0  0  0  0  0  0  0  0  0  0  0
    2.8336   -2.3302   -1.0088 C   0  0  0  0  0  0  0  0  0  0  0  0
    2.0193   -2.8800    0.0167 C   0  0  0  0  0  0  0  0  0  0  0  0
    1.0509   -2.3413    0.8444 N   0  0  0  0  0  0  0  0  0  0  0  0
    0.5963   -3.3395    1.6634 C   0  0  0  0  0  0  0  0  0  0  0  0
   -0.3632   -3.4863    2.6690 C   0  0  0  0  0  0  0  0  0  0  0  0
   -1.5199   -2.4832    3.4595 S   0  0  0  0  0  0  0  0  0  0  0  0
    0.2822   -1.1226    0.7205 C   0  0  0  0  0  0  0  0  0  0  0  0
   -0.4458   -1.0543   -0.6196 C   0  0  0  0  0  0  0  0  0  0  0  0
    2.8480    0.2275   -0.7800 C   0  0  0  0  0  0  0  0  0  0  0  0
    3.5532    0.2475    0.5736 C   0  0  0  0  0  0  0  0  0  0  0  0
    7.2628    2.0422   -8.2307 C   0  0  0  0  0  0  0  0  0  0  0  0
    6.8165    3.0466   -9.0389 C   0  0  0  0  0  0  0  0  0  0  0  0
    5.4211    3.5662   -9.0735 C   0  0  0  0  0  0  0  0  0  0  0  0
    4.4916    3.2576   -8.3590 O   0  0  0  0  0  0  0  0  0  0  0  0
    5.3818    4.4540  -10.2437 C   0  0  0  0  0  0  0  0  0  0  0  0
    6.6245    4.4554  -10.8648 C   0  0  0  0  0  0  0  0  0  0  0  0
    6.7030    5.4548  -12.2709 S   0  0  0  0  0  0  0  0  0  0  0  0
    5.0368    5.8863  -12.0394 C   0  0  0  0  0  0  0  0  0  0  0  0
    4.1408    6.7245  -12.7282 C   0  0  0  0  0  0  0  0  0  0  0  0
    2.9211    6.7328  -12.1269 C   0  0  0  0  0  0  0  0  0  0  0  0
    2.8203    5.7337  -10.7177 S   0  0  0  0  0  0  0  0  0  0  0  0
    4.4665    5.2703  -10.9171 C   0  0  0  0  0  0  0  0  0  0  0  0
    7.5511    3.6168  -10.1607 C   0  0  0  0  0  0  0  0  0  0  0  0
    8.8774    3.4631  -10.4789 C   0  0  0  0  0  0  0  0  0  0  0  0
    9.4289    4.1064  -11.6062 C   0  0  0  0  0  0  0  0  0  0  0  0
    9.8859    4.6238  -12.5229 N   0  0  0  0  0  0  0  0  0  0  0  0
    9.8079    2.7079   -9.7411 C   0  0  0  0  0  0  0  0  0  0  0  0
   10.6139    2.1240   -9.1681 N   0  0  0  0  0  0  0  0  0  0  0  0
   -3.2215   -4.7389    5.9102 H   0  0  0  0  0  0  0  0  0  0  0  0
   -4.6507    1.3358    5.1991 H   0  0  0  0  0  0  0  0  0  0  0  0
   -6.9819   -1.6783    8.5355 H   0  0  0  0  0  0  0  0  0  0  0  0
   -7.6220    1.6033    9.2496 H   0  0  0  0  0  0  0  0  0  0  0  0
   -9.7667    0.5526    8.0690 H   0  0  0  0  0  0  0  0  0  0  0  0
  -10.3191    3.0288    8.7532 H   0  0  0  0  0  0  0  0  0  0  0  0
   -9.1160    4.6517    7.0278 H   0  0  0  0  0  0  0  0  0  0  0  0
   -7.8258    3.1752    5.2794 H   0  0  0  0  0  0  0  0  0  0  0  0
   -9.9074    1.5789    5.6332 H   0  0  0  0  0  0  0  0  0  0  0  0
   -8.4283    0.5971    5.7395 H   0  0  0  0  0  0  0  0  0  0  0  0
   -6.4386    3.1875    7.5544 H   0  0  0  0  0  0  0  0  0  0  0  0
   -0.6437   -6.9498    4.6546 H   0  0  0  0  0  0  0  0  0  0  0  0
   -1.7785   -6.2768    5.8332 H   0  0  0  0  0  0  0  0  0  0  0  0
   -3.6367   -6.5356    4.1726 H   0  0  0  0  0  0  0  0  0  0  0  0
   -2.4910   -7.2124    3.0097 H   0  0  0  0  0  0  0  0  0  0  0  0
   -2.8450   -8.0742    4.5115 H   0  0  0  0  0  0  0  0  0  0  0  0
    6.4609    4.1763   -6.7018 H   0  0  0  0  0  0  0  0  0  0  0  0
    4.7861    4.0043   -6.1802 H   0  0  0  0  0  0  0  0  0  0  0  0
    7.2030    3.8780   -4.3028 H   0  0  0  0  0  0  0  0  0  0  0  0
    5.5067    3.8762   -3.8091 H   0  0  0  0  0  0  0  0  0  0  0  0
    6.2012    5.3079   -4.5626 H   0  0  0  0  0  0  0  0  0  0  0  0
    0.9157   -0.2502    0.8810 H   0  0  0  0  0  0  0  0  0  0  0  0
   -0.4536   -1.1367    1.5279 H   0  0  0  0  0  0  0  0  0  0  0  0
   -1.0073   -0.1266   -0.6876 H   0  0  0  0  0  0  0  0  0  0  0  0
    0.2503   -1.1081   -1.4535 H   0  0  0  0  0  0  0  0  0  0  0  0
   -1.1416   -1.8855   -0.7051 H   0  0  0  0  0  0  0  0  0  0  0  0
    3.2849    0.9951   -1.4233 H   0  0  0  0  0  0  0  0  0  0  0  0
    1.7867    0.4586   -0.6845 H   0  0  0  0  0  0  0  0  0  0  0  0
    3.3846    1.2023    1.0643 H   0  0  0  0  0  0  0  0  0  0  0  0
    4.6237    0.1125    0.4370 H   0  0  0  0  0  0  0  0  0  0  0  0
    3.1915   -0.5492    1.2192 H   0  0  0  0  0  0  0  0  0  0  0  0
    8.1613    1.5108   -8.5232 H   0  0  0  0  0  0  0  0  0  0  0  0
    4.3871    7.2833  -13.6116 H   0  0  0  0  0  0  0  0  0  0  0  0
    2.0496    7.2786  -12.4308 H   0  0  0  0  0  0  0  0  0  0  0  0
  1  2  2  0  0  0  0
  2  3  1  0  0  0  0
  3  4  2  0  0  0  0
  3  5  1  0  0  0  0
  5  6  2  0  0  0  0
  6  7  1  0  0  0  0
  7  8  2  0  0  0  0
  8  9  1  0  0  0  0
  9 10  2  0  0  0  0
 10 11  1  0  0  0  0
 11 12  2  0  0  0  0
 12 13  1  0  0  0  0
 13 14  3  0  0  0  0
 12 15  1  0  0  0  0
 15 16  3  0  0  0  0
  8 17  1  0  0  0  0
 17 18  1  0  0  0  0
 18 19  1  0  0  0  0
 19 20  2  0  0  0  0
 20 21  1  0  0  0  0
 21 22  1  0  0  0  0
 21 23  1  0  0  0  0
  1 24  1  0  0  0  0
 24 25  2  0  0  0  0
 25 26  1  0  0  0  0
 26 27  1  0  0  0  0
 25 28  1  0  0  0  0
 28 29  1  0  0  0  0
 29 30  1  0  0  0  0
 30 31  1  0  0  0  0
 31 32  1  0  0  0  0
 32 33  1  0  0  0  0
 33 34  2  0  0  0  0
 34 35  1  0  0  0  0
 35 36  1  0  0  0  0
 33 37  1  0  0  0  0
 37 38  1  0  0  0  0
 38 39  1  0  0  0  0
 39 40  1  0  0  0  0
 40 41  1  0  0  0  0
 41 42  1  0  0  0  0
 42 43  1  0  0  0  0
 43 44  2  0  0  0  0
 44 45  1  0  0  0  0
 45 46  1  0  0  0  0
 44 47  1  0  0  0  0
 47 48  1  0  0  0  0
 48 49  1  0  0  0  0
 49 50  1  0  0  0  0
 50 51  1  0  0  0  0
 51 52  1  0  0  0  0
 52 53  1  0  0  0  0
 53 54  1  0  0  0  0
 54 55  1  0  0  0  0
 55 56  1  0  0  0  0
 56 57  1  0  0  0  0
 54 58  1  0  0  0  0
 58 59  1  0  0  0  0
 51 60  1  0  0  0  0
 60 61  1  0  0  0  0
 43 62  1  0  0  0  0
 62 63  2  0  0  0  0
 63 64  1  0  0  0  0
 64 65  2  0  0  0  0
 64 66  1  0  0  0  0
 66 67  2  0  0  0  0
 67 68  1  0  0  0  0
 68 69  1  0  0  0  0
 69 70  1  0  0  0  0
 70 71  2  0  0  0  0
 71 72  1  0  0  0  0
 72 73  1  0  0  0  0
 67 74  1  0  0  0  0
 74 75  2  0  0  0  0
 75 76  1  0  0  0  0
 76 77  3  0  0  0  0
 75 78  1  0  0  0  0
 78 79  3  0  0  0  0
 11  2  1  0  0  0  0
 23 17  1  0  0  0  0
 57 24  1  0  0  0  0
 74 63  1  0  0  0  0
 10  5  1  0  0  0  0
 22 18  1  0  0  0  0
 56 28  2  0  0  0  0
 73 66  1  0  0  0  0
 23  7  1  0  0  0  0
 55 30  2  0  0  0  0
 73 69  2  0  0  0  0
 53 31  2  0  0  0  0
 36 32  2  0  0  0  0
 52 37  2  0  0  0  0
 50 38  2  0  0  0  0
 49 40  2  0  0  0  0
 47 41  2  0  0  0  0
  1 80  1  0  0  0  0
  6 81  1  0  0  0  0
  9 82  1  0  0  0  0
 17 83  1  0  0  0  0
 18 84  1  0  0  0  0
 19 85  1  0  0  0  0
 20 86  1  0  0  0  0
 21 87  1  0  0  0  0
 22 88  1  0  0  0  0
 22 89  1  0  0  0  0
 23 90  1  0  0  0  0
 26 91  1  0  0  0  0
 26 92  1  0  0  0  0
 27 93  1  0  0  0  0
 27 94  1  0  0  0  0
 27 95  1  0  0  0  0
 45 96  1  0  0  0  0
 45 97  1  0  0  0  0
 46 98  1  0  0  0  0
 46 99  1  0  0  0  0
 46100  1  0  0  0  0
 58101  1  0  0  0  0
 58102  1  0  0  0  0
 59103  1  0  0  0  0
 59104  1  0  0  0  0
 59105  1  0  0  0  0
 60106  1  0  0  0  0
 60107  1  0  0  0  0
 61108  1  0  0  0  0
 61109  1  0  0  0  0
 61110  1  0  0  0  0
 62111  1  0  0  0  0
 70112  1  0  0  0  0
 71113  1  0  0  0  0
M  END
