
  xtb     02112205423D
 energy: -200.965714943805 gnorm: 0.000476181651 xtb: 6.4.1 (unknown)
111125  0     0  0            999 V2000
   -3.2226   -6.3338   -2.2787 C   0  0  0  0  0  0  0  0  0  0  0  0
   -2.3115   -7.3156   -2.5430 C   0  0  0  0  0  0  0  0  0  0  0  0
   -2.5434   -8.2106   -3.7089 C   0  0  0  0  0  0  0  0  0  0  0  0
   -3.5708   -8.3274   -4.3382 O   0  0  0  0  0  0  0  0  0  0  0  0
   -1.2476   -8.8713   -3.9616 C   0  0  0  0  0  0  0  0  0  0  0  0
   -0.9185   -9.7062   -5.0274 C   0  0  0  0  0  0  0  0  0  0  0  0
    0.3836  -10.1464   -5.0126 C   0  0  0  0  0  0  0  0  0  0  0  0
    1.2957   -9.7850   -4.0121 C   0  0  0  0  0  0  0  0  0  0  0  0
    0.9829   -8.9707   -2.9497 C   0  0  0  0  0  0  0  0  0  0  0  0
   -0.3374   -8.5129   -2.9462 C   0  0  0  0  0  0  0  0  0  0  0  0
   -1.0312   -7.6649   -1.9770 C   0  0  0  0  0  0  0  0  0  0  0  0
   -0.6246   -7.4622   -0.6813 C   0  0  0  0  0  0  0  0  0  0  0  0
   -1.4231   -6.8662    0.3143 C   0  0  0  0  0  0  0  0  0  0  0  0
   -2.0254   -6.4112    1.1797 N   0  0  0  0  0  0  0  0  0  0  0  0
    0.6149   -7.8796   -0.1588 C   0  0  0  0  0  0  0  0  0  0  0  0
    1.6216   -8.1511    0.3235 N   0  0  0  0  0  0  0  0  0  0  0  0
    2.4195  -10.5718   -4.6390 C   0  0  0  0  0  0  0  0  0  0  0  0
    3.4775   -9.7624   -5.4185 C   0  0  0  0  0  0  0  0  0  0  0  0
    4.1466  -10.7935   -6.2983 C   0  0  0  0  0  0  0  0  0  0  0  0
    3.2830  -11.1372   -7.2452 C   0  0  0  0  0  0  0  0  0  0  0  0
    2.0157  -10.3440   -7.0214 C   0  0  0  0  0  0  0  0  0  0  0  0
    2.6129   -9.0455   -6.4636 C   0  0  0  0  0  0  0  0  0  0  0  0
    1.4024  -10.9767   -5.7539 C   0  0  0  0  0  0  0  0  0  0  0  0
   -3.0809   -5.1472   -1.5339 C   0  0  0  0  0  0  0  0  0  0  0  0
   -4.5412   -4.2494   -1.1105 S   0  0  0  0  0  0  0  0  0  0  0  0
   -3.5932   -3.0403   -0.3487 C   0  0  0  0  0  0  0  0  0  0  0  0
   -3.7044   -1.8340    0.3360 C   0  0  0  0  0  0  0  0  0  0  0  0
   -4.9736   -0.7477    0.8098 S   0  0  0  0  0  0  0  0  0  0  0  0
   -3.7588    0.2868    1.4687 C   0  0  0  0  0  0  0  0  0  0  0  0
   -3.7197    1.5563    2.0562 C   0  0  0  0  0  0  0  0  0  0  0  0
   -4.7071    2.5584    2.1914 C   0  0  0  0  0  0  0  0  0  0  0  0
   -4.3032    3.8861    2.5641 C   0  0  0  0  0  0  0  0  0  0  0  0
   -5.3147    4.7401    2.5610 N   0  0  0  0  0  0  0  0  0  0  0  0
   -6.6577    3.9451    2.1367 S   0  0  0  0  0  0  0  0  0  0  0  0
   -6.0028    2.4808    1.9322 N   0  0  0  0  0  0  0  0  0  0  0  0
   -2.9533    4.1157    2.9086 C   0  0  0  0  0  0  0  0  0  0  0  0
   -2.2556    5.2725    3.2987 C   0  0  0  0  0  0  0  0  0  0  0  0
   -2.5340    6.9374    3.5235 S   0  0  0  0  0  0  0  0  0  0  0  0
   -0.8207    7.1765    3.8907 C   0  0  0  0  0  0  0  0  0  0  0  0
   -0.0908    5.9836    3.8830 C   0  0  0  0  0  0  0  0  0  0  0  0
    1.3555    5.8497    4.2540 C   0  0  0  0  0  0  0  0  0  0  0  0
    2.1905    5.2172    3.1385 C   0  0  0  0  0  0  0  0  0  0  0  0
   -0.9316    4.9063    3.5806 C   0  0  0  0  0  0  0  0  0  0  0  0
   -0.7890    3.5277    3.4333 N   0  0  0  0  0  0  0  0  0  0  0  0
   -2.0113    3.0582    2.9410 C   0  0  0  0  0  0  0  0  0  0  0  0
   -2.3608    1.8058    2.3878 C   0  0  0  0  0  0  0  0  0  0  0  0
   -1.6023    0.7328    1.9628 N   0  0  0  0  0  0  0  0  0  0  0  0
   -2.4387   -0.1894    1.3735 C   0  0  0  0  0  0  0  0  0  0  0  0
   -2.3906   -1.4092    0.6652 C   0  0  0  0  0  0  0  0  0  0  0  0
   -1.4868   -2.3379    0.1863 N   0  0  0  0  0  0  0  0  0  0  0  0
   -2.2117   -3.3191   -0.4436 C   0  0  0  0  0  0  0  0  0  0  0  0
   -1.9262   -4.4995   -1.1176 C   0  0  0  0  0  0  0  0  0  0  0  0
   -0.0600   -2.2377   -0.0022 C   0  0  0  0  0  0  0  0  0  0  0  0
    0.2818   -1.4370   -1.2590 C   0  0  0  0  0  0  0  0  0  0  0  0
   -0.1700    0.5848    2.0214 C   0  0  0  0  0  0  0  0  0  0  0  0
    0.2419   -0.4789    3.0432 C   0  0  0  0  0  0  0  0  0  0  0  0
   -0.1001    2.7950    4.4865 C   0  0  0  0  0  0  0  0  0  0  0  0
   -0.6671    3.1235    5.8682 C   0  0  0  0  0  0  0  0  0  0  0  0
   -0.4510    8.4927    4.2406 C   0  0  0  0  0  0  0  0  0  0  0  0
    0.7276    9.1714    4.0922 C   0  0  0  0  0  0  0  0  0  0  0  0
    1.0012   10.3539    4.9442 C   0  0  0  0  0  0  0  0  0  0  0  0
    0.2346   10.9048    5.6998 O   0  0  0  0  0  0  0  0  0  0  0  0
    2.4297   10.6780    4.7104 C   0  0  0  0  0  0  0  0  0  0  0  0
    3.2162   11.6224    5.3389 C   0  0  0  0  0  0  0  0  0  0  0  0
    4.5455   11.7114    4.9555 C   0  0  0  0  0  0  0  0  0  0  0  0
    5.3458   12.6095    5.5433 F   0  0  0  0  0  0  0  0  0  0  0  0
    5.0606   10.8723    3.9676 C   0  0  0  0  0  0  0  0  0  0  0  0
    6.3517   10.9700    3.6295 F   0  0  0  0  0  0  0  0  0  0  0  0
    4.2684    9.9306    3.3272 C   0  0  0  0  0  0  0  0  0  0  0  0
    2.9398    9.8372    3.7062 C   0  0  0  0  0  0  0  0  0  0  0  0
    1.8582    8.9799    3.2184 C   0  0  0  0  0  0  0  0  0  0  0  0
    1.8470    8.3406    2.0053 C   0  0  0  0  0  0  0  0  0  0  0  0
    0.7058    7.7228    1.4544 C   0  0  0  0  0  0  0  0  0  0  0  0
   -0.1890    7.2203    0.9407 N   0  0  0  0  0  0  0  0  0  0  0  0
    2.9576    8.2761    1.1403 C   0  0  0  0  0  0  0  0  0  0  0  0
    3.8379    8.1668    0.4115 N   0  0  0  0  0  0  0  0  0  0  0  0
   -4.1745   -6.4581   -2.7865 H   0  0  0  0  0  0  0  0  0  0  0  0
   -1.6507   -9.9639   -5.7763 H   0  0  0  0  0  0  0  0  0  0  0  0
    1.6935   -8.6970   -2.1871 H   0  0  0  0  0  0  0  0  0  0  0  0
    2.8533  -11.3543   -4.0196 H   0  0  0  0  0  0  0  0  0  0  0  0
    4.1287   -9.1502   -4.8003 H   0  0  0  0  0  0  0  0  0  0  0  0
    5.1260  -11.1945   -6.1141 H   0  0  0  0  0  0  0  0  0  0  0  0
    3.3969  -11.8825   -8.0102 H   0  0  0  0  0  0  0  0  0  0  0  0
    1.3351  -10.2608   -7.8643 H   0  0  0  0  0  0  0  0  0  0  0  0
    3.2134   -8.5180   -7.2029 H   0  0  0  0  0  0  0  0  0  0  0  0
    1.8765   -8.3649   -6.0399 H   0  0  0  0  0  0  0  0  0  0  0  0
    1.1588  -12.0299   -5.8787 H   0  0  0  0  0  0  0  0  0  0  0  0
    1.4310    5.2224    5.1478 H   0  0  0  0  0  0  0  0  0  0  0  0
    1.7637    6.8270    4.5120 H   0  0  0  0  0  0  0  0  0  0  0  0
    1.7826    4.2543    2.8442 H   0  0  0  0  0  0  0  0  0  0  0  0
    2.2055    5.8436    2.2520 H   0  0  0  0  0  0  0  0  0  0  0  0
    3.2151    5.0773    3.4755 H   0  0  0  0  0  0  0  0  0  0  0  0
   -0.9404   -4.8610   -1.3475 H   0  0  0  0  0  0  0  0  0  0  0  0
    0.4056   -1.7920    0.8741 H   0  0  0  0  0  0  0  0  0  0  0  0
    0.3224   -3.2570   -0.0966 H   0  0  0  0  0  0  0  0  0  0  0  0
   -0.1294   -1.9250   -2.1395 H   0  0  0  0  0  0  0  0  0  0  0  0
   -0.1361   -0.4338   -1.2024 H   0  0  0  0  0  0  0  0  0  0  0  0
    1.3599   -1.3624   -1.3733 H   0  0  0  0  0  0  0  0  0  0  0  0
    0.2728    1.5533    2.2547 H   0  0  0  0  0  0  0  0  0  0  0  0
    0.1844    0.3008    1.0265 H   0  0  0  0  0  0  0  0  0  0  0  0
   -0.0181   -0.1847    4.0572 H   0  0  0  0  0  0  0  0  0  0  0  0
    1.3155   -0.6434    3.0003 H   0  0  0  0  0  0  0  0  0  0  0  0
   -0.2716   -1.4169    2.8448 H   0  0  0  0  0  0  0  0  0  0  0  0
    0.9670    3.0240    4.4530 H   0  0  0  0  0  0  0  0  0  0  0  0
   -0.2405    1.7331    4.3115 H   0  0  0  0  0  0  0  0  0  0  0  0
   -1.7291    2.8890    5.9027 H   0  0  0  0  0  0  0  0  0  0  0  0
   -0.1554    2.5318    6.6230 H   0  0  0  0  0  0  0  0  0  0  0  0
   -0.5419    4.1765    6.1071 H   0  0  0  0  0  0  0  0  0  0  0  0
   -1.2218    9.0597    4.7570 H   0  0  0  0  0  0  0  0  0  0  0  0
    2.8173   12.2713    6.1022 H   0  0  0  0  0  0  0  0  0  0  0  0
    4.7093    9.3026    2.5702 H   0  0  0  0  0  0  0  0  0  0  0  0
  1  2  2  0  0  0  0
  2  3  1  0  0  0  0
  3  4  2  0  0  0  0
  3  5  1  0  0  0  0
  5  6  2  0  0  0  0
  6  7  1  0  0  0  0
  7  8  2  0  0  0  0
  8  9  1  0  0  0  0
  9 10  2  0  0  0  0
 10 11  1  0  0  0  0
 11 12  2  0  0  0  0
 12 13  1  0  0  0  0
 13 14  3  0  0  0  0
 12 15  1  0  0  0  0
 15 16  3  0  0  0  0
  8 17  1  0  0  0  0
 17 18  1  0  0  0  0
 18 19  1  0  0  0  0
 19 20  2  0  0  0  0
 20 21  1  0  0  0  0
 21 22  1  0  0  0  0
 21 23  1  0  0  0  0
  1 24  1  0  0  0  0
 24 25  1  0  0  0  0
 25 26  1  0  0  0  0
 26 27  1  0  0  0  0
 27 28  1  0  0  0  0
 28 29  1  0  0  0  0
 29 30  1  0  0  0  0
 30 31  1  0  0  0  0
 31 32  1  0  0  0  0
 32 33  2  0  0  0  0
 33 34  1  0  0  0  0
 34 35  1  0  0  0  0
 32 36  1  0  0  0  0
 36 37  1  0  0  0  0
 37 38  1  0  0  0  0
 38 39  1  0  0  0  0
 39 40  2  0  0  0  0
 40 41  1  0  0  0  0
 41 42  1  0  0  0  0
 40 43  1  0  0  0  0
 43 44  1  0  0  0  0
 44 45  1  0  0  0  0
 45 46  1  0  0  0  0
 46 47  1  0  0  0  0
 47 48  1  0  0  0  0
 48 49  1  0  0  0  0
 49 50  1  0  0  0  0
 50 51  1  0  0  0  0
 51 52  1  0  0  0  0
 50 53  1  0  0  0  0
 53 54  1  0  0  0  0
 47 55  1  0  0  0  0
 55 56  1  0  0  0  0
 44 57  1  0  0  0  0
 57 58  1  0  0  0  0
 39 59  1  0  0  0  0
 59 60  2  0  0  0  0
 60 61  1  0  0  0  0
 61 62  2  0  0  0  0
 61 63  1  0  0  0  0
 63 64  2  0  0  0  0
 64 65  1  0  0  0  0
 65 66  1  0  0  0  0
 65 67  2  0  0  0  0
 67 68  1  0  0  0  0
 67 69  1  0  0  0  0
 69 70  2  0  0  0  0
 70 71  1  0  0  0  0
 71 72  2  0  0  0  0
 72 73  1  0  0  0  0
 73 74  3  0  0  0  0
 72 75  1  0  0  0  0
 75 76  3  0  0  0  0
 11  2  1  0  0  0  0
 23 17  1  0  0  0  0
 52 24  2  0  0  0  0
 71 60  1  0  0  0  0
 10  5  1  0  0  0  0
 22 18  1  0  0  0  0
 51 26  2  0  0  0  0
 70 63  1  0  0  0  0
 23  7  1  0  0  0  0
 49 27  2  0  0  0  0
 48 29  2  0  0  0  0
 46 30  2  0  0  0  0
 35 31  2  0  0  0  0
 45 36  2  0  0  0  0
 43 37  2  0  0  0  0
  1 77  1  0  0  0  0
  6 78  1  0  0  0  0
  9 79  1  0  0  0  0
 17 80  1  0  0  0  0
 18 81  1  0  0  0  0
 19 82  1  0  0  0  0
 20 83  1  0  0  0  0
 21 84  1  0  0  0  0
 22 85  1  0  0  0  0
 22 86  1  0  0  0  0
 23 87  1  0  0  0  0
 41 88  1  0  0  0  0
 41 89  1  0  0  0  0
 42 90  1  0  0  0  0
 42 91  1  0  0  0  0
 42 92  1  0  0  0  0
 52 93  1  0  0  0  0
 53 94  1  0  0  0  0
 53 95  1  0  0  0  0
 54 96  1  0  0  0  0
 54 97  1  0  0  0  0
 54 98  1  0  0  0  0
 55 99  1  0  0  0  0
 55100  1  0  0  0  0
 56101  1  0  0  0  0
 56102  1  0  0  0  0
 56103  1  0  0  0  0
 57104  1  0  0  0  0
 57105  1  0  0  0  0
 58106  1  0  0  0  0
 58107  1  0  0  0  0
 58108  1  0  0  0  0
 59109  1  0  0  0  0
 64110  1  0  0  0  0
 69111  1  0  0  0  0
M  END
