157

C          5.46370       -1.28420       -4.11750
C          6.78830       -1.47360       -3.80610
C          7.34420       -1.71700       -2.47270
O          6.73520       -1.82280       -1.42130
C          8.80450       -1.81000       -2.64150
C          9.75240       -2.01650       -1.64200
C         11.04840       -2.04250       -2.09850
C         11.37610       -1.88040       -3.45080
C         10.44970       -1.68220       -4.44720
C          9.12420       -1.64670       -4.00410
C          7.88410       -1.44170       -4.75280
C          7.80640       -1.24300       -6.10950
C          6.62590       -1.02460       -6.84800
N          5.71730       -0.82780       -7.52500
C          8.91510       -1.22220       -6.98070
N          9.76290       -1.19680       -7.75500
C         12.85680       -2.00230       -3.18990
C         13.66570       -0.68780       -3.18990
C         14.93520       -1.04480       -2.45100
C         14.62620       -1.20000       -1.17000
C         13.14270       -0.95020       -1.02150
C         12.94630        0.12060       -2.10240
C         12.49150       -2.18420       -1.68160
C          4.32190       -1.25160       -3.31140
S          4.31420       -1.50520       -1.56900
C          2.62430       -1.28020       -1.55970
C          1.60490       -1.17190       -0.58610
C          0.41520       -0.82380       -1.19790
C          0.55900       -0.89150       -2.71130
C          2.06870       -1.03600       -2.82550
C          3.02600       -1.00090       -3.82560
C          2.74380       -0.71440       -5.26100
C         -0.15060       -2.20060       -3.04880
C         -1.53940       -2.25590       -3.02010
C         -2.20560       -3.44300       -3.25110
C         -1.50750       -4.61570       -3.50880
C         -2.23400       -5.89470       -3.80700
C         -2.52910       -6.00370       -5.30440
C         -0.12130       -4.55990       -3.53020
C          0.55060       -3.37380       -3.29580
C          0.02500        0.34170       -3.41480
C          0.15640        1.54650       -2.72530
C         -0.30440        2.73780       -3.24280
C         -0.91570        2.76440       -4.48930
C         -1.40070        4.05460       -5.08310
C         -0.25460        4.78430       -5.78570
C         -1.00950        1.57490       -5.19020
C         -0.54600        0.36010       -4.69030
C         -0.70480       -0.83730       -5.58520
C         -0.61050       -0.52730       -0.27320
C         -1.88330        0.01060       -0.47750
C         -2.66390        0.28090        0.62100
S         -4.26100        1.00530        0.56290
C         -4.32560        0.97420        2.29180
C         -5.24240        1.38230        3.28810
C         -4.69810        1.06270        4.54460
C         -3.34270        0.40410        4.39260
C         -2.31630        1.22520        5.14610
C         -2.28020        1.15170        6.53420
C         -1.37770        1.90910        7.25400
C         -0.49110        2.76410        6.61010
C          0.52520        3.54490        7.39180
C          1.79930        2.71930        7.58370
C         -0.53820        2.84060        5.22560
C         -1.44350        2.08690        4.49920
C         -3.34990       -1.05620        4.82120
C         -4.50380       -1.81730        4.68780
C         -4.50590       -3.15580        5.03150
C         -3.35680       -3.77250        5.50870
C         -3.35090       -5.23640        5.84110
C         -2.99590       -6.06370        4.60390
C         -2.20170       -3.01120        5.62440
C         -2.19480       -1.67130        5.28420
C         -3.19940        0.43310        2.88750
C         -2.22370        0.02590        1.95400
C         -0.94180       -0.48610        2.16280
C         -0.15440       -0.73590        1.06460
S          1.51910       -1.25560        1.13890
C         -5.51570        1.45070        5.57720
C         -6.69580        2.07200        5.13270
S         -6.76200        2.15730        3.37520
C         -7.65320        2.55370        6.03030
C         -8.84430        3.20380        5.80710
C         -9.39790        3.54660        4.49380
O         -8.92180        3.30360        3.39850
C        -10.66570        4.25130        4.75590
C        -11.56510        4.78630        3.85420
C        -12.70020        5.41270        4.34380
C        -12.90850        5.48870        5.71580
Cl       -14.32520        6.27100        6.30670
C        -12.00960        4.95300        6.63420
C        -10.87640        4.32810        6.14340
C         -9.75560        3.67700        6.82730
C         -9.62860        3.55530        8.18740
C        -10.56880        4.04380        9.11920
N        -11.28660        4.41450        9.93470
C         -8.56060        2.93240        8.86620
N         -7.73520        2.44480        9.49980
H          5.25180       -1.12820       -5.16590
H          9.45380       -2.14000       -0.61270
H         10.72150       -1.56350       -5.48240
H         13.36520       -2.81500       -3.70510
H         13.78060       -0.22440       -4.16590
H         15.88500       -1.19720       -2.92920
H         15.26640       -1.50830       -0.36420
H         12.78230       -0.72490       -0.02130
H         13.46840        1.04600       -1.86460
H         11.90390        0.33840       -2.32730
H         12.75570       -3.11910       -1.19080
H          1.84430       -0.11250       -5.34140
H          3.55850       -0.17570       -5.73760
H          2.59110       -1.64320       -5.81170
H         -2.10740       -1.35940       -2.83080
H         -3.28600       -3.45960       -3.22540
H         -3.17370       -5.92460       -3.25190
H         -1.62620       -6.74700       -3.49720
H         -1.60320       -5.98590       -5.87480
H         -3.05360       -6.93100       -5.52230
H         -3.14720       -5.17010       -5.63020
H          0.44600       -5.45820       -3.72760
H          1.62990       -3.37070       -3.31520
H          0.63030        1.54380       -1.75430
H         -0.19420        3.64960       -2.67440
H         -2.19660        3.85570       -5.80330
H         -1.80430        4.69350       -4.29490
H          0.15470        4.16780       -6.58260
H         -0.60600        5.71940       -6.21530
H          0.54320        5.00400       -5.08020
H         -1.46150        1.58280       -6.17280
H         -0.56820       -0.53620       -6.62270
H         -0.00010       -1.62850       -5.35650
H         -1.71010       -1.24800       -5.48900
H         -2.22660        0.25440       -1.46940
H         -2.95530        0.48510        7.05070
H         -1.36210        1.83780        8.33200
H          0.77070        4.46780        6.86290
H          0.11700        3.80850        8.36940
H          2.53620        3.28330        8.15040
H          2.22890        2.45660        6.61950
H          1.57720        1.80000        8.12110
H          0.13950        3.50150        4.70420
H         -1.46290        2.17310        3.42300
H         -5.41000       -1.36130        4.31640
H         -5.41610       -3.72930        4.92940
H         -4.33550       -5.53730        6.20460
H         -2.62050       -5.43450        6.62800
H         -2.01160       -5.78660        4.23290
H         -3.72040       -5.88970        3.81150
H         -2.99120       -7.12420        4.84420
H         -1.29410       -3.47070        5.98900
H         -1.28570       -1.09890        5.39720
H         -0.57540       -0.64920        3.16260
H         -5.30940        1.31530        6.62370
H         -7.38240        2.38220        7.06510
H        -11.37770        4.71370        2.79420
H        -13.42480        5.84280        3.67070
H        -12.21150        5.03580        7.68910
