113

C         -4.14260       -5.03900       -3.02450
C         -5.32420       -5.28330       -2.38790
C         -5.53810       -5.07840       -0.93340
O         -4.70080       -4.91370       -0.07150
C         -7.00060       -4.99540       -0.76220
C         -7.68250       -4.71660        0.42060
C         -9.04870       -4.67420        0.28130
C         -9.69310       -4.88560       -0.94540
C         -9.03320       -5.15650       -2.12060
C         -7.64090       -5.20920       -1.99970
C         -6.62030       -5.44930       -3.01370
C         -6.83300       -5.84430       -4.30820
C         -5.79630       -6.15960       -5.21190
N         -4.99810       -6.45170       -5.98380
C         -8.10490       -6.02830       -4.88710
N         -9.11250       -6.18890       -5.41350
C        -11.06480       -4.68940       -0.34880
C        -11.89170       -5.96570       -0.08590
C        -12.93610       -5.52020        0.91220
C        -12.32590       -5.32140        2.07350
C        -10.85850       -5.62890        1.87990
C        -10.95930       -6.75470        0.84260
C        -10.34590       -4.45520        1.01860
C         -2.88510       -4.93360       -2.38060
C         -2.33810       -5.67670       -1.34720
C         -2.90260       -6.95000       -0.81350
C         -1.92450       -8.11150       -0.99000
C         -1.10840       -5.13810       -0.93770
S         -0.03070       -5.53410        0.38140
C          0.91220       -4.13560        0.00540
C          1.96070       -3.38630        0.56060
C          2.64410       -3.50370        1.79240
C          3.43990       -2.39990        2.25420
N          3.93540       -2.60670        3.46380
S          3.45470       -4.06510        3.97460
N          2.58750       -4.48770        2.67540
C          3.62820       -1.28810        1.40300
C          4.32650       -0.07930        1.56360
S          5.15600        0.79440        2.80450
C          5.38100        2.11370        1.68590
C          5.91080        3.40320        1.78490
S          6.55720        4.37510        3.04270
C          6.74640        5.73430        1.92830
C          6.29600        5.43690        0.64480
C          6.12870        6.39650       -0.48870
C          6.91370        5.96580       -1.72800
C          5.82410        4.12180        0.58560
S          5.06270        3.20010       -0.68380
C          4.86190        1.86100        0.40810
C          4.24760        0.60770        0.34620
N          3.51950       -0.12220       -0.56050
C          3.08800       -1.26760        0.08890
C          2.13580       -2.24930       -0.27680
N          1.20060       -2.29790       -1.29180
C          0.45110       -3.43010       -1.11280
C         -0.70760       -4.00080       -1.64990
S         -1.82370       -3.62750       -2.90950
C          0.74210       -1.25520       -2.18260
C          1.00780       -1.59570       -3.64830
C          3.76430        0.03790       -1.97880
C          5.23980       -0.17630       -2.31540
C          7.15150        6.96290        2.49310
C          7.91100        7.93390        1.89790
C          8.88810        7.67660        0.81570
O          9.08440        6.63820        0.22220
C          9.68870        8.91560        0.71350
C         10.75320        9.18930       -0.12390
C         11.37060       10.42660       -0.02770
C         10.91710       11.34970        0.90530
Br        11.78930       13.03370        1.02630
C          9.85110       11.08980        1.75840
C          9.23230        9.85580        1.65410
C          8.10330        9.28080        2.38290
C          7.29700        9.93740        3.27560
C          7.49720       11.26950        3.69170
N          7.61900       12.34780        4.06560
C          6.13570        9.37730        3.84920
N          5.16310        8.99200        4.32220
H         -4.15590       -4.80290       -4.08260
H         -7.14710       -4.55150        1.34240
H         -9.53860       -5.30180       -3.06100
H        -11.65500       -3.87940       -0.77290
H        -12.25100       -6.46720       -0.98020
H        -13.96710       -5.34770        0.66490
H        -12.74490       -4.94970        2.99010
H        -10.27670       -5.82370        2.77690
H        -11.43810       -7.64490        1.24680
H        -10.00800       -7.02710        0.38930
H        -10.45640       -3.48870        1.50700
H         -3.12620       -6.81180        0.24700
H         -3.83580       -7.18010       -1.32860
H         -1.68300       -8.24630       -2.04230
H         -2.37440       -9.02870       -0.61920
H         -1.00400       -7.93370       -0.44060
H          6.43880        7.39460       -0.17980
H          5.06290        6.43320       -0.73900
H          6.77720        6.69560       -2.52200
H          6.56880        4.99780       -2.08320
H          7.97120        5.89620       -1.49110
H          1.20520       -0.31140       -1.89520
H         -0.33990       -1.15130       -2.04240
H          2.05690       -1.82110       -3.82690
H          0.42370       -2.46370       -3.94170
H          0.71770       -0.75880       -4.27690
H          3.17960       -0.69820       -2.52100
H          3.45790        1.04550       -2.27820
H          5.38040       -0.10450       -3.39040
H          5.86450        0.57230       -1.83670
H          5.56180       -1.16170       -1.98520
H          6.84580        7.11490        3.52240
H         11.08850        8.45160       -0.83620
H         12.20160       10.67750       -0.66850
H          9.53580       11.83130        2.47450
