
  xtb     02112206323D
 energy: -203.937629408329 gnorm: 0.000421510574 xtb: 6.4.1 (unknown)
113128  0     0  0            999 V2000
    1.5277    4.2118   -5.9385 C   0  0  0  0  0  0  0  0  0  0  0  0
    0.4413    5.0448   -6.0381 C   0  0  0  0  0  0  0  0  0  0  0  0
   -0.7689    4.9969   -5.2138 C   0  0  0  0  0  0  0  0  0  0  0  0
   -1.0435    4.1889   -4.3410 O   0  0  0  0  0  0  0  0  0  0  0  0
   -1.6062    6.1310   -5.6362 C   0  0  0  0  0  0  0  0  0  0  0  0
   -2.8413    6.5019   -5.1107 C   0  0  0  0  0  0  0  0  0  0  0  0
   -3.3832    7.6216   -5.6944 C   0  0  0  0  0  0  0  0  0  0  0  0
   -2.7409    8.3225   -6.7234 C   0  0  0  0  0  0  0  0  0  0  0  0
   -1.5216    7.9667   -7.2501 C   0  0  0  0  0  0  0  0  0  0  0  0
   -0.9539    6.8272   -6.6736 C   0  0  0  0  0  0  0  0  0  0  0  0
    0.3154    6.1580   -6.9583 C   0  0  0  0  0  0  0  0  0  0  0  0
    1.2067    6.5363   -7.9307 C   0  0  0  0  0  0  0  0  0  0  0  0
    1.0262    7.6341   -8.7979 C   0  0  0  0  0  0  0  0  0  0  0  0
    0.9541    8.5085   -9.5388 N   0  0  0  0  0  0  0  0  0  0  0  0
    2.4286    5.8977   -8.2266 C   0  0  0  0  0  0  0  0  0  0  0  0
    3.4373    5.4402   -8.5347 N   0  0  0  0  0  0  0  0  0  0  0  0
   -3.8510    9.3372   -6.8336 C   0  0  0  0  0  0  0  0  0  0  0  0
   -4.8418    9.1974   -8.0154 C   0  0  0  0  0  0  0  0  0  0  0  0
   -4.8569    7.7368   -8.3924 C   0  0  0  0  0  0  0  0  0  0  0  0
   -5.4662    7.0735   -7.4188 C   0  0  0  0  0  0  0  0  0  0  0  0
   -5.8735    8.0736   -6.3651 C   0  0  0  0  0  0  0  0  0  0  0  0
   -6.1720    9.2936   -7.2512 C   0  0  0  0  0  0  0  0  0  0  0  0
   -4.5672    8.5559   -5.6870 C   0  0  0  0  0  0  0  0  0  0  0  0
    1.7907    3.1469   -5.0694 C   0  0  0  0  0  0  0  0  0  0  0  0
    3.0020    2.4340   -5.0758 C   0  0  0  0  0  0  0  0  0  0  0  0
    4.1323    2.6373   -6.0310 C   0  0  0  0  0  0  0  0  0  0  0  0
    3.8833    1.8803   -7.3382 C   0  0  0  0  0  0  0  0  0  0  0  0
    3.0201    1.4578   -4.0878 C   0  0  0  0  0  0  0  0  0  0  0  0
    4.2484    0.3121   -3.5788 S   0  0  0  0  0  0  0  0  0  0  0  0
    3.1837   -0.2246   -2.3256 C   0  0  0  0  0  0  0  0  0  0  0  0
    3.1879   -1.0994   -1.2297 C   0  0  0  0  0  0  0  0  0  0  0  0
    4.2249   -1.8738   -0.6630 C   0  0  0  0  0  0  0  0  0  0  0  0
    3.9936   -2.5306    0.5912 C   0  0  0  0  0  0  0  0  0  0  0  0
    5.0703   -3.1553    1.0413 N   0  0  0  0  0  0  0  0  0  0  0  0
    6.2704   -2.9409   -0.0235 S   0  0  0  0  0  0  0  0  0  0  0  0
    5.4632   -2.0410   -1.0995 N   0  0  0  0  0  0  0  0  0  0  0  0
    2.6959   -2.4990    1.1482 C   0  0  0  0  0  0  0  0  0  0  0  0
    2.1521   -3.1515    2.2642 C   0  0  0  0  0  0  0  0  0  0  0  0
    2.6744   -4.1564    3.5713 S   0  0  0  0  0  0  0  0  0  0  0  0
    1.0182   -4.2711    4.1039 C   0  0  0  0  0  0  0  0  0  0  0  0
    0.3765   -4.9030    5.1720 C   0  0  0  0  0  0  0  0  0  0  0  0
    0.8645   -5.8392    6.5282 S   0  0  0  0  0  0  0  0  0  0  0  0
   -0.8114   -5.9573    7.0768 C   0  0  0  0  0  0  0  0  0  0  0  0
   -1.6939   -5.3159    6.2181 C   0  0  0  0  0  0  0  0  0  0  0  0
   -3.1773   -5.2601    6.3818 C   0  0  0  0  0  0  0  0  0  0  0  0
   -3.8455   -6.3884    5.5913 C   0  0  0  0  0  0  0  0  0  0  0  0
   -1.0088   -4.7082    5.1641 C   0  0  0  0  0  0  0  0  0  0  0  0
   -1.5336   -3.7200    3.8320 S   0  0  0  0  0  0  0  0  0  0  0  0
    0.1145   -3.5670    3.2938 C   0  0  0  0  0  0  0  0  0  0  0  0
    0.7735   -2.9074    2.2509 C   0  0  0  0  0  0  0  0  0  0  0  0
    0.4544   -2.1036    1.1895 N   0  0  0  0  0  0  0  0  0  0  0  0
    1.6234   -1.8133    0.5102 C   0  0  0  0  0  0  0  0  0  0  0  0
    1.9073   -0.9928   -0.6121 C   0  0  0  0  0  0  0  0  0  0  0  0
    1.1632   -0.0488   -1.3001 N   0  0  0  0  0  0  0  0  0  0  0  0
    1.9439    0.4242   -2.3233 C   0  0  0  0  0  0  0  0  0  0  0  0
    1.8448    1.3981   -3.3206 C   0  0  0  0  0  0  0  0  0  0  0  0
    0.6841    2.5680   -3.8227 S   0  0  0  0  0  0  0  0  0  0  0  0
    0.0836    0.7908   -0.8246 C   0  0  0  0  0  0  0  0  0  0  0  0
    0.5716    1.7281    0.2777 C   0  0  0  0  0  0  0  0  0  0  0  0
   -0.9216   -1.9760    0.7657 C   0  0  0  0  0  0  0  0  0  0  0  0
   -1.6989   -0.9697    1.6131 C   0  0  0  0  0  0  0  0  0  0  0  0
   -1.1481   -6.6966    8.2335 C   0  0  0  0  0  0  0  0  0  0  0  0
   -0.3639   -6.9845    9.3091 C   0  0  0  0  0  0  0  0  0  0  0  0
   -0.7015   -8.1289   10.1959 C   0  0  0  0  0  0  0  0  0  0  0  0
   -1.7369   -8.7553   10.2092 O   0  0  0  0  0  0  0  0  0  0  0  0
    0.5138   -8.3583   11.0040 C   0  0  0  0  0  0  0  0  0  0  0  0
    0.7832   -9.3659   11.9112 C   0  0  0  0  0  0  0  0  0  0  0  0
    2.0190   -9.3822   12.5380 C   0  0  0  0  0  0  0  0  0  0  0  0
    2.9593   -8.4001   12.2452 C   0  0  0  0  0  0  0  0  0  0  0  0
    4.4937   -8.4494   13.0255 Cl  0  0  0  0  0  0  0  0  0  0  0  0
    2.7002   -7.3746   11.3409 C   0  0  0  0  0  0  0  0  0  0  0  0
    1.4632   -7.3582   10.7220 C   0  0  0  0  0  0  0  0  0  0  0  0
    0.8749   -6.4061    9.7806 C   0  0  0  0  0  0  0  0  0  0  0  0
    1.2682   -5.1032    9.6228 C   0  0  0  0  0  0  0  0  0  0  0  0
    2.4377   -4.5581   10.1897 C   0  0  0  0  0  0  0  0  0  0  0  0
    3.3838   -4.0682   10.6160 N   0  0  0  0  0  0  0  0  0  0  0  0
    0.4827   -4.1365    8.9605 C   0  0  0  0  0  0  0  0  0  0  0  0
   -0.1611   -3.3148    8.4824 N   0  0  0  0  0  0  0  0  0  0  0  0
    2.3382    4.4082   -6.6267 H   0  0  0  0  0  0  0  0  0  0  0  0
   -3.2971    5.9352   -4.3137 H   0  0  0  0  0  0  0  0  0  0  0  0
   -1.0415    8.5217   -8.0383 H   0  0  0  0  0  0  0  0  0  0  0  0
   -3.5707   10.3721   -6.6478 H   0  0  0  0  0  0  0  0  0  0  0  0
   -4.6777    9.9008   -8.8272 H   0  0  0  0  0  0  0  0  0  0  0  0
   -4.3867    7.3413   -9.2736 H   0  0  0  0  0  0  0  0  0  0  0  0
   -5.6069    6.0126   -7.3238 H   0  0  0  0  0  0  0  0  0  0  0  0
   -6.6497    7.7547   -5.6744 H   0  0  0  0  0  0  0  0  0  0  0  0
   -6.2839   10.2204   -6.6900 H   0  0  0  0  0  0  0  0  0  0  0  0
   -7.0386    9.1457   -7.8937 H   0  0  0  0  0  0  0  0  0  0  0  0
   -4.7542    9.0811   -4.7522 H   0  0  0  0  0  0  0  0  0  0  0  0
    4.2774    3.6963   -6.2494 H   0  0  0  0  0  0  0  0  0  0  0  0
    5.0438    2.2561   -5.5660 H   0  0  0  0  0  0  0  0  0  0  0  0
    2.9758    2.2348   -7.8211 H   0  0  0  0  0  0  0  0  0  0  0  0
    4.7166    2.0359   -8.0173 H   0  0  0  0  0  0  0  0  0  0  0  0
    3.7823    0.8148   -7.1451 H   0  0  0  0  0  0  0  0  0  0  0  0
   -3.5332   -4.2982    6.0067 H   0  0  0  0  0  0  0  0  0  0  0  0
   -3.4418   -5.3358    7.4361 H   0  0  0  0  0  0  0  0  0  0  0  0
   -3.5071   -7.3586    5.9476 H   0  0  0  0  0  0  0  0  0  0  0  0
   -3.6041   -6.3059    4.5340 H   0  0  0  0  0  0  0  0  0  0  0  0
   -4.9247   -6.3340    5.7055 H   0  0  0  0  0  0  0  0  0  0  0  0
   -0.2574    1.3778   -1.6808 H   0  0  0  0  0  0  0  0  0  0  0  0
   -0.7542    0.1961   -0.4745 H   0  0  0  0  0  0  0  0  0  0  0  0
    1.3756    2.3583   -0.0953 H   0  0  0  0  0  0  0  0  0  0  0  0
    0.9467    1.1611    1.1278 H   0  0  0  0  0  0  0  0  0  0  0  0
   -0.2423    2.3673    0.6082 H   0  0  0  0  0  0  0  0  0  0  0  0
   -1.3928   -2.9597    0.8738 H   0  0  0  0  0  0  0  0  0  0  0  0
   -0.9380   -1.7226   -0.2951 H   0  0  0  0  0  0  0  0  0  0  0  0
   -1.8021   -1.3394    2.6294 H   0  0  0  0  0  0  0  0  0  0  0  0
   -1.1949   -0.0086    1.6544 H   0  0  0  0  0  0  0  0  0  0  0  0
   -2.6935   -0.8310    1.1982 H   0  0  0  0  0  0  0  0  0  0  0  0
   -2.1287   -7.1622    8.2387 H   0  0  0  0  0  0  0  0  0  0  0  0
    0.0395  -10.1185   12.1221 H   0  0  0  0  0  0  0  0  0  0  0  0
    2.2614  -10.1527   13.2527 H   0  0  0  0  0  0  0  0  0  0  0  0
    3.4534   -6.6318   11.1341 H   0  0  0  0  0  0  0  0  0  0  0  0
  1  2  2  0  0  0  0
  2  3  1  0  0  0  0
  3  4  2  0  0  0  0
  3  5  1  0  0  0  0
  5  6  2  0  0  0  0
  6  7  1  0  0  0  0
  7  8  2  0  0  0  0
  8  9  1  0  0  0  0
  9 10  2  0  0  0  0
 10 11  1  0  0  0  0
 11 12  2  0  0  0  0
 12 13  1  0  0  0  0
 13 14  3  0  0  0  0
 12 15  1  0  0  0  0
 15 16  3  0  0  0  0
  8 17  1  0  0  0  0
 17 18  1  0  0  0  0
 18 19  1  0  0  0  0
 19 20  2  0  0  0  0
 20 21  1  0  0  0  0
 21 22  1  0  0  0  0
 21 23  1  0  0  0  0
  1 24  1  0  0  0  0
 24 25  2  0  0  0  0
 25 26  1  0  0  0  0
 26 27  1  0  0  0  0
 25 28  1  0  0  0  0
 28 29  1  0  0  0  0
 29 30  1  0  0  0  0
 30 31  1  0  0  0  0
 31 32  1  0  0  0  0
 32 33  1  0  0  0  0
 33 34  2  0  0  0  0
 34 35  1  0  0  0  0
 35 36  1  0  0  0  0
 33 37  1  0  0  0  0
 37 38  1  0  0  0  0
 38 39  1  0  0  0  0
 39 40  1  0  0  0  0
 40 41  1  0  0  0  0
 41 42  1  0  0  0  0
 42 43  1  0  0  0  0
 43 44  2  0  0  0  0
 44 45  1  0  0  0  0
 45 46  1  0  0  0  0
 44 47  1  0  0  0  0
 47 48  1  0  0  0  0
 48 49  1  0  0  0  0
 49 50  1  0  0  0  0
 50 51  1  0  0  0  0
 51 52  1  0  0  0  0
 52 53  1  0  0  0  0
 53 54  1  0  0  0  0
 54 55  1  0  0  0  0
 55 56  1  0  0  0  0
 56 57  1  0  0  0  0
 54 58  1  0  0  0  0
 58 59  1  0  0  0  0
 51 60  1  0  0  0  0
 60 61  1  0  0  0  0
 43 62  1  0  0  0  0
 62 63  2  0  0  0  0
 63 64  1  0  0  0  0
 64 65  2  0  0  0  0
 64 66  1  0  0  0  0
 66 67  2  0  0  0  0
 67 68  1  0  0  0  0
 68 69  2  0  0  0  0
 69 70  1  0  0  0  0
 69 71  1  0  0  0  0
 71 72  2  0  0  0  0
 72 73  1  0  0  0  0
 73 74  2  0  0  0  0
 74 75  1  0  0  0  0
 75 76  3  0  0  0  0
 74 77  1  0  0  0  0
 77 78  3  0  0  0  0
 11  2  1  0  0  0  0
 23 17  1  0  0  0  0
 57 24  1  0  0  0  0
 73 63  1  0  0  0  0
 10  5  1  0  0  0  0
 22 18  1  0  0  0  0
 56 28  2  0  0  0  0
 72 66  1  0  0  0  0
 23  7  1  0  0  0  0
 55 30  2  0  0  0  0
 53 31  2  0  0  0  0
 36 32  2  0  0  0  0
 52 37  2  0  0  0  0
 50 38  2  0  0  0  0
 49 40  2  0  0  0  0
 47 41  2  0  0  0  0
  1 79  1  0  0  0  0
  6 80  1  0  0  0  0
  9 81  1  0  0  0  0
 17 82  1  0  0  0  0
 18 83  1  0  0  0  0
 19 84  1  0  0  0  0
 20 85  1  0  0  0  0
 21 86  1  0  0  0  0
 22 87  1  0  0  0  0
 22 88  1  0  0  0  0
 23 89  1  0  0  0  0
 26 90  1  0  0  0  0
 26 91  1  0  0  0  0
 27 92  1  0  0  0  0
 27 93  1  0  0  0  0
 27 94  1  0  0  0  0
 45 95  1  0  0  0  0
 45 96  1  0  0  0  0
 46 97  1  0  0  0  0
 46 98  1  0  0  0  0
 46 99  1  0  0  0  0
 58100  1  0  0  0  0
 58101  1  0  0  0  0
 59102  1  0  0  0  0
 59103  1  0  0  0  0
 59104  1  0  0  0  0
 60105  1  0  0  0  0
 60106  1  0  0  0  0
 61107  1  0  0  0  0
 61108  1  0  0  0  0
 61109  1  0  0  0  0
 62110  1  0  0  0  0
 67111  1  0  0  0  0
 68112  1  0  0  0  0
 71113  1  0  0  0  0
M  END
