
  xtb     02112206033D
 energy: -213.337882686588 gnorm: 0.000733456668 xtb: 6.4.1 (unknown)
119134  0     0  0            999 V2000
    6.2099   -3.8088   -4.4542 C   0  0  0  0  0  0  0  0  0  0  0  0
    5.4858   -4.8313   -5.0147 C   0  0  0  0  0  0  0  0  0  0  0  0
    4.0400   -5.0356   -4.9000 C   0  0  0  0  0  0  0  0  0  0  0  0
    3.2314   -4.3268   -4.3219 O   0  0  0  0  0  0  0  0  0  0  0  0
    3.7359   -6.2785   -5.6275 C   0  0  0  0  0  0  0  0  0  0  0  0
    2.4867   -6.8758   -5.7814 C   0  0  0  0  0  0  0  0  0  0  0  0
    2.5098   -8.0372   -6.5156 C   0  0  0  0  0  0  0  0  0  0  0  0
    3.6885   -8.5630   -7.0607 C   0  0  0  0  0  0  0  0  0  0  0  0
    4.9263   -7.9813   -6.9194 C   0  0  0  0  0  0  0  0  0  0  0  0
    4.9271   -6.8000   -6.1714 C   0  0  0  0  0  0  0  0  0  0  0  0
    6.0325   -5.9121   -5.8110 C   0  0  0  0  0  0  0  0  0  0  0  0
    7.3415   -6.0893   -6.1835 C   0  0  0  0  0  0  0  0  0  0  0  0
    8.4166   -5.2373   -5.8570 C   0  0  0  0  0  0  0  0  0  0  0  0
    9.3469   -4.5980   -5.6392 N   0  0  0  0  0  0  0  0  0  0  0  0
    7.8124   -7.1655   -6.9643 C   0  0  0  0  0  0  0  0  0  0  0  0
    8.2717   -8.0086   -7.5944 N   0  0  0  0  0  0  0  0  0  0  0  0
    2.9754   -9.7452   -7.6686 C   0  0  0  0  0  0  0  0  0  0  0  0
    3.1226  -11.0932   -6.9315 C   0  0  0  0  0  0  0  0  0  0  0  0
    1.9681  -11.9180   -7.4529 C   0  0  0  0  0  0  0  0  0  0  0  0
    0.8514  -11.4208   -6.9366 C   0  0  0  0  0  0  0  0  0  0  0  0
    1.2324  -10.2515   -6.0572 C   0  0  0  0  0  0  0  0  0  0  0  0
    2.5885  -10.7445   -5.5360 C   0  0  0  0  0  0  0  0  0  0  0  0
    1.6608   -9.1591   -7.0602 C   0  0  0  0  0  0  0  0  0  0  0  0
    5.8077   -2.7188   -3.6747 C   0  0  0  0  0  0  0  0  0  0  0  0
    6.7108   -1.7756   -3.1552 C   0  0  0  0  0  0  0  0  0  0  0  0
    8.1968   -1.8164   -3.3017 C   0  0  0  0  0  0  0  0  0  0  0  0
    8.8209   -2.7477   -2.2586 C   0  0  0  0  0  0  0  0  0  0  0  0
    6.0549   -0.8010   -2.4143 C   0  0  0  0  0  0  0  0  0  0  0  0
    6.6346    0.5942   -1.5217 S   0  0  0  0  0  0  0  0  0  0  0  0
    5.0003    0.9512   -1.0816 C   0  0  0  0  0  0  0  0  0  0  0  0
    4.2874    1.8722   -0.3030 C   0  0  0  0  0  0  0  0  0  0  0  0
    4.7349    2.9081    0.5467 C   0  0  0  0  0  0  0  0  0  0  0  0
    3.7770    3.6003    1.3580 C   0  0  0  0  0  0  0  0  0  0  0  0
    4.3396    4.5000    2.1493 N   0  0  0  0  0  0  0  0  0  0  0  0
    5.9374    4.4823    1.8910 S   0  0  0  0  0  0  0  0  0  0  0  0
    5.9733    3.3232    0.7616 N   0  0  0  0  0  0  0  0  0  0  0  0
    2.4057    3.3023    1.1982 C   0  0  0  0  0  0  0  0  0  0  0  0
    1.2659    3.8756    1.7808 C   0  0  0  0  0  0  0  0  0  0  0  0
    0.8585    5.0492    2.9854 S   0  0  0  0  0  0  0  0  0  0  0  0
   -0.8300    4.7468    2.6662 C   0  0  0  0  0  0  0  0  0  0  0  0
   -2.0305    5.2279    3.1986 C   0  0  0  0  0  0  0  0  0  0  0  0
   -2.4756    6.3660    4.4038 S   0  0  0  0  0  0  0  0  0  0  0  0
   -4.1841    5.9868    4.1605 C   0  0  0  0  0  0  0  0  0  0  0  0
   -4.3867    5.0704    3.1336 C   0  0  0  0  0  0  0  0  0  0  0  0
   -5.7030    4.7165    2.5170 C   0  0  0  0  0  0  0  0  0  0  0  0
   -5.9499    3.2091    2.4686 C   0  0  0  0  0  0  0  0  0  0  0  0
   -3.1608    4.6481    2.6087 C   0  0  0  0  0  0  0  0  0  0  0  0
   -2.7394    3.5090    1.3598 S   0  0  0  0  0  0  0  0  0  0  0  0
   -1.0501    3.7938    1.6626 C   0  0  0  0  0  0  0  0  0  0  0  0
    0.1555    3.2877    1.1657 C   0  0  0  0  0  0  0  0  0  0  0  0
    0.5630    2.3553    0.2510 N   0  0  0  0  0  0  0  0  0  0  0  0
    1.9491    2.3287    0.2642 C   0  0  0  0  0  0  0  0  0  0  0  0
    2.9073    1.5256   -0.4091 C   0  0  0  0  0  0  0  0  0  0  0  0
    2.8032    0.4003   -1.2069 N   0  0  0  0  0  0  0  0  0  0  0  0
    4.0653    0.0498   -1.6040 C   0  0  0  0  0  0  0  0  0  0  0  0
    4.6603   -0.9623   -2.3628 C   0  0  0  0  0  0  0  0  0  0  0  0
    4.1388   -2.3570   -3.2309 S   0  0  0  0  0  0  0  0  0  0  0  0
    1.7256   -0.5544   -1.3449 C   0  0  0  0  0  0  0  0  0  0  0  0
    1.3147   -1.1345    0.0058 C   0  0  0  0  0  0  0  0  0  0  0  0
   -0.3646    1.8880   -0.7558 C   0  0  0  0  0  0  0  0  0  0  0  0
   -0.0200    2.4414   -2.1359 C   0  0  0  0  0  0  0  0  0  0  0  0
   -5.1145    6.6905    4.9598 C   0  0  0  0  0  0  0  0  0  0  0  0
   -6.2736    6.1778    5.4744 C   0  0  0  0  0  0  0  0  0  0  0  0
   -6.5084    4.7280    5.6830 C   0  0  0  0  0  0  0  0  0  0  0  0
   -5.7811    3.8082    5.3803 O   0  0  0  0  0  0  0  0  0  0  0  0
   -7.7512    4.6442    6.4795 C   0  0  0  0  0  0  0  0  0  0  0  0
   -8.4063    3.5202    6.9324 C   0  0  0  0  0  0  0  0  0  0  0  0
   -9.5731    3.6910    7.6794 C   0  0  0  0  0  0  0  0  0  0  0  0
  -10.2860    2.4722    8.1449 C   0  0  0  0  0  0  0  0  0  0  0  0
   -9.9494    1.3478    7.8689 O   0  0  0  0  0  0  0  0  0  0  0  0
  -11.3483    2.7573    8.9088 O   0  0  0  0  0  0  0  0  0  0  0  0
  -12.0811    1.6400    9.3900 C   0  0  0  0  0  0  0  0  0  0  0  0
  -10.0422    4.9723    7.9661 C   0  0  0  0  0  0  0  0  0  0  0  0
   -9.3774    6.1019    7.5130 C   0  0  0  0  0  0  0  0  0  0  0  0
   -8.2252    5.9394    6.7577 C   0  0  0  0  0  0  0  0  0  0  0  0
   -7.3323    6.9118    6.1302 C   0  0  0  0  0  0  0  0  0  0  0  0
   -7.5214    8.2695    6.0919 C   0  0  0  0  0  0  0  0  0  0  0  0
   -6.6966    9.1687    5.3837 C   0  0  0  0  0  0  0  0  0  0  0  0
   -6.0866    9.9488    4.8024 N   0  0  0  0  0  0  0  0  0  0  0  0
   -8.5839    8.9406    6.7307 C   0  0  0  0  0  0  0  0  0  0  0  0
   -9.4209    9.5418    7.2367 N   0  0  0  0  0  0  0  0  0  0  0  0
    7.2768   -3.8352   -4.6278 H   0  0  0  0  0  0  0  0  0  0  0  0
    1.6035   -6.4324   -5.3486 H   0  0  0  0  0  0  0  0  0  0  0  0
    5.8207   -8.3987   -7.3500 H   0  0  0  0  0  0  0  0  0  0  0  0
    3.0522   -9.8407   -8.7500 H   0  0  0  0  0  0  0  0  0  0  0  0
    4.1111  -11.5400   -6.9932 H   0  0  0  0  0  0  0  0  0  0  0  0
    2.0740  -12.7163   -8.1639 H   0  0  0  0  0  0  0  0  0  0  0  0
   -0.1619  -11.7208   -7.1300 H   0  0  0  0  0  0  0  0  0  0  0  0
    0.4983   -9.9328   -5.3218 H   0  0  0  0  0  0  0  0  0  0  0  0
    3.1678   -9.9835   -5.0162 H   0  0  0  0  0  0  0  0  0  0  0  0
    2.4905  -11.6239   -4.9015 H   0  0  0  0  0  0  0  0  0  0  0  0
    0.8602   -8.8643   -7.7363 H   0  0  0  0  0  0  0  0  0  0  0  0
    8.5816   -0.8057   -3.1517 H   0  0  0  0  0  0  0  0  0  0  0  0
    8.4847   -2.1471   -4.3007 H   0  0  0  0  0  0  0  0  0  0  0  0
    9.9011   -2.7561   -2.3725 H   0  0  0  0  0  0  0  0  0  0  0  0
    8.4538   -3.7641   -2.3808 H   0  0  0  0  0  0  0  0  0  0  0  0
    8.5771   -2.4083   -1.2545 H   0  0  0  0  0  0  0  0  0  0  0  0
   -5.7029    5.1086    1.4938 H   0  0  0  0  0  0  0  0  0  0  0  0
   -6.5083    5.2076    3.0633 H   0  0  0  0  0  0  0  0  0  0  0  0
   -5.2148    2.7175    1.8365 H   0  0  0  0  0  0  0  0  0  0  0  0
   -6.9398    3.0125    2.0647 H   0  0  0  0  0  0  0  0  0  0  0  0
   -5.8874    2.7894    3.4681 H   0  0  0  0  0  0  0  0  0  0  0  0
    0.8795   -0.1064   -1.8666 H   0  0  0  0  0  0  0  0  0  0  0  0
    2.1036   -1.3588   -1.9803 H   0  0  0  0  0  0  0  0  0  0  0  0
    2.1557   -1.6575    0.4548 H   0  0  0  0  0  0  0  0  0  0  0  0
    0.5012   -1.8421   -0.1288 H   0  0  0  0  0  0  0  0  0  0  0  0
    0.9947   -0.3548    0.6933 H   0  0  0  0  0  0  0  0  0  0  0  0
   -1.3520    2.2503   -0.4598 H   0  0  0  0  0  0  0  0  0  0  0  0
   -0.4132    0.7988   -0.7601 H   0  0  0  0  0  0  0  0  0  0  0  0
   -0.7292    2.0701   -2.8706 H   0  0  0  0  0  0  0  0  0  0  0  0
    0.9837    2.1526   -2.4382 H   0  0  0  0  0  0  0  0  0  0  0  0
   -0.0705    3.5278   -2.1240 H   0  0  0  0  0  0  0  0  0  0  0  0
   -4.8302    7.7027    5.2235 H   0  0  0  0  0  0  0  0  0  0  0  0
   -8.0400    2.5284    6.7157 H   0  0  0  0  0  0  0  0  0  0  0  0
  -11.4213    0.9582    9.9304 H   0  0  0  0  0  0  0  0  0  0  0  0
  -12.5369    1.0998    8.5575 H   0  0  0  0  0  0  0  0  0  0  0  0
  -12.8460    2.0394   10.0507 H   0  0  0  0  0  0  0  0  0  0  0  0
  -10.9417    5.0807    8.5515 H   0  0  0  0  0  0  0  0  0  0  0  0
   -9.7593    7.0807    7.7538 H   0  0  0  0  0  0  0  0  0  0  0  0
  1  2  2  0  0  0  0
  2  3  1  0  0  0  0
  3  4  2  0  0  0  0
  3  5  1  0  0  0  0
  5  6  2  0  0  0  0
  6  7  1  0  0  0  0
  7  8  2  0  0  0  0
  8  9  1  0  0  0  0
  9 10  2  0  0  0  0
 10 11  1  0  0  0  0
 11 12  2  0  0  0  0
 12 13  1  0  0  0  0
 13 14  3  0  0  0  0
 12 15  1  0  0  0  0
 15 16  3  0  0  0  0
  8 17  1  0  0  0  0
 17 18  1  0  0  0  0
 18 19  1  0  0  0  0
 19 20  2  0  0  0  0
 20 21  1  0  0  0  0
 21 22  1  0  0  0  0
 21 23  1  0  0  0  0
  1 24  1  0  0  0  0
 24 25  2  0  0  0  0
 25 26  1  0  0  0  0
 26 27  1  0  0  0  0
 25 28  1  0  0  0  0
 28 29  1  0  0  0  0
 29 30  1  0  0  0  0
 30 31  1  0  0  0  0
 31 32  1  0  0  0  0
 32 33  1  0  0  0  0
 33 34  2  0  0  0  0
 34 35  1  0  0  0  0
 35 36  1  0  0  0  0
 33 37  1  0  0  0  0
 37 38  1  0  0  0  0
 38 39  1  0  0  0  0
 39 40  1  0  0  0  0
 40 41  1  0  0  0  0
 41 42  1  0  0  0  0
 42 43  1  0  0  0  0
 43 44  2  0  0  0  0
 44 45  1  0  0  0  0
 45 46  1  0  0  0  0
 44 47  1  0  0  0  0
 47 48  1  0  0  0  0
 48 49  1  0  0  0  0
 49 50  1  0  0  0  0
 50 51  1  0  0  0  0
 51 52  1  0  0  0  0
 52 53  1  0  0  0  0
 53 54  1  0  0  0  0
 54 55  1  0  0  0  0
 55 56  1  0  0  0  0
 56 57  1  0  0  0  0
 54 58  1  0  0  0  0
 58 59  1  0  0  0  0
 51 60  1  0  0  0  0
 60 61  1  0  0  0  0
 43 62  1  0  0  0  0
 62 63  2  0  0  0  0
 63 64  1  0  0  0  0
 64 65  2  0  0  0  0
 64 66  1  0  0  0  0
 66 67  2  0  0  0  0
 67 68  1  0  0  0  0
 68 69  1  0  0  0  0
 69 70  2  0  0  0  0
 69 71  1  0  0  0  0
 71 72  1  0  0  0  0
 68 73  2  0  0  0  0
 73 74  1  0  0  0  0
 74 75  2  0  0  0  0
 75 76  1  0  0  0  0
 76 77  2  0  0  0  0
 77 78  1  0  0  0  0
 78 79  3  0  0  0  0
 77 80  1  0  0  0  0
 80 81  3  0  0  0  0
 11  2  1  0  0  0  0
 23 17  1  0  0  0  0
 57 24  1  0  0  0  0
 76 63  1  0  0  0  0
 10  5  1  0  0  0  0
 22 18  1  0  0  0  0
 56 28  2  0  0  0  0
 75 66  1  0  0  0  0
 23  7  1  0  0  0  0
 55 30  2  0  0  0  0
 53 31  2  0  0  0  0
 36 32  2  0  0  0  0
 52 37  2  0  0  0  0
 50 38  2  0  0  0  0
 49 40  2  0  0  0  0
 47 41  2  0  0  0  0
  1 82  1  0  0  0  0
  6 83  1  0  0  0  0
  9 84  1  0  0  0  0
 17 85  1  0  0  0  0
 18 86  1  0  0  0  0
 19 87  1  0  0  0  0
 20 88  1  0  0  0  0
 21 89  1  0  0  0  0
 22 90  1  0  0  0  0
 22 91  1  0  0  0  0
 23 92  1  0  0  0  0
 26 93  1  0  0  0  0
 26 94  1  0  0  0  0
 27 95  1  0  0  0  0
 27 96  1  0  0  0  0
 27 97  1  0  0  0  0
 45 98  1  0  0  0  0
 45 99  1  0  0  0  0
 46100  1  0  0  0  0
 46101  1  0  0  0  0
 46102  1  0  0  0  0
 58103  1  0  0  0  0
 58104  1  0  0  0  0
 59105  1  0  0  0  0
 59106  1  0  0  0  0
 59107  1  0  0  0  0
 60108  1  0  0  0  0
 60109  1  0  0  0  0
 61110  1  0  0  0  0
 61111  1  0  0  0  0
 61112  1  0  0  0  0
 62113  1  0  0  0  0
 67114  1  0  0  0  0
 72115  1  0  0  0  0
 72116  1  0  0  0  0
 72117  1  0  0  0  0
 73118  1  0  0  0  0
 74119  1  0  0  0  0
M  END
