186

C         -9.03790        1.79450       -3.09640
C         -9.56080        3.06300       -3.08490
C         -8.88530        4.26350       -2.58290
O         -7.80260        4.32700       -2.02490
C         -9.77150        5.39820       -2.89160
C         -9.52800        6.74540       -2.63800
C        -10.53350        7.58340       -3.05660
C        -11.69430        7.11510       -3.68580
C        -11.94640        5.78780       -3.94130
C        -10.93880        4.91690       -3.51820
C        -10.84740        3.46030       -3.61980
C        -11.82930        2.63920       -4.11410
C        -11.76620        1.23260       -4.19370
N        -11.80340        0.08820       -4.29200
C        -13.07360        3.08620       -4.60490
N        -14.10620        3.37100       -5.01930
C        -12.26880        8.50160       -3.83510
C        -13.39000        8.92750       -2.85550
C        -13.19260        8.11530       -1.59960
C        -12.09500        8.55700       -1.00030
C        -11.53030        9.67600       -1.84010
C        -12.83010       10.28210       -2.39280
C        -10.97660        9.02300       -3.13080
C         -7.80420        1.31360       -2.64030
C         -7.42720       -0.02740       -2.81360
C         -6.17460       -0.29680       -2.31590
C         -5.24390       -1.48810       -2.26400
C         -5.71540       -2.61130       -1.35610
C         -6.74500       -2.43520       -0.44430
C         -7.12350       -3.47270        0.38890
C         -6.48070       -4.70170        0.33820
C         -6.86600       -5.81080        1.27410
C         -6.04030       -5.73510        2.56000
C         -5.43930       -4.86550       -0.56690
C         -5.05990       -3.83560       -1.40490
C         -5.00790       -1.99280       -3.67470
C         -3.88670       -1.63240       -4.40620
C         -3.71750       -2.09510       -5.69900
C         -4.66360       -2.91810       -6.29300
C         -4.49960       -3.38280       -7.71130
C         -5.16670       -2.39940       -8.67510
C         -5.79270       -3.26280       -5.56000
C         -5.96460       -2.80770       -4.26770
C         -4.03690       -0.85210       -1.61960
C         -4.27740        0.48390       -1.30820
C         -5.57360        0.83900       -1.74690
S         -6.54870        2.24100       -1.82700
S         -2.94330        1.27180       -0.53880
C         -2.02910       -0.20130       -0.64540
C         -2.75650       -1.23870       -1.23380
S         -1.84350       -2.70790       -1.35500
C         -0.46610       -1.92540       -0.60230
C          0.73320       -2.56850       -0.32740
C          0.94210       -3.96670       -0.65600
C          1.39050       -4.96320        0.16220
C          1.44130       -6.22020       -0.47280
C          1.04310       -6.18580       -1.77320
C          0.92880       -7.31170       -2.74150
C         -0.53620       -7.68160       -2.98410
S          0.57830       -4.58360       -2.24100
C          1.73210       -1.80550        0.30240
C          1.46870       -0.46330        0.67490
C          0.27400        0.18280        0.38990
C          0.08360        1.58330        0.72740
C         -0.25890        2.61280       -0.09890
C         -0.29390        3.86040        0.55700
C          0.01460        3.78560        1.87940
C          0.12590        4.88840        2.87430
C          1.59060        5.17150        3.21540
S          0.36790        2.15430        2.34540
C         -0.71450       -0.56960       -0.26620
S          2.84140        0.32310        1.43230
C          3.79890       -1.10180        1.19020
C          5.13360       -1.42700        1.41340
C          5.42620       -2.70700        0.94590
S          4.06170       -3.53520        0.27510
C          3.07780       -2.13980        0.59390
C          6.80630       -2.94950        1.11810
S          7.93050       -4.19340        0.80930
C          9.24340       -3.17580        1.42690
C          8.76370       -1.94260        1.86620
C          7.40270       -1.81150        1.68600
C          6.36160       -0.75350        1.97200
C          6.31350       -0.54550        3.47750
C          7.31840        0.20220        4.07930
C          7.32620        0.38820        5.44740
C          6.33450       -0.16490        6.24880
C          6.37200        0.00200        7.74040
C          7.20550       -1.11050        8.37990
C          5.33830       -0.91560        5.64140
C          5.32640       -1.10860        4.27120
C          6.56800        0.56820        1.25680
C          7.43780        0.69670        0.18510
C          7.56980        1.91240       -0.46210
C          6.82900        3.01760       -0.06700
C          7.01030        4.34820       -0.73870
C          8.06730        5.17460       -0.00310
C          5.95090        2.87770        1.00060
C          5.82100        1.66970        1.65650
C         10.52730       -3.73750        1.38790
C         11.76520       -3.20430        1.65360
C         12.12370       -1.80150        1.95130
O         11.39860       -0.85420        2.18350
C         13.59920       -1.74830        1.90080
C         14.41770       -0.64620        2.05120
C         15.79550       -0.80040        1.95110
C         16.74280        0.34560        2.09530
C         16.28220       -2.08500        1.70200
F         17.61560       -2.24390        1.59710
C         15.48290       -3.20670        1.55310
C         14.11190       -3.03090        1.65520
C         12.99650       -3.96870        1.55320
C         13.12850       -5.32920        1.44360
C         12.07940       -6.27270        1.43540
N         11.29770       -7.11470        1.44130
C         14.36990       -5.99430        1.35880
N         15.34270       -6.59880        1.28160
H         -9.64770        1.02130       -3.54810
H         -8.61630        7.06240       -2.15600
H        -12.84290        5.44700       -4.43130
H        -12.46150        8.83010       -4.85450
H        -14.38950        8.91710       -3.28170
H        -13.81960        7.29050       -1.31570
H        -11.62110        8.17450       -0.11530
H        -10.83700       10.34810       -1.34100
H        -12.66830       10.98600       -3.20820
H        -13.43960       10.74810       -1.62010
H        -10.32710        9.69440       -3.68940
H         -8.07250       -0.74080       -3.29460
H         -7.26010       -1.48770       -0.38500
H         -7.93430       -3.32290        1.08760
H         -7.92640       -5.73480        1.52230
H         -6.69550       -6.77630        0.79350
H         -6.20790       -4.78450        3.06140
H         -4.97970       -5.81930        2.33360
H         -6.31660       -6.53930        3.23790
H         -4.92120       -5.81240       -0.61970
H         -4.25370       -3.98260       -2.10910
H         -3.13640       -0.99020       -3.96920
H         -2.83310       -1.81250       -6.25210
H         -3.43840       -3.46250       -7.95500
H         -4.95370       -4.36840       -7.83250
H         -5.04990       -2.73500       -9.70290
H         -6.22860       -2.31550       -8.45520
H         -4.71910       -1.41270       -8.57830
H         -6.54400       -3.89910       -6.00540
H         -6.84210       -3.09510       -3.70690
H          1.63820       -4.80740        1.19710
H          1.76600       -7.11870        0.02100
H          1.38860       -7.02920       -3.69160
H          1.46680       -8.17430       -2.34320
H         -1.07730       -6.82960       -3.39010
H         -1.01020       -7.97890       -2.05140
H         -0.60530       -8.50660       -3.68850
H         -0.44130        2.48740       -1.15100
H         -0.54200        4.78130        0.06010
H         -0.40870        4.61740        3.78790
H         -0.33750        5.78570        2.45910
H          2.13760        5.45850        2.32010
H          2.05730        4.28270        3.63470
H          1.66110        5.97810        3.94070
H          9.41360       -1.19290        2.27710
H          8.09200        0.64530        3.47000
H          8.11310        0.97370        5.90060
H          5.35770       -0.03110        8.14320
H          6.80970        0.96970        7.99360
H          7.23680       -0.99000        9.46030
H          6.77680       -2.08360        8.15090
H          8.22350       -1.08780        7.99750
H          4.55780       -1.35570        6.24560
H          4.53950       -1.69870        3.82510
H          8.02200       -0.15000       -0.14390
H          8.25860        2.00000       -1.29020
H          6.06430        4.89350       -0.74070
H          7.32360        4.20230       -1.77430
H          9.02070        4.65110       -0.00020
H          8.20150        6.13950       -0.48660
H          7.76610        5.34100        1.02880
H          5.36070        3.72380        1.32240
H          5.14040        1.58030        2.49090
H         10.52450       -4.76930        1.05590
H         13.98220        0.32300        2.24200
H         17.33510        0.45920        1.18790
H         17.43750        0.15870        2.91350
H         16.20520        1.26940        2.28780
H         15.94500       -4.16040        1.36000
