
  xtb     02022211033D
 energy: -262.434251975652 gnorm: 0.000532469770 xtb: 6.4.1 (unknown)
162180  0     0  0            999 V2000
   -0.4946    4.6319   -4.8397 C   0  0  0  0  0  0  0  0  0  0  0  0
   -1.2273    5.7657   -4.6683 C   0  0  0  0  0  0  0  0  0  0  0  0
   -1.3955    6.7173   -5.7995 C   0  0  0  0  0  0  0  0  0  0  0  0
   -1.1069    6.5186   -6.9584 O   0  0  0  0  0  0  0  0  0  0  0  0
   -1.9335    7.9524   -5.1983 C   0  0  0  0  0  0  0  0  0  0  0  0
   -2.1559    9.1737   -5.8321 C   0  0  0  0  0  0  0  0  0  0  0  0
   -2.6435   10.1547   -5.0026 C   0  0  0  0  0  0  0  0  0  0  0  0
   -2.8826    9.9453   -3.6373 C   0  0  0  0  0  0  0  0  0  0  0  0
   -2.6751    8.7456   -2.9998 C   0  0  0  0  0  0  0  0  0  0  0  0
   -2.1944    7.7294   -3.8303 C   0  0  0  0  0  0  0  0  0  0  0  0
   -1.9091    6.3292   -3.5206 C   0  0  0  0  0  0  0  0  0  0  0  0
   -2.4557    5.6432   -2.4667 C   0  0  0  0  0  0  0  0  0  0  0  0
   -2.3960    4.2462   -2.2888 C   0  0  0  0  0  0  0  0  0  0  0  0
   -2.4520    3.1150   -2.0998 N   0  0  0  0  0  0  0  0  0  0  0  0
   -3.2949    6.2286   -1.4954 C   0  0  0  0  0  0  0  0  0  0  0  0
   -4.0098    6.6393   -0.6964 N   0  0  0  0  0  0  0  0  0  0  0  0
   -3.3474   11.3633   -3.4185 C   0  0  0  0  0  0  0  0  0  0  0  0
   -2.3448   12.3265   -2.7486 C   0  0  0  0  0  0  0  0  0  0  0  0
   -2.8727   13.6988   -3.0999 C   0  0  0  0  0  0  0  0  0  0  0  0
   -2.6517   13.8971   -4.3931 C   0  0  0  0  0  0  0  0  0  0  0  0
   -1.9703   12.6624   -4.9377 C   0  0  0  0  0  0  0  0  0  0  0  0
   -1.1504   12.2496   -3.7085 C   0  0  0  0  0  0  0  0  0  0  0  0
   -3.0861   11.5960   -4.9413 C   0  0  0  0  0  0  0  0  0  0  0  0
    0.0511    3.8158   -3.8225 C   0  0  0  0  0  0  0  0  0  0  0  0
    0.4159    4.1857   -2.5363 C   0  0  0  0  0  0  0  0  0  0  0  0
    0.8582    3.1062   -1.7880 C   0  0  0  0  0  0  0  0  0  0  0  0
    1.1891    2.8698   -0.3385 C   0  0  0  0  0  0  0  0  0  0  0  0
    0.0270    3.4613    0.4366 C   0  0  0  0  0  0  0  0  0  0  0  0
   -1.0986    2.7165    0.7447 C   0  0  0  0  0  0  0  0  0  0  0  0
   -2.2126    3.3103    1.3133 C   0  0  0  0  0  0  0  0  0  0  0  0
   -2.2218    4.6771    1.5706 C   0  0  0  0  0  0  0  0  0  0  0  0
   -3.2579    5.3675    2.0989 O   0  0  0  0  0  0  0  0  0  0  0  0
   -4.5252    4.7451    2.1905 C   0  0  0  0  0  0  0  0  0  0  0  0
   -5.5455    5.8343    2.4784 C   0  0  0  0  0  0  0  0  0  0  0  0
   -1.0810    5.4266    1.2715 C   0  0  0  0  0  0  0  0  0  0  0  0
    0.0208    4.8271    0.7065 C   0  0  0  0  0  0  0  0  0  0  0  0
    2.5297    3.4236    0.0997 C   0  0  0  0  0  0  0  0  0  0  0  0
    2.7996    3.6106    1.4520 C   0  0  0  0  0  0  0  0  0  0  0  0
    4.0319    4.0642    1.8656 C   0  0  0  0  0  0  0  0  0  0  0  0
    5.0398    4.3409    0.9385 C   0  0  0  0  0  0  0  0  0  0  0  0
    6.2043    4.8055    1.4651 O   0  0  0  0  0  0  0  0  0  0  0  0
    7.3212    5.0253    0.6279 C   0  0  0  0  0  0  0  0  0  0  0  0
    8.0258    3.7300    0.2346 C   0  0  0  0  0  0  0  0  0  0  0  0
    4.7751    4.1473   -0.4125 C   0  0  0  0  0  0  0  0  0  0  0  0
    3.5320    3.6905   -0.8179 C   0  0  0  0  0  0  0  0  0  0  0  0
    1.2762    1.3533   -0.3112 C   0  0  0  0  0  0  0  0  0  0  0  0
    1.0888    0.8086   -1.6055 C   0  0  0  0  0  0  0  0  0  0  0  0
    0.8130    1.9035   -2.4815 C   0  0  0  0  0  0  0  0  0  0  0  0
    0.3140    2.1043   -4.1062 S   0  0  0  0  0  0  0  0  0  0  0  0
    1.1329   -0.5633   -1.8408 C   0  0  0  0  0  0  0  0  0  0  0  0
    1.3421   -1.3814   -0.7553 C   0  0  0  0  0  0  0  0  0  0  0  0
    1.4206   -2.8979   -0.7239 C   0  0  0  0  0  0  0  0  0  0  0  0
    2.5844   -3.3322   -1.5924 C   0  0  0  0  0  0  0  0  0  0  0  0
    3.8614   -3.4601   -1.0718 C   0  0  0  0  0  0  0  0  0  0  0  0
    4.9328   -3.8139   -1.8749 C   0  0  0  0  0  0  0  0  0  0  0  0
    4.7404   -4.0431   -3.2325 C   0  0  0  0  0  0  0  0  0  0  0  0
    5.6979   -4.4195   -4.1225 O   0  0  0  0  0  0  0  0  0  0  0  0
    7.0482   -4.5044   -3.7147 C   0  0  0  0  0  0  0  0  0  0  0  0
    7.7157   -3.1365   -3.6039 C   0  0  0  0  0  0  0  0  0  0  0  0
    3.4544   -3.9041   -3.7604 C   0  0  0  0  0  0  0  0  0  0  0  0
    2.3960   -3.5518   -2.9533 C   0  0  0  0  0  0  0  0  0  0  0  0
    0.1337   -3.6195   -1.0786 C   0  0  0  0  0  0  0  0  0  0  0  0
   -1.0991   -2.9817   -1.0870 C   0  0  0  0  0  0  0  0  0  0  0  0
   -2.2610   -3.7103   -1.2374 C   0  0  0  0  0  0  0  0  0  0  0  0
   -2.2219   -5.0989   -1.3626 C   0  0  0  0  0  0  0  0  0  0  0  0
   -3.4288   -5.7228   -1.4587 O   0  0  0  0  0  0  0  0  0  0  0  0
   -3.4935   -7.1246   -1.2888 C   0  0  0  0  0  0  0  0  0  0  0  0
   -3.2068   -7.5573    0.1470 C   0  0  0  0  0  0  0  0  0  0  0  0
   -0.9842   -5.7339   -1.3953 C   0  0  0  0  0  0  0  0  0  0  0  0
    0.1736   -4.9960   -1.2512 C   0  0  0  0  0  0  0  0  0  0  0  0
    1.6204   -3.1427    0.7501 C   0  0  0  0  0  0  0  0  0  0  0  0
    1.6745   -1.9350    1.4388 C   0  0  0  0  0  0  0  0  0  0  0  0
    1.5289   -0.8358    0.5385 C   0  0  0  0  0  0  0  0  0  0  0  0
    1.5095    0.5375    0.7699 C   0  0  0  0  0  0  0  0  0  0  0  0
    1.7939   -2.1533    3.1297 S   0  0  0  0  0  0  0  0  0  0  0  0
    1.6801   -3.9044    2.9213 C   0  0  0  0  0  0  0  0  0  0  0  0
    1.6193   -4.2528    1.5781 C   0  0  0  0  0  0  0  0  0  0  0  0
    1.6504   -4.6893    4.0891 C   0  0  0  0  0  0  0  0  0  0  0  0
    1.1843   -5.9645    4.2641 C   0  0  0  0  0  0  0  0  0  0  0  0
    0.3436   -6.7564    3.3358 C   0  0  0  0  0  0  0  0  0  0  0  0
    0.1153   -6.5672    2.1577 O   0  0  0  0  0  0  0  0  0  0  0  0
   -0.2323   -7.8432    4.1519 C   0  0  0  0  0  0  0  0  0  0  0  0
   -1.1609   -8.7924    3.7315 C   0  0  0  0  0  0  0  0  0  0  0  0
   -1.5347   -9.6806    4.7106 C   0  0  0  0  0  0  0  0  0  0  0  0
   -1.0244   -9.6288    6.0148 C   0  0  0  0  0  0  0  0  0  0  0  0
   -0.1040   -8.7011    6.4410 C   0  0  0  0  0  0  0  0  0  0  0  0
    0.2896   -7.7879    5.4588 C   0  0  0  0  0  0  0  0  0  0  0  0
    1.2289   -6.6734    5.5302 C   0  0  0  0  0  0  0  0  0  0  0  0
    2.0689   -6.4015    6.5788 C   0  0  0  0  0  0  0  0  0  0  0  0
    3.0637   -5.4004    6.5784 C   0  0  0  0  0  0  0  0  0  0  0  0
    3.9136   -4.6306    6.6437 N   0  0  0  0  0  0  0  0  0  0  0  0
    2.0917   -7.1244    7.7891 C   0  0  0  0  0  0  0  0  0  0  0  0
    2.1600   -7.6671    8.7987 N   0  0  0  0  0  0  0  0  0  0  0  0
   -1.8527  -10.8038    6.4707 C   0  0  0  0  0  0  0  0  0  0  0  0
   -3.1155  -10.5106    7.3182 C   0  0  0  0  0  0  0  0  0  0  0  0
   -3.5718   -9.1224    6.9436 C   0  0  0  0  0  0  0  0  0  0  0  0
   -4.0524   -9.1734    5.7085 C   0  0  0  0  0  0  0  0  0  0  0  0
   -3.9301  -10.5976    5.2257 C   0  0  0  0  0  0  0  0  0  0  0  0
   -4.1463  -11.3512    6.5477 C   0  0  0  0  0  0  0  0  0  0  0  0
   -2.4187  -10.8636    5.0168 C   0  0  0  0  0  0  0  0  0  0  0  0
   -0.2808    4.3589   -5.8680 H   0  0  0  0  0  0  0  0  0  0  0  0
   -1.9565    9.2959   -6.8852 H   0  0  0  0  0  0  0  0  0  0  0  0
   -2.8566    8.5957   -1.9481 H   0  0  0  0  0  0  0  0  0  0  0  0
   -4.3617   11.4745   -3.0404 H   0  0  0  0  0  0  0  0  0  0  0  0
   -2.1569   12.1290   -1.6967 H   0  0  0  0  0  0  0  0  0  0  0  0
   -3.3860   14.3394   -2.4071 H   0  0  0  0  0  0  0  0  0  0  0  0
   -2.9436   14.7366   -4.9964 H   0  0  0  0  0  0  0  0  0  0  0  0
   -1.4406   12.7714   -5.8802 H   0  0  0  0  0  0  0  0  0  0  0  0
   -0.7050   11.2593   -3.7845 H   0  0  0  0  0  0  0  0  0  0  0  0
   -0.3790   12.9784   -3.4648 H   0  0  0  0  0  0  0  0  0  0  0  0
   -3.9273   11.8617   -5.5786 H   0  0  0  0  0  0  0  0  0  0  0  0
    0.3707    5.2010   -2.1849 H   0  0  0  0  0  0  0  0  0  0  0  0
   -1.1197    1.6583    0.5325 H   0  0  0  0  0  0  0  0  0  0  0  0
   -3.0711    2.6985    1.5398 H   0  0  0  0  0  0  0  0  0  0  0  0
   -4.7657    4.2462    1.2425 H   0  0  0  0  0  0  0  0  0  0  0  0
   -4.5194    3.9950    2.9948 H   0  0  0  0  0  0  0  0  0  0  0  0
   -5.5329    6.5580    1.6687 H   0  0  0  0  0  0  0  0  0  0  0  0
   -6.5382    5.4011    2.5615 H   0  0  0  0  0  0  0  0  0  0  0  0
   -5.2959    6.3416    3.4063 H   0  0  0  0  0  0  0  0  0  0  0  0
   -1.0967    6.4849    1.4799 H   0  0  0  0  0  0  0  0  0  0  0  0
    0.8899    5.4234    0.4671 H   0  0  0  0  0  0  0  0  0  0  0  0
    2.0304    3.4128    2.1835 H   0  0  0  0  0  0  0  0  0  0  0  0
    4.2449    4.2178    2.9116 H   0  0  0  0  0  0  0  0  0  0  0  0
    7.9926    5.6432    1.2308 H   0  0  0  0  0  0  0  0  0  0  0  0
    7.0326    5.5992   -0.2616 H   0  0  0  0  0  0  0  0  0  0  0  0
    7.3631    3.0848   -0.3372 H   0  0  0  0  0  0  0  0  0  0  0  0
    8.3369    3.1952    1.1284 H   0  0  0  0  0  0  0  0  0  0  0  0
    8.9029    3.9574   -0.3649 H   0  0  0  0  0  0  0  0  0  0  0  0
    5.5205    4.3489   -1.1656 H   0  0  0  0  0  0  0  0  0  0  0  0
    3.3489    3.5440   -1.8728 H   0  0  0  0  0  0  0  0  0  0  0  0
    0.9874   -0.9599   -2.8336 H   0  0  0  0  0  0  0  0  0  0  0  0
    4.0343   -3.2858   -0.0197 H   0  0  0  0  0  0  0  0  0  0  0  0
    5.9066   -3.9096   -1.4212 H   0  0  0  0  0  0  0  0  0  0  0  0
    7.5318   -5.0892   -4.5023 H   0  0  0  0  0  0  0  0  0  0  0  0
    7.1353   -5.0594   -2.7725 H   0  0  0  0  0  0  0  0  0  0  0  0
    7.6501   -2.6176   -4.5570 H   0  0  0  0  0  0  0  0  0  0  0  0
    8.7624   -3.2597   -3.3396 H   0  0  0  0  0  0  0  0  0  0  0  0
    7.2286   -2.5262   -2.8472 H   0  0  0  0  0  0  0  0  0  0  0  0
    3.3137   -4.0839   -4.8145 H   0  0  0  0  0  0  0  0  0  0  0  0
    1.4076   -3.4598   -3.3785 H   0  0  0  0  0  0  0  0  0  0  0  0
   -1.1572   -1.9105   -0.9614 H   0  0  0  0  0  0  0  0  0  0  0  0
   -3.2228   -3.2221   -1.2372 H   0  0  0  0  0  0  0  0  0  0  0  0
   -2.8202   -7.6336   -1.9903 H   0  0  0  0  0  0  0  0  0  0  0  0
   -4.5222   -7.3799   -1.5588 H   0  0  0  0  0  0  0  0  0  0  0  0
   -3.9242   -7.0950    0.8208 H   0  0  0  0  0  0  0  0  0  0  0  0
   -2.2074   -7.2535    0.4517 H   0  0  0  0  0  0  0  0  0  0  0  0
   -3.2928   -8.6382    0.2253 H   0  0  0  0  0  0  0  0  0  0  0  0
   -0.9038   -6.8021   -1.5159 H   0  0  0  0  0  0  0  0  0  0  0  0
    1.1260   -5.5049   -1.2635 H   0  0  0  0  0  0  0  0  0  0  0  0
    1.6531    0.9332    1.7633 H   0  0  0  0  0  0  0  0  0  0  0  0
    1.5655   -5.2704    1.2444 H   0  0  0  0  0  0  0  0  0  0  0  0
    1.9847   -4.1672    4.9790 H   0  0  0  0  0  0  0  0  0  0  0  0
   -1.5316   -8.7944    2.7183 H   0  0  0  0  0  0  0  0  0  0  0  0
    0.2763   -8.6706    7.4485 H   0  0  0  0  0  0  0  0  0  0  0  0
   -1.2978  -11.6647    6.8383 H   0  0  0  0  0  0  0  0  0  0  0  0
   -3.0015  -10.7080    8.3806 H   0  0  0  0  0  0  0  0  0  0  0  0
   -3.4490   -8.2613    7.5741 H   0  0  0  0  0  0  0  0  0  0  0  0
   -4.4105   -8.3632    5.1007 H   0  0  0  0  0  0  0  0  0  0  0  0
   -4.5584  -10.8744    4.3831 H   0  0  0  0  0  0  0  0  0  0  0  0
   -5.1572  -11.2381    6.9365 H   0  0  0  0  0  0  0  0  0  0  0  0
   -3.8896  -12.4082    6.4918 H   0  0  0  0  0  0  0  0  0  0  0  0
   -2.2319  -11.7639    4.4346 H   0  0  0  0  0  0  0  0  0  0  0  0
  1  2  2  0  0  0  0
  2  3  1  0  0  0  0
  3  4  2  0  0  0  0
  3  5  1  0  0  0  0
  5  6  2  0  0  0  0
  6  7  1  0  0  0  0
  7  8  2  0  0  0  0
  8  9  1  0  0  0  0
  9 10  2  0  0  0  0
 10 11  1  0  0  0  0
 11 12  2  0  0  0  0
 12 13  1  0  0  0  0
 13 14  3  0  0  0  0
 12 15  1  0  0  0  0
 15 16  3  0  0  0  0
  8 17  1  0  0  0  0
 17 18  1  0  0  0  0
 18 19  1  0  0  0  0
 19 20  2  0  0  0  0
 20 21  1  0  0  0  0
 21 22  1  0  0  0  0
 21 23  1  0  0  0  0
  1 24  1  0  0  0  0
 24 25  2  0  0  0  0
 25 26  1  0  0  0  0
 26 27  1  0  0  0  0
 27 28  1  0  0  0  0
 28 29  2  0  0  0  0
 29 30  1  0  0  0  0
 30 31  2  0  0  0  0
 31 32  1  0  0  0  0
 32 33  1  0  0  0  0
 33 34  1  0  0  0  0
 31 35  1  0  0  0  0
 35 36  2  0  0  0  0
 27 37  1  0  0  0  0
 37 38  2  0  0  0  0
 38 39  1  0  0  0  0
 39 40  2  0  0  0  0
 40 41  1  0  0  0  0
 41 42  1  0  0  0  0
 42 43  1  0  0  0  0
 40 44  1  0  0  0  0
 44 45  2  0  0  0  0
 27 46  1  0  0  0  0
 46 47  2  0  0  0  0
 47 48  1  0  0  0  0
 48 49  1  0  0  0  0
 47 50  1  0  0  0  0
 50 51  2  0  0  0  0
 51 52  1  0  0  0  0
 52 53  1  0  0  0  0
 53 54  2  0  0  0  0
 54 55  1  0  0  0  0
 55 56  2  0  0  0  0
 56 57  1  0  0  0  0
 57 58  1  0  0  0  0
 58 59  1  0  0  0  0
 56 60  1  0  0  0  0
 60 61  2  0  0  0  0
 52 62  1  0  0  0  0
 62 63  2  0  0  0  0
 63 64  1  0  0  0  0
 64 65  2  0  0  0  0
 65 66  1  0  0  0  0
 66 67  1  0  0  0  0
 67 68  1  0  0  0  0
 65 69  1  0  0  0  0
 69 70  2  0  0  0  0
 52 71  1  0  0  0  0
 71 72  2  0  0  0  0
 72 73  1  0  0  0  0
 73 74  2  0  0  0  0
 72 75  1  0  0  0  0
 75 76  1  0  0  0  0
 76 77  2  0  0  0  0
 76 78  1  0  0  0  0
 78 79  2  0  0  0  0
 79 80  1  0  0  0  0
 80 81  2  0  0  0  0
 80 82  1  0  0  0  0
 82 83  2  0  0  0  0
 83 84  1  0  0  0  0
 84 85  2  0  0  0  0
 85 86  1  0  0  0  0
 86 87  2  0  0  0  0
 87 88  1  0  0  0  0
 88 89  2  0  0  0  0
 89 90  1  0  0  0  0
 90 91  3  0  0  0  0
 89 92  1  0  0  0  0
 92 93  3  0  0  0  0
 85 94  1  0  0  0  0
 94 95  1  0  0  0  0
 95 96  1  0  0  0  0
 96 97  2  0  0  0  0
 97 98  1  0  0  0  0
 98 99  1  0  0  0  0
 98100  1  0  0  0  0
 11  2  1  0  0  0  0
 23 17  1  0  0  0  0
 49 24  1  0  0  0  0
 73 51  1  0  0  0  0
 88 79  1  0  0  0  0
100 94  1  0  0  0  0
 10  5  1  0  0  0  0
 22 18  1  0  0  0  0
 48 26  2  0  0  0  0
 61 53  1  0  0  0  0
 70 62  1  0  0  0  0
 77 71  1  0  0  0  0
 87 82  1  0  0  0  0
 99 95  1  0  0  0  0
 23  7  1  0  0  0  0
 36 28  1  0  0  0  0
 45 37  1  0  0  0  0
 74 46  1  0  0  0  0
100 84  1  0  0  0  0
  1101  1  0  0  0  0
  6102  1  0  0  0  0
  9103  1  0  0  0  0
 17104  1  0  0  0  0
 18105  1  0  0  0  0
 19106  1  0  0  0  0
 20107  1  0  0  0  0
 21108  1  0  0  0  0
 22109  1  0  0  0  0
 22110  1  0  0  0  0
 23111  1  0  0  0  0
 25112  1  0  0  0  0
 29113  1  0  0  0  0
 30114  1  0  0  0  0
 33115  1  0  0  0  0
 33116  1  0  0  0  0
 34117  1  0  0  0  0
 34118  1  0  0  0  0
 34119  1  0  0  0  0
 35120  1  0  0  0  0
 36121  1  0  0  0  0
 38122  1  0  0  0  0
 39123  1  0  0  0  0
 42124  1  0  0  0  0
 42125  1  0  0  0  0
 43126  1  0  0  0  0
 43127  1  0  0  0  0
 43128  1  0  0  0  0
 44129  1  0  0  0  0
 45130  1  0  0  0  0
 50131  1  0  0  0  0
 54132  1  0  0  0  0
 55133  1  0  0  0  0
 58134  1  0  0  0  0
 58135  1  0  0  0  0
 59136  1  0  0  0  0
 59137  1  0  0  0  0
 59138  1  0  0  0  0
 60139  1  0  0  0  0
 61140  1  0  0  0  0
 63141  1  0  0  0  0
 64142  1  0  0  0  0
 67143  1  0  0  0  0
 67144  1  0  0  0  0
 68145  1  0  0  0  0
 68146  1  0  0  0  0
 68147  1  0  0  0  0
 69148  1  0  0  0  0
 70149  1  0  0  0  0
 74150  1  0  0  0  0
 77151  1  0  0  0  0
 78152  1  0  0  0  0
 83153  1  0  0  0  0
 86154  1  0  0  0  0
 94155  1  0  0  0  0
 95156  1  0  0  0  0
 96157  1  0  0  0  0
 97158  1  0  0  0  0
 98159  1  0  0  0  0
 99160  1  0  0  0  0
 99161  1  0  0  0  0
100162  1  0  0  0  0
M  END
