
  xtb     02022210043D
 energy: -201.579031500000 gnorm: 0.000781608496 xtb: 6.4.1 (unknown)
111126  0     0  0            999 V2000
    4.3642   -5.5429    3.8856 C   0  0  0  0  0  0  0  0  0  0  0  0
    5.6729   -5.8199    3.6474 C   0  0  0  0  0  0  0  0  0  0  0  0
    6.2937   -7.0786    4.1388 C   0  0  0  0  0  0  0  0  0  0  0  0
    5.8337   -7.8414    4.9589 O   0  0  0  0  0  0  0  0  0  0  0  0
    7.5477   -7.2155    3.3717 C   0  0  0  0  0  0  0  0  0  0  0  0
    8.4285   -8.2949    3.3779 C   0  0  0  0  0  0  0  0  0  0  0  0
    9.5087   -8.1423    2.5420 C   0  0  0  0  0  0  0  0  0  0  0  0
    9.6961   -7.0072    1.7409 C   0  0  0  0  0  0  0  0  0  0  0  0
    8.8402   -5.9320    1.7270 C   0  0  0  0  0  0  0  0  0  0  0  0
    7.7452   -6.0608    2.5839 C   0  0  0  0  0  0  0  0  0  0  0  0
    6.6719   -5.1155    2.8723 C   0  0  0  0  0  0  0  0  0  0  0  0
    6.7399   -3.7561    2.7070 C   0  0  0  0  0  0  0  0  0  0  0  0
    7.7987   -3.0924    2.0569 C   0  0  0  0  0  0  0  0  0  0  0  0
    8.6332   -2.5027    1.5333 N   0  0  0  0  0  0  0  0  0  0  0  0
    5.8059   -2.8651    3.2743 C   0  0  0  0  0  0  0  0  0  0  0  0
    5.0976   -2.1102    3.7724 N   0  0  0  0  0  0  0  0  0  0  0  0
   10.9821   -7.5341    1.1558 C   0  0  0  0  0  0  0  0  0  0  0  0
   12.3082   -6.9371    1.6877 C   0  0  0  0  0  0  0  0  0  0  0  0
   12.0263   -6.4530    3.0886 C   0  0  0  0  0  0  0  0  0  0  0  0
   11.8536   -7.5197    3.8577 C   0  0  0  0  0  0  0  0  0  0  0  0
   12.0155   -8.7441    2.9910 C   0  0  0  0  0  0  0  0  0  0  0  0
   13.0719   -8.2344    1.9976 C   0  0  0  0  0  0  0  0  0  0  0  0
   10.7801   -8.7928    2.0573 C   0  0  0  0  0  0  0  0  0  0  0  0
    3.5330   -4.6385    3.1795 C   0  0  0  0  0  0  0  0  0  0  0  0
    3.8174   -4.2748    1.4740 S   0  0  0  0  0  0  0  0  0  0  0  0
    2.4642   -3.2166    1.4679 C   0  0  0  0  0  0  0  0  0  0  0  0
    1.7612   -2.3533    0.6346 C   0  0  0  0  0  0  0  0  0  0  0  0
    1.8324   -1.8622   -1.0277 S   0  0  0  0  0  0  0  0  0  0  0  0
    0.4496   -0.8781   -0.7224 C   0  0  0  0  0  0  0  0  0  0  0  0
   -0.3819   -0.0559   -1.4865 C   0  0  0  0  0  0  0  0  0  0  0  0
   -0.3209    0.2361   -2.8653 C   0  0  0  0  0  0  0  0  0  0  0  0
   -1.3531    1.0415   -3.4346 C   0  0  0  0  0  0  0  0  0  0  0  0
   -1.1996    1.2207   -4.7377 N   0  0  0  0  0  0  0  0  0  0  0  0
    0.1396    0.4376   -5.2033 S   0  0  0  0  0  0  0  0  0  0  0  0
    0.5700   -0.1588   -3.7614 N   0  0  0  0  0  0  0  0  0  0  0  0
   -2.3604    1.5474   -2.5860 C   0  0  0  0  0  0  0  0  0  0  0  0
   -3.4378    2.3805   -2.8996 C   0  0  0  0  0  0  0  0  0  0  0  0
   -4.1327    3.1580   -4.2781 S   0  0  0  0  0  0  0  0  0  0  0  0
   -5.3491    3.8579   -3.2248 C   0  0  0  0  0  0  0  0  0  0  0  0
   -6.4252    4.6964   -3.4725 C   0  0  0  0  0  0  0  0  0  0  0  0
   -6.7347    5.2359   -4.8303 C   0  0  0  0  0  0  0  0  0  0  0  0
   -6.1000    6.6158   -5.0246 C   0  0  0  0  0  0  0  0  0  0  0  0
   -7.1210    5.0027   -2.2878 C   0  0  0  0  0  0  0  0  0  0  0  0
   -6.4119    4.2100   -0.8785 S   0  0  0  0  0  0  0  0  0  0  0  0
   -5.2010    3.4935   -1.8732 C   0  0  0  0  0  0  0  0  0  0  0  0
   -4.1070    2.6429   -1.7012 C   0  0  0  0  0  0  0  0  0  0  0  0
   -3.4789    2.0030   -0.6654 N   0  0  0  0  0  0  0  0  0  0  0  0
   -2.4036    1.2927   -1.1765 C   0  0  0  0  0  0  0  0  0  0  0  0
   -1.4061    0.4306   -0.6266 C   0  0  0  0  0  0  0  0  0  0  0  0
   -1.1814   -0.1203    0.6276 N   0  0  0  0  0  0  0  0  0  0  0  0
   -0.0516   -0.9091    0.5858 C   0  0  0  0  0  0  0  0  0  0  0  0
    0.7230   -1.7652    1.4051 C   0  0  0  0  0  0  0  0  0  0  0  0
    0.7790   -2.2797    2.6882 N   0  0  0  0  0  0  0  0  0  0  0  0
    1.8385   -3.1551    2.7270 C   0  0  0  0  0  0  0  0  0  0  0  0
    2.4211   -3.9887    3.6799 C   0  0  0  0  0  0  0  0  0  0  0  0
    0.2376   -1.7923    3.9359 C   0  0  0  0  0  0  0  0  0  0  0  0
    1.2154   -0.8389    4.6231 C   0  0  0  0  0  0  0  0  0  0  0  0
   -1.9730   -0.0056    1.8229 C   0  0  0  0  0  0  0  0  0  0  0  0
   -1.4394    1.0918    2.7458 C   0  0  0  0  0  0  0  0  0  0  0  0
   -4.0350    2.2081    0.6534 C   0  0  0  0  0  0  0  0  0  0  0  0
   -5.2174    1.2761    0.9204 C   0  0  0  0  0  0  0  0  0  0  0  0
   -8.2324    5.8460   -2.2541 C   0  0  0  0  0  0  0  0  0  0  0  0
   -9.0146    6.2771   -1.2088 C   0  0  0  0  0  0  0  0  0  0  0  0
   -8.8591    5.9142    0.2087 C   0  0  0  0  0  0  0  0  0  0  0  0
   -8.0343    5.1697    0.7087 O   0  0  0  0  0  0  0  0  0  0  0  0
   -9.9246    6.6442    0.8917 C   0  0  0  0  0  0  0  0  0  0  0  0
  -10.4662    6.8089    2.5055 S   0  0  0  0  0  0  0  0  0  0  0  0
  -11.7149    7.8878    1.9542 C   0  0  0  0  0  0  0  0  0  0  0  0
  -12.9094    8.6338    3.1896 Br  0  0  0  0  0  0  0  0  0  0  0  0
  -11.7155    8.1079    0.6041 C   0  0  0  0  0  0  0  0  0  0  0  0
  -10.6764    7.3853   -0.0076 C   0  0  0  0  0  0  0  0  0  0  0  0
  -10.1395    7.1811   -1.3438 C   0  0  0  0  0  0  0  0  0  0  0  0
  -10.6495    7.7662   -2.4749 C   0  0  0  0  0  0  0  0  0  0  0  0
  -11.7649    8.6281   -2.4223 C   0  0  0  0  0  0  0  0  0  0  0  0
  -12.6698    9.3335   -2.4016 N   0  0  0  0  0  0  0  0  0  0  0  0
  -10.1626    7.6018   -3.7860 C   0  0  0  0  0  0  0  0  0  0  0  0
   -9.8201    7.5142   -4.8792 N   0  0  0  0  0  0  0  0  0  0  0  0
    3.8872   -6.1291    4.6650 H   0  0  0  0  0  0  0  0  0  0  0  0
    8.2464   -9.1561    4.0016 H   0  0  0  0  0  0  0  0  0  0  0  0
    8.9861   -5.0647    1.1038 H   0  0  0  0  0  0  0  0  0  0  0  0
   10.9923   -7.6768    0.0771 H   0  0  0  0  0  0  0  0  0  0  0  0
   12.7819   -6.2231    1.0195 H   0  0  0  0  0  0  0  0  0  0  0  0
   11.9266   -5.4170    3.3547 H   0  0  0  0  0  0  0  0  0  0  0  0
   11.5809   -7.5531    4.8963 H   0  0  0  0  0  0  0  0  0  0  0  0
   12.2250   -9.6756    3.5105 H   0  0  0  0  0  0  0  0  0  0  0  0
   13.1997   -8.8807    1.1302 H   0  0  0  0  0  0  0  0  0  0  0  0
   14.0377   -8.0525    2.4665 H   0  0  0  0  0  0  0  0  0  0  0  0
   10.6682   -9.7590    1.5690 H   0  0  0  0  0  0  0  0  0  0  0  0
   -7.8116    5.3066   -4.9894 H   0  0  0  0  0  0  0  0  0  0  0  0
   -6.3235    4.5480   -5.5716 H   0  0  0  0  0  0  0  0  0  0  0  0
   -5.0207    6.5549   -4.9074 H   0  0  0  0  0  0  0  0  0  0  0  0
   -6.4897    7.3250   -4.2981 H   0  0  0  0  0  0  0  0  0  0  0  0
   -6.3238    6.9862   -6.0207 H   0  0  0  0  0  0  0  0  0  0  0  0
    2.1059   -4.0980    4.7016 H   0  0  0  0  0  0  0  0  0  0  0  0
    0.0618   -2.6631    4.5749 H   0  0  0  0  0  0  0  0  0  0  0  0
   -0.7185   -1.3021    3.7690 H   0  0  0  0  0  0  0  0  0  0  0  0
    2.1553   -1.3444    4.8293 H   0  0  0  0  0  0  0  0  0  0  0  0
    1.4326    0.0152    3.9851 H   0  0  0  0  0  0  0  0  0  0  0  0
    0.7935   -0.4813    5.5585 H   0  0  0  0  0  0  0  0  0  0  0  0
   -3.0097    0.1682    1.5499 H   0  0  0  0  0  0  0  0  0  0  0  0
   -1.9424   -0.9757    2.3273 H   0  0  0  0  0  0  0  0  0  0  0  0
   -0.4251    0.8628    3.0579 H   0  0  0  0  0  0  0  0  0  0  0  0
   -1.4075    2.0511    2.2332 H   0  0  0  0  0  0  0  0  0  0  0  0
   -2.0665    1.1834    3.6290 H   0  0  0  0  0  0  0  0  0  0  0  0
   -3.2647    2.1190    1.4118 H   0  0  0  0  0  0  0  0  0  0  0  0
   -4.4010    3.2394    0.6834 H   0  0  0  0  0  0  0  0  0  0  0  0
   -6.0361    1.5169    0.2478 H   0  0  0  0  0  0  0  0  0  0  0  0
   -4.9511    0.2319    0.7664 H   0  0  0  0  0  0  0  0  0  0  0  0
   -5.5656    1.4073    1.9409 H   0  0  0  0  0  0  0  0  0  0  0  0
   -8.5115    6.2251   -3.2281 H   0  0  0  0  0  0  0  0  0  0  0  0
  -12.4206    8.7473    0.1061 H   0  0  0  0  0  0  0  0  0  0  0  0
  1  2  2  0  0  0  0
  2  3  1  0  0  0  0
  3  4  2  0  0  0  0
  3  5  1  0  0  0  0
  5  6  2  0  0  0  0
  6  7  1  0  0  0  0
  7  8  2  0  0  0  0
  8  9  1  0  0  0  0
  9 10  2  0  0  0  0
 10 11  1  0  0  0  0
 11 12  2  0  0  0  0
 12 13  1  0  0  0  0
 13 14  3  0  0  0  0
 12 15  1  0  0  0  0
 15 16  3  0  0  0  0
  8 17  1  0  0  0  0
 17 18  1  0  0  0  0
 18 19  1  0  0  0  0
 19 20  2  0  0  0  0
 20 21  1  0  0  0  0
 21 22  1  0  0  0  0
 21 23  1  0  0  0  0
  1 24  1  0  0  0  0
 24 25  1  0  0  0  0
 25 26  1  0  0  0  0
 26 27  1  0  0  0  0
 27 28  1  0  0  0  0
 28 29  1  0  0  0  0
 29 30  1  0  0  0  0
 30 31  1  0  0  0  0
 31 32  1  0  0  0  0
 32 33  2  0  0  0  0
 33 34  1  0  0  0  0
 34 35  1  0  0  0  0
 32 36  1  0  0  0  0
 36 37  1  0  0  0  0
 37 38  1  0  0  0  0
 38 39  1  0  0  0  0
 39 40  1  0  0  0  0
 40 41  1  0  0  0  0
 41 42  1  0  0  0  0
 40 43  2  0  0  0  0
 43 44  1  0  0  0  0
 44 45  1  0  0  0  0
 45 46  1  0  0  0  0
 46 47  1  0  0  0  0
 47 48  1  0  0  0  0
 48 49  1  0  0  0  0
 49 50  1  0  0  0  0
 50 51  1  0  0  0  0
 51 52  1  0  0  0  0
 52 53  1  0  0  0  0
 53 54  1  0  0  0  0
 54 55  1  0  0  0  0
 53 56  1  0  0  0  0
 56 57  1  0  0  0  0
 50 58  1  0  0  0  0
 58 59  1  0  0  0  0
 47 60  1  0  0  0  0
 60 61  1  0  0  0  0
 43 62  1  0  0  0  0
 62 63  2  0  0  0  0
 63 64  1  0  0  0  0
 64 65  2  0  0  0  0
 64 66  1  0  0  0  0
 66 67  1  0  0  0  0
 67 68  1  0  0  0  0
 68 69  1  0  0  0  0
 68 70  2  0  0  0  0
 70 71  1  0  0  0  0
 71 72  1  0  0  0  0
 72 73  2  0  0  0  0
 73 74  1  0  0  0  0
 74 75  3  0  0  0  0
 73 76  1  0  0  0  0
 76 77  3  0  0  0  0
 11  2  1  0  0  0  0
 23 17  1  0  0  0  0
 55 24  2  0  0  0  0
 72 63  1  0  0  0  0
 10  5  1  0  0  0  0
 22 18  1  0  0  0  0
 54 26  2  0  0  0  0
 71 66  2  0  0  0  0
 23  7  1  0  0  0  0
 52 27  2  0  0  0  0
 51 29  2  0  0  0  0
 49 30  2  0  0  0  0
 35 31  2  0  0  0  0
 48 36  2  0  0  0  0
 46 37  2  0  0  0  0
 45 39  2  0  0  0  0
  1 78  1  0  0  0  0
  6 79  1  0  0  0  0
  9 80  1  0  0  0  0
 17 81  1  0  0  0  0
 18 82  1  0  0  0  0
 19 83  1  0  0  0  0
 20 84  1  0  0  0  0
 21 85  1  0  0  0  0
 22 86  1  0  0  0  0
 22 87  1  0  0  0  0
 23 88  1  0  0  0  0
 41 89  1  0  0  0  0
 41 90  1  0  0  0  0
 42 91  1  0  0  0  0
 42 92  1  0  0  0  0
 42 93  1  0  0  0  0
 55 94  1  0  0  0  0
 56 95  1  0  0  0  0
 56 96  1  0  0  0  0
 57 97  1  0  0  0  0
 57 98  1  0  0  0  0
 57 99  1  0  0  0  0
 58100  1  0  0  0  0
 58101  1  0  0  0  0
 59102  1  0  0  0  0
 59103  1  0  0  0  0
 59104  1  0  0  0  0
 60105  1  0  0  0  0
 60106  1  0  0  0  0
 61107  1  0  0  0  0
 61108  1  0  0  0  0
 61109  1  0  0  0  0
 62110  1  0  0  0  0
 70111  1  0  0  0  0
M  END
