
  xtb     02012217053D
 energy: -199.770135697796 gnorm: 0.000429226539 xtb: 6.4.1 (unknown)
114127  0     0  0            999 V2000
   -1.1475    6.1562   -3.9636 C   0  0  0  0  0  0  0  0  0  0  0  0
   -2.4000    6.7036   -4.0240 C   0  0  0  0  0  0  0  0  0  0  0  0
   -3.6573    6.1197   -3.5022 C   0  0  0  0  0  0  0  0  0  0  0  0
   -3.8853    4.9723   -3.1722 O   0  0  0  0  0  0  0  0  0  0  0  0
   -4.6048    7.2448   -3.3983 C   0  0  0  0  0  0  0  0  0  0  0  0
   -5.8943    7.1974   -2.8733 C   0  0  0  0  0  0  0  0  0  0  0  0
   -6.5476    8.4058   -2.8853 C   0  0  0  0  0  0  0  0  0  0  0  0
   -5.9620    9.5781   -3.3826 C   0  0  0  0  0  0  0  0  0  0  0  0
   -4.6940    9.6371   -3.9103 C   0  0  0  0  0  0  0  0  0  0  0  0
   -4.0119    8.4172   -3.9067 C   0  0  0  0  0  0  0  0  0  0  0  0
   -2.6688    8.0874   -4.3716 C   0  0  0  0  0  0  0  0  0  0  0  0
   -1.8432    8.9124   -5.0894 C   0  0  0  0  0  0  0  0  0  0  0  0
   -2.1462   10.2488   -5.4218 C   0  0  0  0  0  0  0  0  0  0  0  0
   -2.3259   11.3437   -5.7173 N   0  0  0  0  0  0  0  0  0  0  0  0
   -0.6037    8.5262   -5.6432 C   0  0  0  0  0  0  0  0  0  0  0  0
    0.3971    8.2806   -6.1500 N   0  0  0  0  0  0  0  0  0  0  0  0
   -7.1757   10.4142   -3.0633 C   0  0  0  0  0  0  0  0  0  0  0  0
   -7.1174   11.3219   -1.8097 C   0  0  0  0  0  0  0  0  0  0  0  0
   -6.1383   10.6801   -0.8583 C   0  0  0  0  0  0  0  0  0  0  0  0
   -6.6952    9.5707   -0.3911 C   0  0  0  0  0  0  0  0  0  0  0  0
   -8.0612    9.4420   -1.0187 C   0  0  0  0  0  0  0  0  0  0  0  0
   -8.4436   10.9257   -1.1410 C   0  0  0  0  0  0  0  0  0  0  0  0
   -7.8297    9.1076   -2.5133 C   0  0  0  0  0  0  0  0  0  0  0  0
   -0.7814    4.8326   -3.6490 C   0  0  0  0  0  0  0  0  0  0  0  0
    0.8646    4.5778   -3.0385 S   0  0  0  0  0  0  0  0  0  0  0  0
    0.5250    2.9101   -2.8042 C   0  0  0  0  0  0  0  0  0  0  0  0
    1.0674    1.7392   -2.2870 C   0  0  0  0  0  0  0  0  0  0  0  0
    2.5031    1.2191   -1.4844 S   0  0  0  0  0  0  0  0  0  0  0  0
    1.8194   -0.3985   -1.2780 C   0  0  0  0  0  0  0  0  0  0  0  0
    2.4414   -1.4432   -0.6001 C   0  0  0  0  0  0  0  0  0  0  0  0
    3.6325   -1.3890    0.0503 O   0  0  0  0  0  0  0  0  0  0  0  0
    4.1308   -0.1980    0.6409 C   0  0  0  0  0  0  0  0  0  0  0  0
    3.2041    0.3895    1.6967 C   0  0  0  0  0  0  0  0  0  0  0  0
    1.8119   -2.7089   -0.6102 C   0  0  0  0  0  0  0  0  0  0  0  0
    0.5991   -2.8469   -1.3317 C   0  0  0  0  0  0  0  0  0  0  0  0
   -0.0319   -1.8037   -1.9862 C   0  0  0  0  0  0  0  0  0  0  0  0
   -1.1993   -2.0551   -2.6679 O   0  0  0  0  0  0  0  0  0  0  0  0
   -1.0093   -2.6073   -3.9719 C   0  0  0  0  0  0  0  0  0  0  0  0
   -2.3420   -3.1477   -4.4578 C   0  0  0  0  0  0  0  0  0  0  0  0
    0.5515   -0.5335   -1.9224 C   0  0  0  0  0  0  0  0  0  0  0  0
    0.1072    0.7208   -2.4353 C   0  0  0  0  0  0  0  0  0  0  0  0
   -1.0165    1.2414   -3.0237 N   0  0  0  0  0  0  0  0  0  0  0  0
   -0.7785    2.5731   -3.2394 C   0  0  0  0  0  0  0  0  0  0  0  0
   -1.5062    3.6560   -3.7216 C   0  0  0  0  0  0  0  0  0  0  0  0
   -2.3446    0.6811   -3.1320 C   0  0  0  0  0  0  0  0  0  0  0  0
   -3.2766    1.2559   -2.0671 C   0  0  0  0  0  0  0  0  0  0  0  0
   -0.1046   -4.4477   -1.2932 S   0  0  0  0  0  0  0  0  0  0  0  0
    1.2017   -4.9647   -0.2885 C   0  0  0  0  0  0  0  0  0  0  0  0
    1.5976   -6.1213    0.3700 C   0  0  0  0  0  0  0  0  0  0  0  0
    1.1282   -7.7462    0.6539 S   0  0  0  0  0  0  0  0  0  0  0  0
    2.5564   -7.9957    1.6676 C   0  0  0  0  0  0  0  0  0  0  0  0
    3.3311   -6.8475    1.7758 C   0  0  0  0  0  0  0  0  0  0  0  0
    2.7991   -5.7944    1.0427 C   0  0  0  0  0  0  0  0  0  0  0  0
    3.1348   -4.4916    0.7898 N   0  0  0  0  0  0  0  0  0  0  0  0
    4.3385   -3.9033    1.3246 C   0  0  0  0  0  0  0  0  0  0  0  0
    4.1146   -3.3837    2.7422 C   0  0  0  0  0  0  0  0  0  0  0  0
    2.1552   -3.9602   -0.0106 C   0  0  0  0  0  0  0  0  0  0  0  0
    2.6879   -9.2461    2.2947 C   0  0  0  0  0  0  0  0  0  0  0  0
    3.7198   -9.7906    3.0089 C   0  0  0  0  0  0  0  0  0  0  0  0
    3.4116  -10.9120    3.9361 C   0  0  0  0  0  0  0  0  0  0  0  0
    2.3875  -11.5549    3.9831 O   0  0  0  0  0  0  0  0  0  0  0  0
    4.5967  -11.0304    4.8110 C   0  0  0  0  0  0  0  0  0  0  0  0
    4.7831  -11.8429    5.9118 C   0  0  0  0  0  0  0  0  0  0  0  0
    5.9797  -11.7745    6.6176 C   0  0  0  0  0  0  0  0  0  0  0  0
    6.2502  -12.6229    7.8168 C   0  0  0  0  0  0  0  0  0  0  0  0
    6.9437  -10.8707    6.1675 C   0  0  0  0  0  0  0  0  0  0  0  0
    8.0989  -10.7860    6.8543 F   0  0  0  0  0  0  0  0  0  0  0  0
    6.7872  -10.0526    5.0601 C   0  0  0  0  0  0  0  0  0  0  0  0
    5.5894  -10.1385    4.3704 C   0  0  0  0  0  0  0  0  0  0  0  0
    5.1146   -9.4610    3.1632 C   0  0  0  0  0  0  0  0  0  0  0  0
    5.9268   -8.8463    2.2427 C   0  0  0  0  0  0  0  0  0  0  0  0
    5.5004   -8.4530    0.9598 C   0  0  0  0  0  0  0  0  0  0  0  0
    5.2102   -8.1315   -0.1037 N   0  0  0  0  0  0  0  0  0  0  0  0
    7.2989   -8.5976    2.4437 C   0  0  0  0  0  0  0  0  0  0  0  0
    8.4098   -8.3334    2.5641 N   0  0  0  0  0  0  0  0  0  0  0  0
   -0.3079    6.8290   -4.0987 H   0  0  0  0  0  0  0  0  0  0  0  0
   -6.3065    6.2731   -2.4993 H   0  0  0  0  0  0  0  0  0  0  0  0
   -4.2554   10.5464   -4.2862 H   0  0  0  0  0  0  0  0  0  0  0  0
   -7.6515   10.9063   -3.9092 H   0  0  0  0  0  0  0  0  0  0  0  0
   -6.9586   12.3755   -2.0229 H   0  0  0  0  0  0  0  0  0  0  0  0
   -5.1496   11.0568   -0.6723 H   0  0  0  0  0  0  0  0  0  0  0  0
   -6.2647    8.8353    0.2632 H   0  0  0  0  0  0  0  0  0  0  0  0
   -8.7625    8.7844   -0.5118 H   0  0  0  0  0  0  0  0  0  0  0  0
   -9.3155   11.0987   -1.7702 H   0  0  0  0  0  0  0  0  0  0  0  0
   -8.5871   11.4046   -0.1736 H   0  0  0  0  0  0  0  0  0  0  0  0
   -8.7319    8.7449   -3.0022 H   0  0  0  0  0  0  0  0  0  0  0  0
    5.0664   -0.5230    1.1051 H   0  0  0  0  0  0  0  0  0  0  0  0
    4.3719    0.5494   -0.1213 H   0  0  0  0  0  0  0  0  0  0  0  0
    3.6823    1.2527    2.1497 H   0  0  0  0  0  0  0  0  0  0  0  0
    2.2618    0.7064    1.2579 H   0  0  0  0  0  0  0  0  0  0  0  0
    2.9968   -0.3443    2.4719 H   0  0  0  0  0  0  0  0  0  0  0  0
   -0.6350   -1.8222   -4.6454 H   0  0  0  0  0  0  0  0  0  0  0  0
   -0.2654   -3.4115   -3.9315 H   0  0  0  0  0  0  0  0  0  0  0  0
   -2.6952   -3.9169   -3.7768 H   0  0  0  0  0  0  0  0  0  0  0  0
   -2.2226   -3.5746   -5.4492 H   0  0  0  0  0  0  0  0  0  0  0  0
   -3.0811   -2.3522   -4.4989 H   0  0  0  0  0  0  0  0  0  0  0  0
   -2.5026    3.6105   -4.1147 H   0  0  0  0  0  0  0  0  0  0  0  0
   -2.7296    0.9128   -4.1300 H   0  0  0  0  0  0  0  0  0  0  0  0
   -2.2740   -0.3980   -3.0099 H   0  0  0  0  0  0  0  0  0  0  0  0
   -3.3862    2.3318   -2.1784 H   0  0  0  0  0  0  0  0  0  0  0  0
   -4.2566    0.7962   -2.1593 H   0  0  0  0  0  0  0  0  0  0  0  0
   -2.8871    1.0433   -1.0740 H   0  0  0  0  0  0  0  0  0  0  0  0
    4.1978   -6.7821    2.4075 H   0  0  0  0  0  0  0  0  0  0  0  0
    5.1105   -4.6782    1.3239 H   0  0  0  0  0  0  0  0  0  0  0  0
    4.6520   -3.0949    0.6680 H   0  0  0  0  0  0  0  0  0  0  0  0
    3.8138   -4.1923    3.4050 H   0  0  0  0  0  0  0  0  0  0  0  0
    3.3309   -2.6308    2.7421 H   0  0  0  0  0  0  0  0  0  0  0  0
    5.0290   -2.9398    3.1253 H   0  0  0  0  0  0  0  0  0  0  0  0
    1.7912   -9.8600    2.2876 H   0  0  0  0  0  0  0  0  0  0  0  0
    4.0023  -12.5234    6.2152 H   0  0  0  0  0  0  0  0  0  0  0  0
    6.4448  -11.9948    8.6856 H   0  0  0  0  0  0  0  0  0  0  0  0
    5.4064  -13.2727    8.0289 H   0  0  0  0  0  0  0  0  0  0  0  0
    7.1384  -13.2323    7.6530 H   0  0  0  0  0  0  0  0  0  0  0  0
    7.5824   -9.3810    4.7806 H   0  0  0  0  0  0  0  0  0  0  0  0
  1  2  2  0  0  0  0
  2  3  1  0  0  0  0
  3  4  2  0  0  0  0
  3  5  1  0  0  0  0
  5  6  2  0  0  0  0
  6  7  1  0  0  0  0
  7  8  2  0  0  0  0
  8  9  1  0  0  0  0
  9 10  2  0  0  0  0
 10 11  1  0  0  0  0
 11 12  2  0  0  0  0
 12 13  1  0  0  0  0
 13 14  3  0  0  0  0
 12 15  1  0  0  0  0
 15 16  3  0  0  0  0
  8 17  1  0  0  0  0
 17 18  1  0  0  0  0
 18 19  1  0  0  0  0
 19 20  2  0  0  0  0
 20 21  1  0  0  0  0
 21 22  1  0  0  0  0
 21 23  1  0  0  0  0
  1 24  1  0  0  0  0
 24 25  1  0  0  0  0
 25 26  1  0  0  0  0
 26 27  1  0  0  0  0
 27 28  1  0  0  0  0
 28 29  1  0  0  0  0
 29 30  2  0  0  0  0
 30 31  1  0  0  0  0
 31 32  1  0  0  0  0
 32 33  1  0  0  0  0
 30 34  1  0  0  0  0
 34 35  2  0  0  0  0
 35 36  1  0  0  0  0
 36 37  1  0  0  0  0
 37 38  1  0  0  0  0
 38 39  1  0  0  0  0
 36 40  2  0  0  0  0
 40 41  1  0  0  0  0
 41 42  1  0  0  0  0
 42 43  1  0  0  0  0
 43 44  1  0  0  0  0
 42 45  1  0  0  0  0
 45 46  1  0  0  0  0
 35 47  1  0  0  0  0
 47 48  1  0  0  0  0
 48 49  1  0  0  0  0
 49 50  1  0  0  0  0
 50 51  1  0  0  0  0
 51 52  2  0  0  0  0
 52 53  1  0  0  0  0
 53 54  1  0  0  0  0
 54 55  1  0  0  0  0
 55 56  1  0  0  0  0
 54 57  1  0  0  0  0
 51 58  1  0  0  0  0
 58 59  2  0  0  0  0
 59 60  1  0  0  0  0
 60 61  2  0  0  0  0
 60 62  1  0  0  0  0
 62 63  2  0  0  0  0
 63 64  1  0  0  0  0
 64 65  1  0  0  0  0
 64 66  2  0  0  0  0
 66 67  1  0  0  0  0
 66 68  1  0  0  0  0
 68 69  2  0  0  0  0
 69 70  1  0  0  0  0
 70 71  2  0  0  0  0
 71 72  1  0  0  0  0
 72 73  3  0  0  0  0
 71 74  1  0  0  0  0
 74 75  3  0  0  0  0
 11  2  1  0  0  0  0
 23 17  1  0  0  0  0
 44 24  2  0  0  0  0
 57 48  2  0  0  0  0
 70 59  1  0  0  0  0
 10  5  1  0  0  0  0
 22 18  1  0  0  0  0
 43 26  2  0  0  0  0
 53 49  2  0  0  0  0
 69 62  1  0  0  0  0
 23  7  1  0  0  0  0
 41 27  2  0  0  0  0
 40 29  1  0  0  0  0
 57 34  1  0  0  0  0
  1 76  1  0  0  0  0
  6 77  1  0  0  0  0
  9 78  1  0  0  0  0
 17 79  1  0  0  0  0
 18 80  1  0  0  0  0
 19 81  1  0  0  0  0
 20 82  1  0  0  0  0
 21 83  1  0  0  0  0
 22 84  1  0  0  0  0
 22 85  1  0  0  0  0
 23 86  1  0  0  0  0
 32 87  1  0  0  0  0
 32 88  1  0  0  0  0
 33 89  1  0  0  0  0
 33 90  1  0  0  0  0
 33 91  1  0  0  0  0
 38 92  1  0  0  0  0
 38 93  1  0  0  0  0
 39 94  1  0  0  0  0
 39 95  1  0  0  0  0
 39 96  1  0  0  0  0
 44 97  1  0  0  0  0
 45 98  1  0  0  0  0
 45 99  1  0  0  0  0
 46100  1  0  0  0  0
 46101  1  0  0  0  0
 46102  1  0  0  0  0
 52103  1  0  0  0  0
 55104  1  0  0  0  0
 55105  1  0  0  0  0
 56106  1  0  0  0  0
 56107  1  0  0  0  0
 56108  1  0  0  0  0
 58109  1  0  0  0  0
 63110  1  0  0  0  0
 65111  1  0  0  0  0
 65112  1  0  0  0  0
 65113  1  0  0  0  0
 68114  1  0  0  0  0
M  END
