
  xtb     02012218273D
 energy: -210.404682855697 gnorm: 0.000860851995 xtb: 6.4.1 (unknown)
124140  0     0  0            999 V2000
   -3.9025    3.2910    7.5444 C   0  0  0  0  0  0  0  0  0  0  0  0
   -3.5741    4.4900    8.1213 C   0  0  0  0  0  0  0  0  0  0  0  0
   -2.5302    5.4122    7.6574 C   0  0  0  0  0  0  0  0  0  0  0  0
   -1.8019    5.2838    6.6894 O   0  0  0  0  0  0  0  0  0  0  0  0
   -2.5265    6.5420    8.6021 C   0  0  0  0  0  0  0  0  0  0  0  0
   -1.6959    7.6589    8.5666 C   0  0  0  0  0  0  0  0  0  0  0  0
   -1.9218    8.5551    9.5833 C   0  0  0  0  0  0  0  0  0  0  0  0
   -2.9054    8.3564   10.5610 C   0  0  0  0  0  0  0  0  0  0  0  0
   -3.7331    7.2595   10.6051 C   0  0  0  0  0  0  0  0  0  0  0  0
   -3.5171    6.3314    9.5823 C   0  0  0  0  0  0  0  0  0  0  0  0
   -4.1885    5.0623    9.3029 C   0  0  0  0  0  0  0  0  0  0  0  0
   -5.2250    4.5395   10.0350 C   0  0  0  0  0  0  0  0  0  0  0  0
   -5.8994    3.3302    9.7688 C   0  0  0  0  0  0  0  0  0  0  0  0
   -6.5090    2.3658    9.6279 N   0  0  0  0  0  0  0  0  0  0  0  0
   -5.7871    5.1490   11.1760 C   0  0  0  0  0  0  0  0  0  0  0  0
   -6.2955    5.5747   12.1138 N   0  0  0  0  0  0  0  0  0  0  0  0
   -2.5725    9.6445   11.2715 C   0  0  0  0  0  0  0  0  0  0  0  0
   -1.7469    9.5543   12.5786 C   0  0  0  0  0  0  0  0  0  0  0  0
   -0.9329    8.2876   12.4847 C   0  0  0  0  0  0  0  0  0  0  0  0
   -0.0003    8.4732   11.5601 C   0  0  0  0  0  0  0  0  0  0  0  0
   -0.1667    9.8691   11.0122 C   0  0  0  0  0  0  0  0  0  0  0  0
   -0.6604   10.5975   12.2723 C   0  0  0  0  0  0  0  0  0  0  0  0
   -1.4750    9.8647   10.1830 C   0  0  0  0  0  0  0  0  0  0  0  0
   -3.4043    2.6591    6.3950 C   0  0  0  0  0  0  0  0  0  0  0  0
   -2.1540    3.2831    5.3165 S   0  0  0  0  0  0  0  0  0  0  0  0
   -2.3393    1.8978    4.3129 C   0  0  0  0  0  0  0  0  0  0  0  0
   -1.8559    1.3274    3.1399 C   0  0  0  0  0  0  0  0  0  0  0  0
   -0.6793    1.6958    1.9280 S   0  0  0  0  0  0  0  0  0  0  0  0
   -1.1062    0.2161    1.1028 C   0  0  0  0  0  0  0  0  0  0  0  0
   -0.4913   -0.1526   -0.0804 C   0  0  0  0  0  0  0  0  0  0  0  0
    0.4158    0.7153   -0.6459 O   0  0  0  0  0  0  0  0  0  0  0  0
   -0.1082    1.4688   -1.7374 C   0  0  0  0  0  0  0  0  0  0  0  0
   -1.1465    2.5031   -1.3243 C   0  0  0  0  0  0  0  0  0  0  0  0
   -0.8278   -1.3907   -0.6449 C   0  0  0  0  0  0  0  0  0  0  0  0
   -1.9162   -2.1168   -0.0711 C   0  0  0  0  0  0  0  0  0  0  0  0
   -2.5925   -1.7013    1.0716 C   0  0  0  0  0  0  0  0  0  0  0  0
   -3.6417   -2.3420    1.6563 O   0  0  0  0  0  0  0  0  0  0  0  0
   -4.6420   -2.9929    0.8863 C   0  0  0  0  0  0  0  0  0  0  0  0
   -5.2785   -2.0891   -0.1605 C   0  0  0  0  0  0  0  0  0  0  0  0
   -2.1300   -0.5411    1.7290 C   0  0  0  0  0  0  0  0  0  0  0  0
   -2.5441    0.1138    2.9270 C   0  0  0  0  0  0  0  0  0  0  0  0
   -3.4191   -0.0883    3.9650 N   0  0  0  0  0  0  0  0  0  0  0  0
   -3.3160    0.9945    4.8002 C   0  0  0  0  0  0  0  0  0  0  0  0
   -3.9097    1.4255    5.9734 C   0  0  0  0  0  0  0  0  0  0  0  0
   -4.3375   -1.1695    4.2256 C   0  0  0  0  0  0  0  0  0  0  0  0
   -5.7477   -0.8249    3.7529 C   0  0  0  0  0  0  0  0  0  0  0  0
   -2.2852   -3.5990   -0.9565 S   0  0  0  0  0  0  0  0  0  0  0  0
   -0.9788   -3.2873   -2.0383 C   0  0  0  0  0  0  0  0  0  0  0  0
   -0.3461   -3.9109   -3.1060 C   0  0  0  0  0  0  0  0  0  0  0  0
   -0.4496   -5.2908   -4.1189 S   0  0  0  0  0  0  0  0  0  0  0  0
    1.0141   -4.7735   -4.9831 C   0  0  0  0  0  0  0  0  0  0  0  0
    1.5334   -3.5917   -4.4768 C   0  0  0  0  0  0  0  0  0  0  0  0
    0.7662   -3.0953   -3.4307 C   0  0  0  0  0  0  0  0  0  0  0  0
    0.8010   -2.0038   -2.6001 N   0  0  0  0  0  0  0  0  0  0  0  0
    1.9198   -1.0875   -2.5757 C   0  0  0  0  0  0  0  0  0  0  0  0
    2.0325   -0.2827   -3.8689 C   0  0  0  0  0  0  0  0  0  0  0  0
   -0.2714   -2.1050   -1.7490 C   0  0  0  0  0  0  0  0  0  0  0  0
    1.4100   -5.5979   -6.0510 C   0  0  0  0  0  0  0  0  0  0  0  0
    2.4526   -5.5143   -6.9370 C   0  0  0  0  0  0  0  0  0  0  0  0
    3.5564   -4.5321   -6.9893 C   0  0  0  0  0  0  0  0  0  0  0  0
    3.7270   -3.5328   -6.3152 O   0  0  0  0  0  0  0  0  0  0  0  0
    4.4638   -4.9936   -8.0545 C   0  0  0  0  0  0  0  0  0  0  0  0
    5.6627   -4.3952   -8.4385 C   0  0  0  0  0  0  0  0  0  0  0  0
    6.3110   -5.0476   -9.4587 C   0  0  0  0  0  0  0  0  0  0  0  0
    5.8033   -6.2102  -10.0542 C   0  0  0  0  0  0  0  0  0  0  0  0
    4.6202   -6.8062   -9.6885 C   0  0  0  0  0  0  0  0  0  0  0  0
    3.9427   -6.1570   -8.6508 C   0  0  0  0  0  0  0  0  0  0  0  0
    2.6705   -6.4763   -8.0071 C   0  0  0  0  0  0  0  0  0  0  0  0
    1.8271   -7.4817   -8.4054 C   0  0  0  0  0  0  0  0  0  0  0  0
    0.5562   -7.7823   -7.8697 C   0  0  0  0  0  0  0  0  0  0  0  0
   -0.4912   -8.1041   -7.5234 N   0  0  0  0  0  0  0  0  0  0  0  0
    2.0936   -8.3752   -9.4651 C   0  0  0  0  0  0  0  0  0  0  0  0
    2.2303   -9.1381  -10.3123 N   0  0  0  0  0  0  0  0  0  0  0  0
    6.9722   -6.3327  -10.9999 C   0  0  0  0  0  0  0  0  0  0  0  0
    8.0380   -7.3914  -10.6466 C   0  0  0  0  0  0  0  0  0  0  0  0
    9.2514   -6.9614  -11.4389 C   0  0  0  0  0  0  0  0  0  0  0  0
    9.7324   -5.8608  -10.8751 C   0  0  0  0  0  0  0  0  0  0  0  0
    8.8519   -5.5282   -9.6921 C   0  0  0  0  0  0  0  0  0  0  0  0
    8.4674   -6.9440   -9.2433 C   0  0  0  0  0  0  0  0  0  0  0  0
    7.5381   -5.0363  -10.3361 C   0  0  0  0  0  0  0  0  0  0  0  0
   -4.6808    2.7168    8.0325 H   0  0  0  0  0  0  0  0  0  0  0  0
   -0.9537    7.7720    7.7919 H   0  0  0  0  0  0  0  0  0  0  0  0
   -4.4848    7.1249   11.3645 H   0  0  0  0  0  0  0  0  0  0  0  0
   -3.3775   10.3738   11.3387 H   0  0  0  0  0  0  0  0  0  0  0  0
   -2.3264    9.6861   13.4883 H   0  0  0  0  0  0  0  0  0  0  0  0
   -1.1488    7.3947   13.0417 H   0  0  0  0  0  0  0  0  0  0  0  0
    0.7188    7.7661   11.1899 H   0  0  0  0  0  0  0  0  0  0  0  0
    0.6934   10.2879   10.4962 H   0  0  0  0  0  0  0  0  0  0  0  0
    0.0993   10.6554   13.0504 H   0  0  0  0  0  0  0  0  0  0  0  0
   -1.0577   11.5916   12.0712 H   0  0  0  0  0  0  0  0  0  0  0  0
   -1.5619   10.7390    9.5407 H   0  0  0  0  0  0  0  0  0  0  0  0
    0.7647    1.9638   -2.1681 H   0  0  0  0  0  0  0  0  0  0  0  0
   -0.5432    0.7859   -2.4800 H   0  0  0  0  0  0  0  0  0  0  0  0
   -1.4440    3.0785   -2.1969 H   0  0  0  0  0  0  0  0  0  0  0  0
   -2.0281    2.0206   -0.9074 H   0  0  0  0  0  0  0  0  0  0  0  0
   -0.7313    3.1761   -0.5792 H   0  0  0  0  0  0  0  0  0  0  0  0
   -4.2538   -3.9050    0.4215 H   0  0  0  0  0  0  0  0  0  0  0  0
   -5.3838   -3.2819    1.6362 H   0  0  0  0  0  0  0  0  0  0  0  0
   -6.1078   -2.6109   -0.6287 H   0  0  0  0  0  0  0  0  0  0  0  0
   -5.6514   -1.1770    0.3008 H   0  0  0  0  0  0  0  0  0  0  0  0
   -4.5599   -1.8195   -0.9303 H   0  0  0  0  0  0  0  0  0  0  0  0
   -4.6781    0.9082    6.5198 H   0  0  0  0  0  0  0  0  0  0  0  0
   -3.9764   -2.0639    3.7217 H   0  0  0  0  0  0  0  0  0  0  0  0
   -4.3404   -1.3461    5.3053 H   0  0  0  0  0  0  0  0  0  0  0  0
   -6.4264   -1.6417    3.9817 H   0  0  0  0  0  0  0  0  0  0  0  0
   -5.7507   -0.6564    2.6796 H   0  0  0  0  0  0  0  0  0  0  0  0
   -6.1061    0.0758    4.2460 H   0  0  0  0  0  0  0  0  0  0  0  0
    2.4283   -3.1529   -4.8756 H   0  0  0  0  0  0  0  0  0  0  0  0
    1.7998   -0.4248   -1.7196 H   0  0  0  0  0  0  0  0  0  0  0  0
    2.8354   -1.6730   -2.4347 H   0  0  0  0  0  0  0  0  0  0  0  0
    2.2948   -0.9217   -4.7069 H   0  0  0  0  0  0  0  0  0  0  0  0
    1.0945    0.2160   -4.0987 H   0  0  0  0  0  0  0  0  0  0  0  0
    2.8079    0.4698   -3.7564 H   0  0  0  0  0  0  0  0  0  0  0  0
    0.7527   -6.4495   -6.1803 H   0  0  0  0  0  0  0  0  0  0  0  0
    6.0133   -3.4978   -7.9531 H   0  0  0  0  0  0  0  0  0  0  0  0
    4.2464   -7.6990  -10.1603 H   0  0  0  0  0  0  0  0  0  0  0  0
    6.7281   -6.3117  -12.0602 H   0  0  0  0  0  0  0  0  0  0  0  0
    7.7140   -8.4214  -10.7677 H   0  0  0  0  0  0  0  0  0  0  0  0
    9.5907   -7.4539  -12.3312 H   0  0  0  0  0  0  0  0  0  0  0  0
   10.5534   -5.2500  -11.2023 H   0  0  0  0  0  0  0  0  0  0  0  0
    9.2701   -4.8611   -8.9430 H   0  0  0  0  0  0  0  0  0  0  0  0
    9.3243   -7.5064   -8.8763 H   0  0  0  0  0  0  0  0  0  0  0  0
    7.6688   -6.9737   -8.5044 H   0  0  0  0  0  0  0  0  0  0  0  0
    7.6725   -4.1507  -10.9546 H   0  0  0  0  0  0  0  0  0  0  0  0
  1  2  2  0  0  0  0
  2  3  1  0  0  0  0
  3  4  2  0  0  0  0
  3  5  1  0  0  0  0
  5  6  2  0  0  0  0
  6  7  1  0  0  0  0
  7  8  2  0  0  0  0
  8  9  1  0  0  0  0
  9 10  2  0  0  0  0
 10 11  1  0  0  0  0
 11 12  2  0  0  0  0
 12 13  1  0  0  0  0
 13 14  3  0  0  0  0
 12 15  1  0  0  0  0
 15 16  3  0  0  0  0
  8 17  1  0  0  0  0
 17 18  1  0  0  0  0
 18 19  1  0  0  0  0
 19 20  2  0  0  0  0
 20 21  1  0  0  0  0
 21 22  1  0  0  0  0
 21 23  1  0  0  0  0
  1 24  1  0  0  0  0
 24 25  1  0  0  0  0
 25 26  1  0  0  0  0
 26 27  1  0  0  0  0
 27 28  1  0  0  0  0
 28 29  1  0  0  0  0
 29 30  2  0  0  0  0
 30 31  1  0  0  0  0
 31 32  1  0  0  0  0
 32 33  1  0  0  0  0
 30 34  1  0  0  0  0
 34 35  2  0  0  0  0
 35 36  1  0  0  0  0
 36 37  1  0  0  0  0
 37 38  1  0  0  0  0
 38 39  1  0  0  0  0
 36 40  2  0  0  0  0
 40 41  1  0  0  0  0
 41 42  1  0  0  0  0
 42 43  1  0  0  0  0
 43 44  1  0  0  0  0
 42 45  1  0  0  0  0
 45 46  1  0  0  0  0
 35 47  1  0  0  0  0
 47 48  1  0  0  0  0
 48 49  1  0  0  0  0
 49 50  1  0  0  0  0
 50 51  1  0  0  0  0
 51 52  2  0  0  0  0
 52 53  1  0  0  0  0
 53 54  1  0  0  0  0
 54 55  1  0  0  0  0
 55 56  1  0  0  0  0
 54 57  1  0  0  0  0
 51 58  1  0  0  0  0
 58 59  2  0  0  0  0
 59 60  1  0  0  0  0
 60 61  2  0  0  0  0
 60 62  1  0  0  0  0
 62 63  2  0  0  0  0
 63 64  1  0  0  0  0
 64 65  2  0  0  0  0
 65 66  1  0  0  0  0
 66 67  2  0  0  0  0
 67 68  1  0  0  0  0
 68 69  2  0  0  0  0
 69 70  1  0  0  0  0
 70 71  3  0  0  0  0
 69 72  1  0  0  0  0
 72 73  3  0  0  0  0
 65 74  1  0  0  0  0
 74 75  1  0  0  0  0
 75 76  1  0  0  0  0
 76 77  2  0  0  0  0
 77 78  1  0  0  0  0
 78 79  1  0  0  0  0
 78 80  1  0  0  0  0
 11  2  1  0  0  0  0
 23 17  1  0  0  0  0
 44 24  2  0  0  0  0
 57 48  2  0  0  0  0
 68 59  1  0  0  0  0
 80 74  1  0  0  0  0
 10  5  1  0  0  0  0
 22 18  1  0  0  0  0
 43 26  2  0  0  0  0
 53 49  2  0  0  0  0
 67 62  1  0  0  0  0
 79 75  1  0  0  0  0
 23  7  1  0  0  0  0
 41 27  2  0  0  0  0
 80 64  1  0  0  0  0
 40 29  1  0  0  0  0
 57 34  1  0  0  0  0
  1 81  1  0  0  0  0
  6 82  1  0  0  0  0
  9 83  1  0  0  0  0
 17 84  1  0  0  0  0
 18 85  1  0  0  0  0
 19 86  1  0  0  0  0
 20 87  1  0  0  0  0
 21 88  1  0  0  0  0
 22 89  1  0  0  0  0
 22 90  1  0  0  0  0
 23 91  1  0  0  0  0
 32 92  1  0  0  0  0
 32 93  1  0  0  0  0
 33 94  1  0  0  0  0
 33 95  1  0  0  0  0
 33 96  1  0  0  0  0
 38 97  1  0  0  0  0
 38 98  1  0  0  0  0
 39 99  1  0  0  0  0
 39100  1  0  0  0  0
 39101  1  0  0  0  0
 44102  1  0  0  0  0
 45103  1  0  0  0  0
 45104  1  0  0  0  0
 46105  1  0  0  0  0
 46106  1  0  0  0  0
 46107  1  0  0  0  0
 52108  1  0  0  0  0
 55109  1  0  0  0  0
 55110  1  0  0  0  0
 56111  1  0  0  0  0
 56112  1  0  0  0  0
 56113  1  0  0  0  0
 58114  1  0  0  0  0
 63115  1  0  0  0  0
 66116  1  0  0  0  0
 74117  1  0  0  0  0
 75118  1  0  0  0  0
 76119  1  0  0  0  0
 77120  1  0  0  0  0
 78121  1  0  0  0  0
 79122  1  0  0  0  0
 79123  1  0  0  0  0
 80124  1  0  0  0  0
M  END
