114

C          2.02670        5.94590        5.39610
C          1.55870        7.20710        5.13010
C          0.88500        7.71470        3.91600
O          0.43140        7.09280        2.97260
C          0.87110        9.18350        4.04390
C          0.39660       10.09510        3.10330
C          0.52180       11.40890        3.48480
C          1.08820       11.78960        4.70870
C          1.55960       10.90060        5.64490
C          1.42870        9.55740        5.28130
C          1.79080        8.34320        6.00710
C          2.19070        8.30140        7.31780
C          2.43310        7.13520        8.07520
N          2.62780        6.24750        8.77790
C          2.36440        9.43930        8.13350
N          2.52950       10.31500        8.85790
C          0.89480       13.25930        4.43200
C         -0.27560       13.97730        5.14820
C         -1.31500       12.92200        5.43410
C         -1.85510       12.56190        4.27750
C         -1.19000       13.36680        3.18840
C         -0.92540       14.67850        3.94460
C          0.26010       12.83520        3.07000
C          1.89000        4.73630        4.69470
S          2.83440        3.36420        5.31210
C          2.20860        2.36130        4.07040
C          2.29160        1.07060        3.55870
S          3.17660       -0.38300        3.90790
C          2.38230       -1.11360        2.56150
C          2.43950       -2.34590        1.90110
C          3.33310       -3.42820        2.05540
C          3.31440       -4.47560        1.07820
N          4.25560       -5.38270        1.28910
S          5.08750       -4.95760        2.61140
N          4.28350       -3.59790        2.96090
C          2.31350       -4.45890        0.08270
C          2.01130       -5.39050       -0.92140
S          2.63850       -6.85920       -1.57450
C          1.29180       -6.92080       -2.69370
C          0.90560       -7.84360       -3.67450
C          1.73150       -8.99920       -4.12560
C          3.21460       -8.66420       -4.26040
C         -0.30110       -7.46730       -4.26520
S         -0.89570       -5.92130       -3.65070
C          0.41560       -5.83340       -2.54020
C          0.83500       -4.95740       -1.53770
N          0.40860       -3.77470       -0.97890
C          1.32350       -3.43630        0.01550
C          1.47990       -2.29810        0.85350
N          0.91140       -1.03800        0.85650
C          1.45800       -0.30200        1.88530
C          1.42100        0.99700        2.43840
N          0.80460        2.22110        2.27130
C          1.29830        3.05890        3.24300
C          1.12230        4.38990        3.59200
C          0.06870        2.76420        1.15440
C          1.00750        3.28160        0.06470
C         -0.00270       -0.47220       -0.09950
C         -1.42690       -0.41720        0.45840
C         -1.01570       -3.50880       -1.04000
C         -1.74230       -4.16370        0.13320
C         -1.05810       -8.05030       -5.29610
C         -1.20130       -9.38640       -5.57510
C         -0.99090      -10.47690       -4.60270
O         -0.57890      -10.39530       -3.46410
C         -1.51760      -11.69500       -5.26030
C         -1.56300      -12.98120       -4.76340
C         -2.12580      -13.94840       -5.58310
F         -2.18550      -15.21730       -5.14490
C         -2.63150      -13.65540       -6.84050
C         -2.58330      -12.35710       -7.32580
C         -2.02070      -11.36860       -6.53160
C         -1.82250       -9.93900       -6.75940
C         -2.09810       -9.26540       -7.92150
C         -2.68980       -9.85550       -9.05720
N         -3.17480      -10.27670      -10.00880
C         -1.80470       -7.90490       -8.15110
N         -1.57380       -6.81160       -8.41660
H          2.63660        5.84740        6.28670
H         -0.02490        9.75840        2.16890
H          1.99950       11.21070        6.57780
H          1.79930       13.86370        4.40690
H          0.02240       14.59730        5.98930
H         -1.50370       12.51710        6.41110
H         -2.58570       11.79570        4.09490
H         -1.72530       13.43240        2.24450
H         -1.84150       15.20490        4.20800
H         -0.25090       15.35380        3.41960
H          0.74920       13.16440        2.15510
H          1.35040       -9.34830       -5.08800
H          1.60020       -9.81680       -3.40980
H          3.66510       -8.46140       -3.29340
H          3.73570       -9.50670       -4.70780
H          3.35300       -7.79460       -4.89940
H          0.49230        5.10180        3.09290
H         -0.61550        2.01810        0.75520
H         -0.52870        3.59380        1.54050
H          1.66070        2.48860       -0.29540
H          0.43080        3.66930       -0.77050
H          1.62820        4.08210        0.45920
H          0.05550       -1.05110       -1.02180
H          0.34430        0.53600       -0.33990
H         -1.79080       -1.40970        0.70710
H         -2.10070        0.03270       -0.26670
H         -1.44930        0.17010        1.37380
H         -1.22680       -2.44500       -1.06890
H         -1.37160       -3.93940       -1.97930
H         -1.59340       -5.24080        0.11470
H         -2.80800       -3.96070        0.07120
H         -1.36260       -3.78390        1.08000
H         -1.62990       -7.34820       -5.89260
H         -1.17710      -13.22370       -3.78620
H         -3.06250      -14.44810       -7.43150
H         -2.98510      -12.13790       -8.30130
