
  xtb     02012220023D
 energy: -218.100264087907 gnorm: 0.000287808084 xtb: 6.4.1 (unknown)
127145  0     0  0            999 V2000
   -8.0134    0.8929    0.7694 C   0  0  0  0  0  0  0  0  0  0  0  0
   -9.2031    0.3719    1.2091 C   0  0  0  0  0  0  0  0  0  0  0  0
   -9.3624   -0.6411    2.2585 C   0  0  0  0  0  0  0  0  0  0  0  0
   -8.4938   -1.1226    2.9641 O   0  0  0  0  0  0  0  0  0  0  0  0
  -10.7962   -0.9783    2.2923 C   0  0  0  0  0  0  0  0  0  0  0  0
  -11.4151   -1.9250    3.1053 C   0  0  0  0  0  0  0  0  0  0  0  0
  -12.7690   -2.0384    2.8986 C   0  0  0  0  0  0  0  0  0  0  0  0
  -13.4572   -1.2635    1.9559 C   0  0  0  0  0  0  0  0  0  0  0  0
  -12.8594   -0.3210    1.1531 C   0  0  0  0  0  0  0  0  0  0  0  0
  -11.4801   -0.1921    1.3435 C   0  0  0  0  0  0  0  0  0  0  0  0
  -10.5140    0.6798    0.6758 C   0  0  0  0  0  0  0  0  0  0  0  0
  -10.8238    1.6261   -0.2692 C   0  0  0  0  0  0  0  0  0  0  0  0
   -9.9079    2.4902   -0.9032 C   0  0  0  0  0  0  0  0  0  0  0  0
   -9.2353    3.2330   -1.4666 N   0  0  0  0  0  0  0  0  0  0  0  0
  -12.1257    1.8870   -0.7442 C   0  0  0  0  0  0  0  0  0  0  0  0
  -13.1520    2.1576   -1.1832 N   0  0  0  0  0  0  0  0  0  0  0  0
  -14.7815   -1.9149    2.2678 C   0  0  0  0  0  0  0  0  0  0  0  0
  -15.2828   -2.9699    1.2589 C   0  0  0  0  0  0  0  0  0  0  0  0
  -16.3083   -3.7592    2.0402 C   0  0  0  0  0  0  0  0  0  0  0  0
  -15.6574   -4.4929    2.9339 C   0  0  0  0  0  0  0  0  0  0  0  0
  -14.1809   -4.2120    2.7714 C   0  0  0  0  0  0  0  0  0  0  0  0
  -14.1231   -3.9743    1.2568 C   0  0  0  0  0  0  0  0  0  0  0  0
  -14.0143   -2.7787    3.3197 C   0  0  0  0  0  0  0  0  0  0  0  0
   -6.6977    0.6485    1.1861 C   0  0  0  0  0  0  0  0  0  0  0  0
   -6.1939   -0.4033    2.5103 S   0  0  0  0  0  0  0  0  0  0  0  0
   -4.5497   -0.0275    2.1766 C   0  0  0  0  0  0  0  0  0  0  0  0
   -3.2582   -0.3398    2.5961 C   0  0  0  0  0  0  0  0  0  0  0  0
   -2.4968   -1.3849    3.7601 S   0  0  0  0  0  0  0  0  0  0  0  0
   -0.9672   -0.8830    3.1344 C   0  0  0  0  0  0  0  0  0  0  0  0
    0.3878   -1.1811    3.3540 C   0  0  0  0  0  0  0  0  0  0  0  0
    1.0305   -2.0055    4.3040 C   0  0  0  0  0  0  0  0  0  0  0  0
    2.4647   -2.0794    4.3054 C   0  0  0  0  0  0  0  0  0  0  0  0
    2.9297   -2.8506    5.2758 N   0  0  0  0  0  0  0  0  0  0  0  0
    1.6737   -3.4348    6.1135 S   0  0  0  0  0  0  0  0  0  0  0  0
    0.4876   -2.7300    5.2696 N   0  0  0  0  0  0  0  0  0  0  0  0
    3.1841   -1.4216    3.2829 C   0  0  0  0  0  0  0  0  0  0  0  0
    4.5382   -1.4636    2.9203 C   0  0  0  0  0  0  0  0  0  0  0  0
    6.0257   -2.1409    3.4837 S   0  0  0  0  0  0  0  0  0  0  0  0
    6.8282   -1.4955    2.0695 C   0  0  0  0  0  0  0  0  0  0  0  0
    8.1500   -1.5660    1.6202 C   0  0  0  0  0  0  0  0  0  0  0  0
    9.2248   -2.2914    2.3605 C   0  0  0  0  0  0  0  0  0  0  0  0
    9.2055   -3.7813    2.0080 C   0  0  0  0  0  0  0  0  0  0  0  0
    8.3140   -0.9027    0.4099 C   0  0  0  0  0  0  0  0  0  0  0  0
    6.7992   -0.2036   -0.1686 S   0  0  0  0  0  0  0  0  0  0  0  0
    5.9651   -0.7924    1.2189 C   0  0  0  0  0  0  0  0  0  0  0  0
    4.6600   -0.7629    1.7131 C   0  0  0  0  0  0  0  0  0  0  0  0
    3.4453   -0.2535    1.3425 N   0  0  0  0  0  0  0  0  0  0  0  0
    2.5202   -0.6385    2.2957 C   0  0  0  0  0  0  0  0  0  0  0  0
    1.1278   -0.4186    2.4161 C   0  0  0  0  0  0  0  0  0  0  0  0
    0.2511    0.3840    1.6908 N   0  0  0  0  0  0  0  0  0  0  0  0
   -1.0298    0.0692    2.1077 C   0  0  0  0  0  0  0  0  0  0  0  0
   -2.3581    0.3753    1.7676 C   0  0  0  0  0  0  0  0  0  0  0  0
   -3.0719    1.1239    0.8546 N   0  0  0  0  0  0  0  0  0  0  0  0
   -4.4037    0.8672    1.0869 C   0  0  0  0  0  0  0  0  0  0  0  0
   -5.6128    1.2499    0.5388 C   0  0  0  0  0  0  0  0  0  0  0  0
   -2.5895    1.7622   -0.3463 C   0  0  0  0  0  0  0  0  0  0  0  0
   -1.9372    0.7606   -1.2960 C   0  0  0  0  0  0  0  0  0  0  0  0
    0.5452    1.7259    1.2179 C   0  0  0  0  0  0  0  0  0  0  0  0
    1.4799    2.4852    2.1552 C   0  0  0  0  0  0  0  0  0  0  0  0
    3.2352    0.2527    0.0055 C   0  0  0  0  0  0  0  0  0  0  0  0
    2.3194   -0.6571   -0.8080 C   0  0  0  0  0  0  0  0  0  0  0  0
    9.4788   -0.8793   -0.3861 C   0  0  0  0  0  0  0  0  0  0  0  0
    9.7538   -0.1171   -1.4813 C   0  0  0  0  0  0  0  0  0  0  0  0
   10.7421   -0.5903   -2.4848 C   0  0  0  0  0  0  0  0  0  0  0  0
   11.5641   -1.4673   -2.3374 O   0  0  0  0  0  0  0  0  0  0  0  0
   10.4521    0.1867   -3.7075 C   0  0  0  0  0  0  0  0  0  0  0  0
   11.0091    0.0111   -4.9721 C   0  0  0  0  0  0  0  0  0  0  0  0
   10.5084    0.8621   -5.9284 C   0  0  0  0  0  0  0  0  0  0  0  0
    9.5263    1.8231   -5.6521 C   0  0  0  0  0  0  0  0  0  0  0  0
    8.9766    2.0178   -4.4073 C   0  0  0  0  0  0  0  0  0  0  0  0
    9.4703    1.1595   -3.4230 C   0  0  0  0  0  0  0  0  0  0  0  0
    9.1485    1.0872   -2.0008 C   0  0  0  0  0  0  0  0  0  0  0  0
    8.6212    2.1038   -1.2460 C   0  0  0  0  0  0  0  0  0  0  0  0
    8.0930    3.2954   -1.7761 C   0  0  0  0  0  0  0  0  0  0  0  0
    7.6207    4.2709   -2.1564 N   0  0  0  0  0  0  0  0  0  0  0  0
    8.6337    2.0865    0.1644 C   0  0  0  0  0  0  0  0  0  0  0  0
    8.6774    2.1216    1.3112 N   0  0  0  0  0  0  0  0  0  0  0  0
    9.4793    2.3027   -7.0807 C   0  0  0  0  0  0  0  0  0  0  0  0
    8.2908    1.8373   -7.9582 C   0  0  0  0  0  0  0  0  0  0  0  0
    7.8256    0.5203   -7.3884 C   0  0  0  0  0  0  0  0  0  0  0  0
    8.7571   -0.3865   -7.6512 C   0  0  0  0  0  0  0  0  0  0  0  0
    9.8695    0.3012   -8.4032 C   0  0  0  0  0  0  0  0  0  0  0  0
    9.0592    1.3412   -9.1935 C   0  0  0  0  0  0  0  0  0  0  0  0
   10.5757    1.2348   -7.3887 C   0  0  0  0  0  0  0  0  0  0  0  0
   -8.0691    1.5978   -0.0514 H   0  0  0  0  0  0  0  0  0  0  0  0
  -10.8454   -2.4985    3.8196 H   0  0  0  0  0  0  0  0  0  0  0  0
  -13.4053    0.2667    0.4345 H   0  0  0  0  0  0  0  0  0  0  0  0
  -15.5694   -1.2490    2.6145 H   0  0  0  0  0  0  0  0  0  0  0  0
  -15.6002   -2.5681    0.3005 H   0  0  0  0  0  0  0  0  0  0  0  0
  -17.3696   -3.6635    1.9045 H   0  0  0  0  0  0  0  0  0  0  0  0
  -16.0662   -5.1327    3.6938 H   0  0  0  0  0  0  0  0  0  0  0  0
  -13.4946   -4.9429    3.1906 H   0  0  0  0  0  0  0  0  0  0  0  0
  -13.1783   -3.5612    0.9081 H   0  0  0  0  0  0  0  0  0  0  0  0
  -14.3586   -4.8734    0.6898 H   0  0  0  0  0  0  0  0  0  0  0  0
  -14.2903   -2.6891    4.3687 H   0  0  0  0  0  0  0  0  0  0  0  0
   10.2001   -1.8646    2.1276 H   0  0  0  0  0  0  0  0  0  0  0  0
    9.0445   -2.1753    3.4310 H   0  0  0  0  0  0  0  0  0  0  0  0
    9.3827   -3.9269    0.9447 H   0  0  0  0  0  0  0  0  0  0  0  0
    9.9791   -4.3044    2.5635 H   0  0  0  0  0  0  0  0  0  0  0  0
    8.2418   -4.2167    2.2616 H   0  0  0  0  0  0  0  0  0  0  0  0
   -5.7511    1.9229   -0.2887 H   0  0  0  0  0  0  0  0  0  0  0  0
   -3.4520    2.2238   -0.8300 H   0  0  0  0  0  0  0  0  0  0  0  0
   -1.8851    2.5613   -0.0949 H   0  0  0  0  0  0  0  0  0  0  0  0
   -2.6579    0.0020   -1.5917 H   0  0  0  0  0  0  0  0  0  0  0  0
   -1.0976    0.2667   -0.8138 H   0  0  0  0  0  0  0  0  0  0  0  0
   -1.5809    1.2703   -2.1868 H   0  0  0  0  0  0  0  0  0  0  0  0
   -0.4069    2.2567    1.1934 H   0  0  0  0  0  0  0  0  0  0  0  0
    0.9398    1.7021    0.1983 H   0  0  0  0  0  0  0  0  0  0  0  0
    1.0501    2.5269    3.1537 H   0  0  0  0  0  0  0  0  0  0  0  0
    2.4568    2.0163    2.2264 H   0  0  0  0  0  0  0  0  0  0  0  0
    1.6101    3.5012    1.7911 H   0  0  0  0  0  0  0  0  0  0  0  0
    2.8496    1.2730    0.0389 H   0  0  0  0  0  0  0  0  0  0  0  0
    4.2187    0.2957   -0.4691 H   0  0  0  0  0  0  0  0  0  0  0  0
    1.3460   -0.7567   -0.3350 H   0  0  0  0  0  0  0  0  0  0  0  0
    2.1866   -0.2492   -1.8064 H   0  0  0  0  0  0  0  0  0  0  0  0
    2.7588   -1.6480   -0.8939 H   0  0  0  0  0  0  0  0  0  0  0  0
   10.2114   -1.6502   -0.1702 H   0  0  0  0  0  0  0  0  0  0  0  0
   11.7648   -0.7387   -5.1465 H   0  0  0  0  0  0  0  0  0  0  0  0
    8.2183    2.7559   -4.2017 H   0  0  0  0  0  0  0  0  0  0  0  0
    9.7275    3.3499   -7.2407 H   0  0  0  0  0  0  0  0  0  0  0  0
    7.5233    2.5907   -8.1147 H   0  0  0  0  0  0  0  0  0  0  0  0
    6.9221    0.3991   -6.8196 H   0  0  0  0  0  0  0  0  0  0  0  0
    8.7872   -1.4162   -7.3462 H   0  0  0  0  0  0  0  0  0  0  0  0
   10.5391   -0.3441   -8.9656 H   0  0  0  0  0  0  0  0  0  0  0  0
    9.6753    2.1094   -9.6584 H   0  0  0  0  0  0  0  0  0  0  0  0
    8.4087    0.8890   -9.9408 H   0  0  0  0  0  0  0  0  0  0  0  0
   11.5408    1.5852   -7.7492 H   0  0  0  0  0  0  0  0  0  0  0  0
  1  2  2  0  0  0  0
  2  3  1  0  0  0  0
  3  4  2  0  0  0  0
  3  5  1  0  0  0  0
  5  6  2  0  0  0  0
  6  7  1  0  0  0  0
  7  8  2  0  0  0  0
  8  9  1  0  0  0  0
  9 10  2  0  0  0  0
 10 11  1  0  0  0  0
 11 12  2  0  0  0  0
 12 13  1  0  0  0  0
 13 14  3  0  0  0  0
 12 15  1  0  0  0  0
 15 16  3  0  0  0  0
  8 17  1  0  0  0  0
 17 18  1  0  0  0  0
 18 19  1  0  0  0  0
 19 20  2  0  0  0  0
 20 21  1  0  0  0  0
 21 22  1  0  0  0  0
 21 23  1  0  0  0  0
  1 24  1  0  0  0  0
 24 25  1  0  0  0  0
 25 26  1  0  0  0  0
 26 27  1  0  0  0  0
 27 28  1  0  0  0  0
 28 29  1  0  0  0  0
 29 30  1  0  0  0  0
 30 31  1  0  0  0  0
 31 32  1  0  0  0  0
 32 33  2  0  0  0  0
 33 34  1  0  0  0  0
 34 35  1  0  0  0  0
 32 36  1  0  0  0  0
 36 37  1  0  0  0  0
 37 38  1  0  0  0  0
 38 39  1  0  0  0  0
 39 40  1  0  0  0  0
 40 41  1  0  0  0  0
 41 42  1  0  0  0  0
 40 43  2  0  0  0  0
 43 44  1  0  0  0  0
 44 45  1  0  0  0  0
 45 46  1  0  0  0  0
 46 47  1  0  0  0  0
 47 48  1  0  0  0  0
 48 49  1  0  0  0  0
 49 50  1  0  0  0  0
 50 51  1  0  0  0  0
 51 52  1  0  0  0  0
 52 53  1  0  0  0  0
 53 54  1  0  0  0  0
 54 55  1  0  0  0  0
 53 56  1  0  0  0  0
 56 57  1  0  0  0  0
 50 58  1  0  0  0  0
 58 59  1  0  0  0  0
 47 60  1  0  0  0  0
 60 61  1  0  0  0  0
 43 62  1  0  0  0  0
 62 63  2  0  0  0  0
 63 64  1  0  0  0  0
 64 65  2  0  0  0  0
 64 66  1  0  0  0  0
 66 67  2  0  0  0  0
 67 68  1  0  0  0  0
 68 69  2  0  0  0  0
 69 70  1  0  0  0  0
 70 71  2  0  0  0  0
 71 72  1  0  0  0  0
 72 73  2  0  0  0  0
 73 74  1  0  0  0  0
 74 75  3  0  0  0  0
 73 76  1  0  0  0  0
 76 77  3  0  0  0  0
 69 78  1  0  0  0  0
 78 79  1  0  0  0  0
 79 80  1  0  0  0  0
 80 81  2  0  0  0  0
 81 82  1  0  0  0  0
 82 83  1  0  0  0  0
 82 84  1  0  0  0  0
 11  2  1  0  0  0  0
 23 17  1  0  0  0  0
 55 24  2  0  0  0  0
 72 63  1  0  0  0  0
 84 78  1  0  0  0  0
 10  5  1  0  0  0  0
 22 18  1  0  0  0  0
 54 26  2  0  0  0  0
 71 66  1  0  0  0  0
 83 79  1  0  0  0  0
 23  7  1  0  0  0  0
 52 27  2  0  0  0  0
 84 68  1  0  0  0  0
 51 29  2  0  0  0  0
 49 30  2  0  0  0  0
 35 31  2  0  0  0  0
 48 36  2  0  0  0  0
 46 37  2  0  0  0  0
 45 39  2  0  0  0  0
  1 85  1  0  0  0  0
  6 86  1  0  0  0  0
  9 87  1  0  0  0  0
 17 88  1  0  0  0  0
 18 89  1  0  0  0  0
 19 90  1  0  0  0  0
 20 91  1  0  0  0  0
 21 92  1  0  0  0  0
 22 93  1  0  0  0  0
 22 94  1  0  0  0  0
 23 95  1  0  0  0  0
 41 96  1  0  0  0  0
 41 97  1  0  0  0  0
 42 98  1  0  0  0  0
 42 99  1  0  0  0  0
 42100  1  0  0  0  0
 55101  1  0  0  0  0
 56102  1  0  0  0  0
 56103  1  0  0  0  0
 57104  1  0  0  0  0
 57105  1  0  0  0  0
 57106  1  0  0  0  0
 58107  1  0  0  0  0
 58108  1  0  0  0  0
 59109  1  0  0  0  0
 59110  1  0  0  0  0
 59111  1  0  0  0  0
 60112  1  0  0  0  0
 60113  1  0  0  0  0
 61114  1  0  0  0  0
 61115  1  0  0  0  0
 61116  1  0  0  0  0
 62117  1  0  0  0  0
 67118  1  0  0  0  0
 70119  1  0  0  0  0
 78120  1  0  0  0  0
 79121  1  0  0  0  0
 80122  1  0  0  0  0
 81123  1  0  0  0  0
 82124  1  0  0  0  0
 83125  1  0  0  0  0
 83126  1  0  0  0  0
 84127  1  0  0  0  0
M  END
