114

C         -6.02660        2.29960       -4.11390
C         -6.29430        1.27810       -4.98790
C         -5.65710       -0.05530       -5.04950
O         -4.62950       -0.43900       -4.52280
C         -6.55560       -0.89200       -5.86600
C         -6.41390       -2.25360       -6.12300
C         -7.41980       -2.78440       -6.89310
C         -8.48760       -2.01650       -7.37660
C         -8.63410       -0.67060       -7.13770
C         -7.62270       -0.11210       -6.35130
C         -7.44160        1.25720       -5.87800
C         -8.18180        2.33990       -6.27630
C         -7.93100        3.67920       -5.90880
N         -7.77940        4.79570       -5.68610
C         -9.27800        2.27250       -7.16100
N        -10.18030        2.29240       -7.87110
C         -9.13930       -3.20040       -8.04600
C        -10.36450       -3.83700       -7.34380
C        -10.21600       -3.54240       -5.87180
C         -9.20510       -4.26850       -5.41360
C         -8.65150       -5.06710       -6.56780
C         -9.94020       -5.31410       -7.36820
C         -7.94920       -4.05560       -7.50770
C         -4.95640        2.45720       -3.21600
S         -5.17320        3.64520       -1.91440
C         -3.63720        3.23650       -1.26840
C         -2.79550        3.50020       -0.19020
S         -2.81370        4.42750        1.28290
C         -1.26450        3.76080        1.66320
C         -0.33120        3.83730        2.71050
C         -0.31800        4.58680        3.90780
C          0.81510        4.48130        4.78290
N          0.71090        5.27020        5.84070
S         -0.69160        6.07300        5.74700
N         -1.22190        5.44470        4.35440
C          1.83410        3.55240        4.47470
C          2.95190        3.12050        5.19950
S          3.76200        3.47180        6.68630
C          4.89600        2.17940        6.33620
C          5.98500        1.68070        7.03460
C          6.45290        2.26440        8.32720
C          7.56940        3.28510        8.08970
C          6.59790        0.61940        6.34130
S          5.78040        0.26250        4.81660
C          4.64280        1.52180        5.11830
C          3.53200        2.07000        4.47410
N          2.83040        1.85960        3.31700
C          1.78670        2.76370        3.28730
C          0.75250        2.99730        2.35120
N          0.51780        2.46880        1.08290
C         -0.73590        2.90200        0.69130
C         -1.63570        2.70300       -0.36800
N         -1.75330        1.96190       -1.52170
C         -2.98010        2.26680       -2.06360
C         -3.71870        1.83510       -3.15540
C         -1.04250        0.75930       -1.89200
C         -1.80380       -0.49460       -1.46510
C          1.54250        2.25620        0.07280
C          2.67130        3.27970        0.16220
C          3.03230        0.65380        2.54490
C          1.81780       -0.26790        2.60160
C          7.71790       -0.05650        6.82720
C          8.45360       -1.09050        6.29430
C          8.21220       -1.75340        5.01170
O          7.32340       -1.52490        4.20760
C          9.26610       -2.77500        4.87460
C          9.48630       -3.66480        3.84120
C         10.55510       -4.54170        3.93830
C         11.37410       -4.50950        5.06060
Cl        12.69800       -5.60720        5.16450
C         11.16200       -3.61800        6.10880
C         10.09470       -2.74260        6.00950
C          9.60820       -1.70080        6.91790
C         10.16840       -1.39260        8.13180
C         11.29790       -2.04250        8.67260
N         12.21070       -2.52370        9.17570
C          9.71550       -0.39770        9.02270
N          9.41250        0.38970        9.80330
H         -6.77020        3.08560       -4.04580
H         -5.57600       -2.80750       -5.72890
H         -9.46430       -0.09540       -7.51200
H         -9.26980       -3.12850       -9.12380
H        -11.32230       -3.58300       -7.78980
H        -10.80560       -2.81580       -5.34400
H         -8.78130       -4.26920       -4.42630
H         -8.05010       -5.93410       -6.30690
H        -10.64230       -5.96240       -6.84600
H         -9.76100       -5.69790       -8.37150
H         -7.30220       -4.54380       -8.23400
H          6.81110        1.48710        9.00370
H          5.60670        2.76650        8.80030
H          7.89090        3.70500        9.03830
H          8.42650        2.81510        7.61320
H          7.21520        4.09130        7.45150
H         -3.40090        1.10790       -3.87680
H         -0.06020        0.76610       -1.42170
H         -0.91370        0.76290       -2.97850
H         -1.22380       -1.37880       -1.71430
H         -2.76090       -0.55260       -1.97640
H         -1.98010       -0.48140       -0.39150
H          1.05610        2.38430       -0.89640
H          1.93180        1.23530        0.12430
H          3.36640        3.12290       -0.65880
H          2.26550        4.28600        0.08550
H          3.21750        3.20400        1.09770
H          3.89420        0.14520        2.98360
H          3.29300        0.89930        1.51380
H          1.60960       -0.54580        3.63200
H          2.01830       -1.17250        2.03400
H          0.93440        0.21610        2.19310
H          8.05390        0.31190        7.78670
H          8.83500       -3.66850        2.98100
H         10.75880       -5.25010        3.15100
H         11.82220       -3.62810        6.95990
