
  xtb     02022202043D
 energy: -253.611058617342 gnorm: 0.000987598594 xtb: 6.4.1 (unknown)
157174  0     0  0            999 V2000
    5.4637   -1.2842   -4.1175 C   0  0  0  0  0  0  0  0  0  0  0  0
    6.7883   -1.4736   -3.8061 C   0  0  0  0  0  0  0  0  0  0  0  0
    7.3442   -1.7170   -2.4727 C   0  0  0  0  0  0  0  0  0  0  0  0
    6.7352   -1.8228   -1.4213 O   0  0  0  0  0  0  0  0  0  0  0  0
    8.8045   -1.8100   -2.6415 C   0  0  0  0  0  0  0  0  0  0  0  0
    9.7524   -2.0165   -1.6420 C   0  0  0  0  0  0  0  0  0  0  0  0
   11.0484   -2.0425   -2.0985 C   0  0  0  0  0  0  0  0  0  0  0  0
   11.3761   -1.8804   -3.4508 C   0  0  0  0  0  0  0  0  0  0  0  0
   10.4497   -1.6822   -4.4472 C   0  0  0  0  0  0  0  0  0  0  0  0
    9.1242   -1.6467   -4.0041 C   0  0  0  0  0  0  0  0  0  0  0  0
    7.8841   -1.4417   -4.7528 C   0  0  0  0  0  0  0  0  0  0  0  0
    7.8064   -1.2430   -6.1095 C   0  0  0  0  0  0  0  0  0  0  0  0
    6.6259   -1.0246   -6.8480 C   0  0  0  0  0  0  0  0  0  0  0  0
    5.7173   -0.8278   -7.5250 N   0  0  0  0  0  0  0  0  0  0  0  0
    8.9151   -1.2222   -6.9807 C   0  0  0  0  0  0  0  0  0  0  0  0
    9.7629   -1.1968   -7.7550 N   0  0  0  0  0  0  0  0  0  0  0  0
   12.8568   -2.0023   -3.1899 C   0  0  0  0  0  0  0  0  0  0  0  0
   13.6657   -0.6878   -3.1899 C   0  0  0  0  0  0  0  0  0  0  0  0
   14.9352   -1.0448   -2.4510 C   0  0  0  0  0  0  0  0  0  0  0  0
   14.6262   -1.2000   -1.1700 C   0  0  0  0  0  0  0  0  0  0  0  0
   13.1427   -0.9502   -1.0215 C   0  0  0  0  0  0  0  0  0  0  0  0
   12.9463    0.1206   -2.1024 C   0  0  0  0  0  0  0  0  0  0  0  0
   12.4915   -2.1842   -1.6816 C   0  0  0  0  0  0  0  0  0  0  0  0
    4.3219   -1.2516   -3.3114 C   0  0  0  0  0  0  0  0  0  0  0  0
    4.3142   -1.5052   -1.5690 S   0  0  0  0  0  0  0  0  0  0  0  0
    2.6243   -1.2802   -1.5597 C   0  0  0  0  0  0  0  0  0  0  0  0
    1.6049   -1.1719   -0.5861 C   0  0  0  0  0  0  0  0  0  0  0  0
    0.4152   -0.8238   -1.1979 C   0  0  0  0  0  0  0  0  0  0  0  0
    0.5590   -0.8915   -2.7113 C   0  0  0  0  0  0  0  0  0  0  0  0
    2.0687   -1.0360   -2.8255 C   0  0  0  0  0  0  0  0  0  0  0  0
    3.0260   -1.0009   -3.8256 C   0  0  0  0  0  0  0  0  0  0  0  0
    2.7438   -0.7144   -5.2610 C   0  0  0  0  0  0  0  0  0  0  0  0
   -0.1506   -2.2006   -3.0488 C   0  0  0  0  0  0  0  0  0  0  0  0
   -1.5394   -2.2559   -3.0201 C   0  0  0  0  0  0  0  0  0  0  0  0
   -2.2056   -3.4430   -3.2511 C   0  0  0  0  0  0  0  0  0  0  0  0
   -1.5075   -4.6157   -3.5088 C   0  0  0  0  0  0  0  0  0  0  0  0
   -2.2340   -5.8947   -3.8070 C   0  0  0  0  0  0  0  0  0  0  0  0
   -2.5291   -6.0037   -5.3044 C   0  0  0  0  0  0  0  0  0  0  0  0
   -0.1213   -4.5599   -3.5302 C   0  0  0  0  0  0  0  0  0  0  0  0
    0.5506   -3.3738   -3.2958 C   0  0  0  0  0  0  0  0  0  0  0  0
    0.0250    0.3417   -3.4148 C   0  0  0  0  0  0  0  0  0  0  0  0
    0.1564    1.5465   -2.7253 C   0  0  0  0  0  0  0  0  0  0  0  0
   -0.3044    2.7378   -3.2428 C   0  0  0  0  0  0  0  0  0  0  0  0
   -0.9157    2.7644   -4.4893 C   0  0  0  0  0  0  0  0  0  0  0  0
   -1.4007    4.0546   -5.0831 C   0  0  0  0  0  0  0  0  0  0  0  0
   -0.2546    4.7843   -5.7857 C   0  0  0  0  0  0  0  0  0  0  0  0
   -1.0095    1.5749   -5.1902 C   0  0  0  0  0  0  0  0  0  0  0  0
   -0.5460    0.3601   -4.6903 C   0  0  0  0  0  0  0  0  0  0  0  0
   -0.7048   -0.8373   -5.5852 C   0  0  0  0  0  0  0  0  0  0  0  0
   -0.6105   -0.5273   -0.2732 C   0  0  0  0  0  0  0  0  0  0  0  0
   -1.8833    0.0106   -0.4775 C   0  0  0  0  0  0  0  0  0  0  0  0
   -2.6639    0.2809    0.6210 C   0  0  0  0  0  0  0  0  0  0  0  0
   -4.2610    1.0053    0.5629 S   0  0  0  0  0  0  0  0  0  0  0  0
   -4.3256    0.9742    2.2918 C   0  0  0  0  0  0  0  0  0  0  0  0
   -5.2424    1.3823    3.2881 C   0  0  0  0  0  0  0  0  0  0  0  0
   -4.6981    1.0627    4.5446 C   0  0  0  0  0  0  0  0  0  0  0  0
   -3.3427    0.4041    4.3926 C   0  0  0  0  0  0  0  0  0  0  0  0
   -2.3163    1.2252    5.1461 C   0  0  0  0  0  0  0  0  0  0  0  0
   -2.2802    1.1517    6.5342 C   0  0  0  0  0  0  0  0  0  0  0  0
   -1.3777    1.9091    7.2540 C   0  0  0  0  0  0  0  0  0  0  0  0
   -0.4911    2.7641    6.6101 C   0  0  0  0  0  0  0  0  0  0  0  0
    0.5252    3.5449    7.3918 C   0  0  0  0  0  0  0  0  0  0  0  0
    1.7993    2.7193    7.5837 C   0  0  0  0  0  0  0  0  0  0  0  0
   -0.5382    2.8406    5.2256 C   0  0  0  0  0  0  0  0  0  0  0  0
   -1.4435    2.0869    4.4992 C   0  0  0  0  0  0  0  0  0  0  0  0
   -3.3499   -1.0562    4.8212 C   0  0  0  0  0  0  0  0  0  0  0  0
   -4.5038   -1.8173    4.6878 C   0  0  0  0  0  0  0  0  0  0  0  0
   -4.5059   -3.1558    5.0315 C   0  0  0  0  0  0  0  0  0  0  0  0
   -3.3568   -3.7725    5.5087 C   0  0  0  0  0  0  0  0  0  0  0  0
   -3.3509   -5.2364    5.8411 C   0  0  0  0  0  0  0  0  0  0  0  0
   -2.9959   -6.0637    4.6039 C   0  0  0  0  0  0  0  0  0  0  0  0
   -2.2017   -3.0112    5.6244 C   0  0  0  0  0  0  0  0  0  0  0  0
   -2.1948   -1.6713    5.2842 C   0  0  0  0  0  0  0  0  0  0  0  0
   -3.1994    0.4331    2.8875 C   0  0  0  0  0  0  0  0  0  0  0  0
   -2.2237    0.0259    1.9540 C   0  0  0  0  0  0  0  0  0  0  0  0
   -0.9418   -0.4861    2.1628 C   0  0  0  0  0  0  0  0  0  0  0  0
   -0.1544   -0.7359    1.0646 C   0  0  0  0  0  0  0  0  0  0  0  0
    1.5191   -1.2556    1.1389 S   0  0  0  0  0  0  0  0  0  0  0  0
   -5.5157    1.4507    5.5772 C   0  0  0  0  0  0  0  0  0  0  0  0
   -6.6958    2.0720    5.1327 C   0  0  0  0  0  0  0  0  0  0  0  0
   -6.7620    2.1573    3.3752 S   0  0  0  0  0  0  0  0  0  0  0  0
   -7.6532    2.5537    6.0303 C   0  0  0  0  0  0  0  0  0  0  0  0
   -8.8443    3.2038    5.8071 C   0  0  0  0  0  0  0  0  0  0  0  0
   -9.3979    3.5466    4.4938 C   0  0  0  0  0  0  0  0  0  0  0  0
   -8.9218    3.3036    3.3985 O   0  0  0  0  0  0  0  0  0  0  0  0
  -10.6657    4.2513    4.7559 C   0  0  0  0  0  0  0  0  0  0  0  0
  -11.5651    4.7863    3.8542 C   0  0  0  0  0  0  0  0  0  0  0  0
  -12.7002    5.4127    4.3438 C   0  0  0  0  0  0  0  0  0  0  0  0
  -12.9085    5.4887    5.7158 C   0  0  0  0  0  0  0  0  0  0  0  0
  -14.3252    6.2710    6.3067 Cl  0  0  0  0  0  0  0  0  0  0  0  0
  -12.0096    4.9530    6.6342 C   0  0  0  0  0  0  0  0  0  0  0  0
  -10.8764    4.3281    6.1434 C   0  0  0  0  0  0  0  0  0  0  0  0
   -9.7556    3.6770    6.8273 C   0  0  0  0  0  0  0  0  0  0  0  0
   -9.6286    3.5553    8.1874 C   0  0  0  0  0  0  0  0  0  0  0  0
  -10.5688    4.0438    9.1192 C   0  0  0  0  0  0  0  0  0  0  0  0
  -11.2866    4.4145    9.9347 N   0  0  0  0  0  0  0  0  0  0  0  0
   -8.5606    2.9324    8.8662 C   0  0  0  0  0  0  0  0  0  0  0  0
   -7.7352    2.4448    9.4998 N   0  0  0  0  0  0  0  0  0  0  0  0
    5.2518   -1.1282   -5.1659 H   0  0  0  0  0  0  0  0  0  0  0  0
    9.4538   -2.1400   -0.6127 H   0  0  0  0  0  0  0  0  0  0  0  0
   10.7215   -1.5635   -5.4824 H   0  0  0  0  0  0  0  0  0  0  0  0
   13.3652   -2.8150   -3.7051 H   0  0  0  0  0  0  0  0  0  0  0  0
   13.7806   -0.2244   -4.1659 H   0  0  0  0  0  0  0  0  0  0  0  0
   15.8850   -1.1972   -2.9292 H   0  0  0  0  0  0  0  0  0  0  0  0
   15.2664   -1.5083   -0.3642 H   0  0  0  0  0  0  0  0  0  0  0  0
   12.7823   -0.7249   -0.0213 H   0  0  0  0  0  0  0  0  0  0  0  0
   13.4684    1.0460   -1.8646 H   0  0  0  0  0  0  0  0  0  0  0  0
   11.9039    0.3384   -2.3273 H   0  0  0  0  0  0  0  0  0  0  0  0
   12.7557   -3.1191   -1.1908 H   0  0  0  0  0  0  0  0  0  0  0  0
    1.8443   -0.1125   -5.3414 H   0  0  0  0  0  0  0  0  0  0  0  0
    3.5585   -0.1757   -5.7376 H   0  0  0  0  0  0  0  0  0  0  0  0
    2.5911   -1.6432   -5.8117 H   0  0  0  0  0  0  0  0  0  0  0  0
   -2.1074   -1.3594   -2.8308 H   0  0  0  0  0  0  0  0  0  0  0  0
   -3.2860   -3.4596   -3.2254 H   0  0  0  0  0  0  0  0  0  0  0  0
   -3.1737   -5.9246   -3.2519 H   0  0  0  0  0  0  0  0  0  0  0  0
   -1.6262   -6.7470   -3.4972 H   0  0  0  0  0  0  0  0  0  0  0  0
   -1.6032   -5.9859   -5.8748 H   0  0  0  0  0  0  0  0  0  0  0  0
   -3.0536   -6.9310   -5.5223 H   0  0  0  0  0  0  0  0  0  0  0  0
   -3.1472   -5.1701   -5.6302 H   0  0  0  0  0  0  0  0  0  0  0  0
    0.4460   -5.4582   -3.7276 H   0  0  0  0  0  0  0  0  0  0  0  0
    1.6299   -3.3707   -3.3152 H   0  0  0  0  0  0  0  0  0  0  0  0
    0.6303    1.5438   -1.7543 H   0  0  0  0  0  0  0  0  0  0  0  0
   -0.1942    3.6496   -2.6744 H   0  0  0  0  0  0  0  0  0  0  0  0
   -2.1966    3.8557   -5.8033 H   0  0  0  0  0  0  0  0  0  0  0  0
   -1.8043    4.6935   -4.2949 H   0  0  0  0  0  0  0  0  0  0  0  0
    0.1547    4.1678   -6.5826 H   0  0  0  0  0  0  0  0  0  0  0  0
   -0.6060    5.7194   -6.2153 H   0  0  0  0  0  0  0  0  0  0  0  0
    0.5432    5.0040   -5.0802 H   0  0  0  0  0  0  0  0  0  0  0  0
   -1.4615    1.5828   -6.1728 H   0  0  0  0  0  0  0  0  0  0  0  0
   -0.5682   -0.5362   -6.6227 H   0  0  0  0  0  0  0  0  0  0  0  0
   -0.0001   -1.6285   -5.3565 H   0  0  0  0  0  0  0  0  0  0  0  0
   -1.7101   -1.2480   -5.4890 H   0  0  0  0  0  0  0  0  0  0  0  0
   -2.2266    0.2544   -1.4694 H   0  0  0  0  0  0  0  0  0  0  0  0
   -2.9553    0.4851    7.0507 H   0  0  0  0  0  0  0  0  0  0  0  0
   -1.3621    1.8378    8.3320 H   0  0  0  0  0  0  0  0  0  0  0  0
    0.7707    4.4678    6.8629 H   0  0  0  0  0  0  0  0  0  0  0  0
    0.1170    3.8085    8.3694 H   0  0  0  0  0  0  0  0  0  0  0  0
    2.5362    3.2833    8.1504 H   0  0  0  0  0  0  0  0  0  0  0  0
    2.2289    2.4566    6.6195 H   0  0  0  0  0  0  0  0  0  0  0  0
    1.5772    1.8000    8.1211 H   0  0  0  0  0  0  0  0  0  0  0  0
    0.1395    3.5015    4.7042 H   0  0  0  0  0  0  0  0  0  0  0  0
   -1.4629    2.1731    3.4230 H   0  0  0  0  0  0  0  0  0  0  0  0
   -5.4100   -1.3613    4.3164 H   0  0  0  0  0  0  0  0  0  0  0  0
   -5.4161   -3.7293    4.9294 H   0  0  0  0  0  0  0  0  0  0  0  0
   -4.3355   -5.5373    6.2046 H   0  0  0  0  0  0  0  0  0  0  0  0
   -2.6205   -5.4345    6.6280 H   0  0  0  0  0  0  0  0  0  0  0  0
   -2.0116   -5.7866    4.2329 H   0  0  0  0  0  0  0  0  0  0  0  0
   -3.7204   -5.8897    3.8115 H   0  0  0  0  0  0  0  0  0  0  0  0
   -2.9912   -7.1242    4.8442 H   0  0  0  0  0  0  0  0  0  0  0  0
   -1.2941   -3.4707    5.9890 H   0  0  0  0  0  0  0  0  0  0  0  0
   -1.2857   -1.0989    5.3972 H   0  0  0  0  0  0  0  0  0  0  0  0
   -0.5754   -0.6492    3.1626 H   0  0  0  0  0  0  0  0  0  0  0  0
   -5.3094    1.3153    6.6237 H   0  0  0  0  0  0  0  0  0  0  0  0
   -7.3824    2.3822    7.0651 H   0  0  0  0  0  0  0  0  0  0  0  0
  -11.3777    4.7137    2.7942 H   0  0  0  0  0  0  0  0  0  0  0  0
  -13.4248    5.8428    3.6707 H   0  0  0  0  0  0  0  0  0  0  0  0
  -12.2115    5.0358    7.6891 H   0  0  0  0  0  0  0  0  0  0  0  0
  1  2  2  0  0  0  0
  2  3  1  0  0  0  0
  3  4  2  0  0  0  0
  3  5  1  0  0  0  0
  5  6  2  0  0  0  0
  6  7  1  0  0  0  0
  7  8  2  0  0  0  0
  8  9  1  0  0  0  0
  9 10  2  0  0  0  0
 10 11  1  0  0  0  0
 11 12  2  0  0  0  0
 12 13  1  0  0  0  0
 13 14  3  0  0  0  0
 12 15  1  0  0  0  0
 15 16  3  0  0  0  0
  8 17  1  0  0  0  0
 17 18  1  0  0  0  0
 18 19  1  0  0  0  0
 19 20  2  0  0  0  0
 20 21  1  0  0  0  0
 21 22  1  0  0  0  0
 21 23  1  0  0  0  0
  1 24  1  0  0  0  0
 24 25  1  0  0  0  0
 25 26  1  0  0  0  0
 26 27  1  0  0  0  0
 27 28  2  0  0  0  0
 28 29  1  0  0  0  0
 29 30  1  0  0  0  0
 30 31  1  0  0  0  0
 31 32  1  0  0  0  0
 29 33  1  0  0  0  0
 33 34  2  0  0  0  0
 34 35  1  0  0  0  0
 35 36  2  0  0  0  0
 36 37  1  0  0  0  0
 37 38  1  0  0  0  0
 36 39  1  0  0  0  0
 39 40  2  0  0  0  0
 29 41  1  0  0  0  0
 41 42  2  0  0  0  0
 42 43  1  0  0  0  0
 43 44  2  0  0  0  0
 44 45  1  0  0  0  0
 45 46  1  0  0  0  0
 44 47  1  0  0  0  0
 47 48  2  0  0  0  0
 48 49  1  0  0  0  0
 28 50  1  0  0  0  0
 50 51  2  0  0  0  0
 51 52  1  0  0  0  0
 52 53  1  0  0  0  0
 53 54  1  0  0  0  0
 54 55  1  0  0  0  0
 55 56  2  0  0  0  0
 56 57  1  0  0  0  0
 57 58  1  0  0  0  0
 58 59  2  0  0  0  0
 59 60  1  0  0  0  0
 60 61  2  0  0  0  0
 61 62  1  0  0  0  0
 62 63  1  0  0  0  0
 61 64  1  0  0  0  0
 64 65  2  0  0  0  0
 57 66  1  0  0  0  0
 66 67  2  0  0  0  0
 67 68  1  0  0  0  0
 68 69  2  0  0  0  0
 69 70  1  0  0  0  0
 70 71  1  0  0  0  0
 69 72  1  0  0  0  0
 72 73  2  0  0  0  0
 57 74  1  0  0  0  0
 74 75  1  0  0  0  0
 75 76  1  0  0  0  0
 76 77  2  0  0  0  0
 77 78  1  0  0  0  0
 56 79  1  0  0  0  0
 79 80  2  0  0  0  0
 80 81  1  0  0  0  0
 80 82  1  0  0  0  0
 82 83  2  0  0  0  0
 83 84  1  0  0  0  0
 84 85  2  0  0  0  0
 84 86  1  0  0  0  0
 86 87  2  0  0  0  0
 87 88  1  0  0  0  0
 88 89  2  0  0  0  0
 89 90  1  0  0  0  0
 89 91  1  0  0  0  0
 91 92  2  0  0  0  0
 92 93  1  0  0  0  0
 93 94  2  0  0  0  0
 94 95  1  0  0  0  0
 95 96  3  0  0  0  0
 94 97  1  0  0  0  0
 97 98  3  0  0  0  0
 11  2  1  0  0  0  0
 23 17  1  0  0  0  0
 31 24  2  0  0  0  0
 40 33  1  0  0  0  0
 48 41  1  0  0  0  0
 77 50  1  0  0  0  0
 93 83  1  0  0  0  0
 10  5  1  0  0  0  0
 22 18  1  0  0  0  0
 30 26  2  0  0  0  0
 75 52  2  0  0  0  0
 92 86  1  0  0  0  0
 23  7  1  0  0  0  0
 78 27  1  0  0  0  0
 74 54  2  0  0  0  0
 81 55  1  0  0  0  0
 65 58  1  0  0  0  0
 73 66  1  0  0  0  0
  1 99  1  0  0  0  0
  6100  1  0  0  0  0
  9101  1  0  0  0  0
 17102  1  0  0  0  0
 18103  1  0  0  0  0
 19104  1  0  0  0  0
 20105  1  0  0  0  0
 21106  1  0  0  0  0
 22107  1  0  0  0  0
 22108  1  0  0  0  0
 23109  1  0  0  0  0
 32110  1  0  0  0  0
 32111  1  0  0  0  0
 32112  1  0  0  0  0
 34113  1  0  0  0  0
 35114  1  0  0  0  0
 37115  1  0  0  0  0
 37116  1  0  0  0  0
 38117  1  0  0  0  0
 38118  1  0  0  0  0
 38119  1  0  0  0  0
 39120  1  0  0  0  0
 40121  1  0  0  0  0
 42122  1  0  0  0  0
 43123  1  0  0  0  0
 45124  1  0  0  0  0
 45125  1  0  0  0  0
 46126  1  0  0  0  0
 46127  1  0  0  0  0
 46128  1  0  0  0  0
 47129  1  0  0  0  0
 49130  1  0  0  0  0
 49131  1  0  0  0  0
 49132  1  0  0  0  0
 51133  1  0  0  0  0
 59134  1  0  0  0  0
 60135  1  0  0  0  0
 62136  1  0  0  0  0
 62137  1  0  0  0  0
 63138  1  0  0  0  0
 63139  1  0  0  0  0
 63140  1  0  0  0  0
 64141  1  0  0  0  0
 65142  1  0  0  0  0
 67143  1  0  0  0  0
 68144  1  0  0  0  0
 70145  1  0  0  0  0
 70146  1  0  0  0  0
 71147  1  0  0  0  0
 71148  1  0  0  0  0
 71149  1  0  0  0  0
 72150  1  0  0  0  0
 73151  1  0  0  0  0
 76152  1  0  0  0  0
 79153  1  0  0  0  0
 82154  1  0  0  0  0
 87155  1  0  0  0  0
 88156  1  0  0  0  0
 91157  1  0  0  0  0
M  END
