113

C          0.33690        1.33540       -7.00920
C          1.26810        1.42020       -8.01140
C          2.65720        0.95220       -7.93810
O          3.19480        0.36760       -7.01430
C          3.28930        1.33460       -9.21290
C          4.61330        1.12080       -9.58980
C          4.92290        1.60150      -10.83960
C          3.98280        2.24330      -11.65640
C          2.67240        2.45460      -11.29920
C          2.33660        1.97790      -10.02830
C          1.06340        2.02790       -9.31040
C         -0.10380        2.55380       -9.80550
C         -1.34280        2.59480       -9.13410
N         -2.39120        2.67010       -8.66830
C         -0.24200        3.13690      -11.08220
N         -0.43690        3.62670      -12.10260
C          4.98230        2.47720      -12.76150
C          5.55330        3.90630      -12.88050
C          6.81460        3.72450      -13.69340
C          7.70620        3.11420      -12.92320
C          7.06280        2.87430      -11.57630
C          6.16440        4.11480      -11.48880
C          6.03080        1.76000      -11.85180
C          0.42690        0.79900       -5.71700
S          1.82940       -0.00150       -5.00710
C          0.95520       -0.22260       -3.54280
C          1.10690       -0.72830       -2.25300
S          2.36390       -1.44440       -1.28660
C          1.26440       -1.45420        0.04540
C          1.28800       -1.81310        1.40340
C          2.28660       -2.41380        2.20140
C          1.99810       -2.70110        3.57810
N          3.00520       -3.30450        4.19020
S          4.21270       -3.49150        3.12850
N          3.49950       -2.80910        1.84790
C          0.76810       -2.27020        4.12280
C          0.29130       -2.24600        5.44140
S          0.77720       -2.76530        7.01730
C         -0.66420       -2.02280        7.67840
C         -1.13640       -1.91800        8.99200
C         -0.43270       -2.60250       10.11650
C         -1.20110       -3.84430       10.56970
C         -2.33410       -1.21130        9.04240
S         -2.86260       -0.71150        7.42440
C         -1.47000       -1.41850        6.70420
C         -0.92480       -1.55240        5.42470
N         -1.23500       -1.18140        4.14370
C         -0.21080       -1.61680        3.32140
C          0.00870       -1.50220        1.92810
N         -0.80130       -1.03030        0.89800
C         -0.01840       -0.96840       -0.24100
C         -0.11520       -0.51660       -1.56770
N         -1.01270        0.10440       -2.41180
C         -0.36000        0.30180       -3.60710
C         -0.65390        0.86980       -4.83190
C         -2.24420        0.77220       -2.06560
C         -2.01500        1.89160       -1.05320
C         -2.22750       -1.27690        0.77720
C         -2.63500       -2.63830        1.33370
C         -2.25950       -0.19310        3.89260
C         -1.66900        1.12360        3.39670
C         -3.23070       -0.81310       10.05660
C         -3.19760       -0.77310       11.41430
S         -1.93430       -1.17320       12.55600
C         -2.95670       -0.74970       13.91380
C         -2.48090       -0.89850       15.19210
C         -1.18110       -1.41150       15.38360
N         -0.12550       -1.83300       15.53850
C         -3.16120       -0.59050       16.38200
N         -3.65770       -0.35590       17.39090
N         -4.17130       -0.30750       13.50350
C         -5.22350        0.17490       14.37910
C         -4.99080        1.62390       14.78980
C         -4.37640       -0.28530       12.13010
O         -5.41330        0.08240       11.62340
H         -0.63700        1.76110       -7.21830
H          5.30260        0.61840       -8.92930
H          1.96280        2.94710      -11.94250
H          4.73820        2.03490      -13.72540
H          4.84530        4.65090      -13.23410
H          6.90630        3.99890      -14.72790
H          8.69170        2.77700      -13.18590
H          7.73190        2.67990      -10.74240
H          6.74040        5.03660      -11.42640
H          5.44080        4.08220      -10.67640
H          6.48480        0.83730      -12.20830
H          0.55780       -2.90030        9.76690
H         -0.30030       -1.92090       10.95610
H         -2.20870       -3.58270       10.88320
H         -0.68760       -4.31190       11.40500
H         -1.27020       -4.56220        9.75560
H         -1.58620        1.32600       -5.11380
H         -2.97090        0.05170       -1.67710
H         -2.65250        1.18600       -2.98920
H         -1.57660        1.49830       -0.13970
H         -2.95810        2.37360       -0.81150
H         -1.33800        2.63560       -1.46590
H         -2.80300       -0.47060        1.24050
H         -2.44950       -1.27230       -0.29030
H         -2.08190       -3.42630        0.82730
H         -3.69710       -2.79590        1.16320
H         -2.43940       -2.71840        2.39890
H         -3.00110       -0.58060        3.19200
H         -2.77020       -0.02620        4.84420
H         -1.11630        0.98130        2.47180
H         -0.98820        1.53060        4.14040
H         -2.46490        1.84320        3.22500
H         -4.17050       -0.41980        9.67300
H         -5.28890       -0.47330       15.25460
H         -6.14790        0.09890       13.79990
H         -4.94450        2.26070       13.90920
H         -5.81280        1.95390       15.41760
H         -4.06740        1.72840       15.35470
