
  xtb     02012217463D
 energy: -200.002775773400 gnorm: 0.000802827720 xtb: 6.4.1 (unknown)
111124  0     0  0            999 V2000
    6.9471    1.6404    0.1277 C   0  0  0  0  0  0  0  0  0  0  0  0
    7.5901    2.5518   -0.6673 C   0  0  0  0  0  0  0  0  0  0  0  0
    7.1126    3.2112   -1.9027 C   0  0  0  0  0  0  0  0  0  0  0  0
    6.0741    3.0346   -2.5120 O   0  0  0  0  0  0  0  0  0  0  0  0
    8.1643    4.1676   -2.2884 C   0  0  0  0  0  0  0  0  0  0  0  0
    8.1386    5.0298   -3.3825 C   0  0  0  0  0  0  0  0  0  0  0  0
    9.2561    5.8198   -3.4984 C   0  0  0  0  0  0  0  0  0  0  0  0
   10.3239    5.7538   -2.5930 C   0  0  0  0  0  0  0  0  0  0  0  0
   10.3630    4.9043   -1.5135 C   0  0  0  0  0  0  0  0  0  0  0  0
    9.2325    4.0930   -1.3746 C   0  0  0  0  0  0  0  0  0  0  0  0
    8.9134    3.0816   -0.3696 C   0  0  0  0  0  0  0  0  0  0  0  0
    9.7485    2.7095    0.6522 C   0  0  0  0  0  0  0  0  0  0  0  0
    9.5110    1.7149    1.6256 C   0  0  0  0  0  0  0  0  0  0  0  0
    9.4311    0.9261    2.4575 N   0  0  0  0  0  0  0  0  0  0  0  0
   11.0214    3.2716    0.8903 C   0  0  0  0  0  0  0  0  0  0  0  0
   12.0634    3.6722    1.1596 N   0  0  0  0  0  0  0  0  0  0  0  0
   11.1002    6.8312   -3.3074 C   0  0  0  0  0  0  0  0  0  0  0  0
   11.1088    8.2482   -2.6823 C   0  0  0  0  0  0  0  0  0  0  0  0
    9.8353    8.3727   -1.8835 C   0  0  0  0  0  0  0  0  0  0  0  0
    8.8246    8.4358   -2.7400 C   0  0  0  0  0  0  0  0  0  0  0  0
    9.3966    8.3548   -4.1338 C   0  0  0  0  0  0  0  0  0  0  0  0
   10.7348    9.0799   -3.9196 C   0  0  0  0  0  0  0  0  0  0  0  0
    9.9107    6.9050   -4.3159 C   0  0  0  0  0  0  0  0  0  0  0  0
    5.6816    1.0326    0.0317 C   0  0  0  0  0  0  0  0  0  0  0  0
    5.2497   -0.0401    1.3815 S   0  0  0  0  0  0  0  0  0  0  0  0
    3.7211   -0.3414    0.6639 C   0  0  0  0  0  0  0  0  0  0  0  0
    2.5248   -1.0179    0.8703 C   0  0  0  0  0  0  0  0  0  0  0  0
    1.7991   -2.0143    2.0813 S   0  0  0  0  0  0  0  0  0  0  0  0
    0.3229   -2.0635    1.1329 C   0  0  0  0  0  0  0  0  0  0  0  0
   -0.8210   -2.7058    1.5834 C   0  0  0  0  0  0  0  0  0  0  0  0
   -0.8159   -3.3690    2.7833 O   0  0  0  0  0  0  0  0  0  0  0  0
   -0.0620   -4.5815    2.8221 C   0  0  0  0  0  0  0  0  0  0  0  0
    0.1829   -4.9438    4.2755 C   0  0  0  0  0  0  0  0  0  0  0  0
   -1.9898   -2.5971    0.8117 C   0  0  0  0  0  0  0  0  0  0  0  0
   -1.8873   -1.9613   -0.4591 C   0  0  0  0  0  0  0  0  0  0  0  0
   -0.7164   -1.4002   -0.9491 C   0  0  0  0  0  0  0  0  0  0  0  0
   -0.6632   -0.8419   -2.2012 O   0  0  0  0  0  0  0  0  0  0  0  0
   -0.7872   -1.7459   -3.2971 C   0  0  0  0  0  0  0  0  0  0  0  0
    0.3568   -2.7512   -3.3520 C   0  0  0  0  0  0  0  0  0  0  0  0
    0.4064   -1.3683   -0.1050 C   0  0  0  0  0  0  0  0  0  0  0  0
    1.6830   -0.7446   -0.2284 C   0  0  0  0  0  0  0  0  0  0  0  0
    2.3395    0.0818   -1.1029 N   0  0  0  0  0  0  0  0  0  0  0  0
    3.5723    0.3461   -0.5659 C   0  0  0  0  0  0  0  0  0  0  0  0
    4.6749    1.1149   -0.9177 C   0  0  0  0  0  0  0  0  0  0  0  0
    1.8342    0.8125   -2.2415 C   0  0  0  0  0  0  0  0  0  0  0  0
    1.3956    2.2186   -1.8395 C   0  0  0  0  0  0  0  0  0  0  0  0
   -3.4005   -1.8980   -1.3464 S   0  0  0  0  0  0  0  0  0  0  0  0
   -4.1976   -2.6643   -0.0186 C   0  0  0  0  0  0  0  0  0  0  0  0
   -5.4901   -3.0314    0.3375 C   0  0  0  0  0  0  0  0  0  0  0  0
   -7.1077   -3.0104   -0.2452 S   0  0  0  0  0  0  0  0  0  0  0  0
   -7.6556   -3.7318    1.2719 C   0  0  0  0  0  0  0  0  0  0  0  0
   -6.6016   -3.9698    2.1635 C   0  0  0  0  0  0  0  0  0  0  0  0
   -5.3834   -3.5781    1.6433 C   0  0  0  0  0  0  0  0  0  0  0  0
   -4.0788   -3.5452    2.0644 N   0  0  0  0  0  0  0  0  0  0  0  0
   -3.6697   -4.0576    3.3497 C   0  0  0  0  0  0  0  0  0  0  0  0
   -3.6563   -5.5850    3.3555 C   0  0  0  0  0  0  0  0  0  0  0  0
   -3.3392   -2.9909    1.0520 C   0  0  0  0  0  0  0  0  0  0  0  0
   -8.9749   -4.0437    1.6174 C   0  0  0  0  0  0  0  0  0  0  0  0
  -10.1523   -3.8791    0.9271 C   0  0  0  0  0  0  0  0  0  0  0  0
  -10.2824   -3.3049   -0.4146 C   0  0  0  0  0  0  0  0  0  0  0  0
   -9.3933   -2.9088   -1.1428 O   0  0  0  0  0  0  0  0  0  0  0  0
  -11.7309   -3.3043   -0.7154 C   0  0  0  0  0  0  0  0  0  0  0  0
  -12.4321   -3.8546    0.3734 C   0  0  0  0  0  0  0  0  0  0  0  0
  -13.8130   -3.9571    0.3247 C   0  0  0  0  0  0  0  0  0  0  0  0
  -14.4733   -3.5082   -0.8101 C   0  0  0  0  0  0  0  0  0  0  0  0
  -13.7775   -2.9666   -1.8794 C   0  0  0  0  0  0  0  0  0  0  0  0
  -14.7359   -2.3719   -3.3951 Br  0  0  0  0  0  0  0  0  0  0  0  0
  -12.3826   -2.8540   -1.8515 C   0  0  0  0  0  0  0  0  0  0  0  0
  -11.5179   -2.1848   -3.1684 Cl  0  0  0  0  0  0  0  0  0  0  0  0
  -11.4696   -4.2292    1.4103 C   0  0  0  0  0  0  0  0  0  0  0  0
  -11.7965   -4.8100    2.6103 C   0  0  0  0  0  0  0  0  0  0  0  0
  -13.1130   -5.1207    3.0103 C   0  0  0  0  0  0  0  0  0  0  0  0
  -14.1548   -5.4019    3.4026 N   0  0  0  0  0  0  0  0  0  0  0  0
  -10.8869   -5.1903    3.6185 C   0  0  0  0  0  0  0  0  0  0  0  0
  -10.2214   -5.5278    4.4925 N   0  0  0  0  0  0  0  0  0  0  0  0
    7.4872    1.3271    1.0132 H   0  0  0  0  0  0  0  0  0  0  0  0
    7.2955    5.0451   -4.0555 H   0  0  0  0  0  0  0  0  0  0  0  0
   11.1941    4.8684   -0.8301 H   0  0  0  0  0  0  0  0  0  0  0  0
   12.0766    6.5411   -3.6902 H   0  0  0  0  0  0  0  0  0  0  0  0
   12.0279    8.5067   -2.1634 H   0  0  0  0  0  0  0  0  0  0  0  0
    9.7967    8.3450   -0.8103 H   0  0  0  0  0  0  0  0  0  0  0  0
    7.7725    8.4713   -2.5253 H   0  0  0  0  0  0  0  0  0  0  0  0
    8.7569    8.7113   -4.9369 H   0  0  0  0  0  0  0  0  0  0  0  0
   10.6090   10.1377   -3.6937 H   0  0  0  0  0  0  0  0  0  0  0  0
   11.4306    8.9610   -4.7490 H   0  0  0  0  0  0  0  0  0  0  0  0
   10.1104    6.6633   -5.3581 H   0  0  0  0  0  0  0  0  0  0  0  0
   -0.6335   -5.3711    2.3135 H   0  0  0  0  0  0  0  0  0  0  0  0
    0.8912   -4.4577    2.2981 H   0  0  0  0  0  0  0  0  0  0  0  0
    0.7536   -4.1560    4.7589 H   0  0  0  0  0  0  0  0  0  0  0  0
    0.7411   -5.8737    4.3304 H   0  0  0  0  0  0  0  0  0  0  0  0
   -0.7612   -5.0629    4.7994 H   0  0  0  0  0  0  0  0  0  0  0  0
   -1.7470   -2.2717   -3.2585 H   0  0  0  0  0  0  0  0  0  0  0  0
   -0.7792   -1.0988   -4.1770 H   0  0  0  0  0  0  0  0  0  0  0  0
    0.2526   -3.3700   -4.2384 H   0  0  0  0  0  0  0  0  0  0  0  0
    1.3163   -2.2400   -3.3895 H   0  0  0  0  0  0  0  0  0  0  0  0
    0.3396   -3.3931   -2.4731 H   0  0  0  0  0  0  0  0  0  0  0  0
    4.7715    1.7179   -1.8013 H   0  0  0  0  0  0  0  0  0  0  0  0
    0.9861    0.2724   -2.6554 H   0  0  0  0  0  0  0  0  0  0  0  0
    2.6355    0.8677   -2.9835 H   0  0  0  0  0  0  0  0  0  0  0  0
    0.5918    2.1651   -1.1091 H   0  0  0  0  0  0  0  0  0  0  0  0
    1.0346    2.7525   -2.7137 H   0  0  0  0  0  0  0  0  0  0  0  0
    2.2267    2.7732   -1.4100 H   0  0  0  0  0  0  0  0  0  0  0  0
   -6.7650   -4.4005    3.1352 H   0  0  0  0  0  0  0  0  0  0  0  0
   -4.3789   -3.6911    4.0985 H   0  0  0  0  0  0  0  0  0  0  0  0
   -2.6798   -3.6647    3.5774 H   0  0  0  0  0  0  0  0  0  0  0  0
   -2.9600   -5.9627    2.6108 H   0  0  0  0  0  0  0  0  0  0  0  0
   -3.3518   -5.9485    4.3329 H   0  0  0  0  0  0  0  0  0  0  0  0
   -4.6445   -5.9794    3.1309 H   0  0  0  0  0  0  0  0  0  0  0  0
   -9.0576   -4.4787    2.6061 H   0  0  0  0  0  0  0  0  0  0  0  0
  -14.3828   -4.3719    1.1389 H   0  0  0  0  0  0  0  0  0  0  0  0
  -15.5486   -3.5789   -0.8669 H   0  0  0  0  0  0  0  0  0  0  0  0
  1  2  2  0  0  0  0
  2  3  1  0  0  0  0
  3  4  2  0  0  0  0
  3  5  1  0  0  0  0
  5  6  2  0  0  0  0
  6  7  1  0  0  0  0
  7  8  2  0  0  0  0
  8  9  1  0  0  0  0
  9 10  2  0  0  0  0
 10 11  1  0  0  0  0
 11 12  2  0  0  0  0
 12 13  1  0  0  0  0
 13 14  3  0  0  0  0
 12 15  1  0  0  0  0
 15 16  3  0  0  0  0
  8 17  1  0  0  0  0
 17 18  1  0  0  0  0
 18 19  1  0  0  0  0
 19 20  2  0  0  0  0
 20 21  1  0  0  0  0
 21 22  1  0  0  0  0
 21 23  1  0  0  0  0
  1 24  1  0  0  0  0
 24 25  1  0  0  0  0
 25 26  1  0  0  0  0
 26 27  1  0  0  0  0
 27 28  1  0  0  0  0
 28 29  1  0  0  0  0
 29 30  2  0  0  0  0
 30 31  1  0  0  0  0
 31 32  1  0  0  0  0
 32 33  1  0  0  0  0
 30 34  1  0  0  0  0
 34 35  2  0  0  0  0
 35 36  1  0  0  0  0
 36 37  1  0  0  0  0
 37 38  1  0  0  0  0
 38 39  1  0  0  0  0
 36 40  2  0  0  0  0
 40 41  1  0  0  0  0
 41 42  1  0  0  0  0
 42 43  1  0  0  0  0
 43 44  1  0  0  0  0
 42 45  1  0  0  0  0
 45 46  1  0  0  0  0
 35 47  1  0  0  0  0
 47 48  1  0  0  0  0
 48 49  1  0  0  0  0
 49 50  1  0  0  0  0
 50 51  1  0  0  0  0
 51 52  2  0  0  0  0
 52 53  1  0  0  0  0
 53 54  1  0  0  0  0
 54 55  1  0  0  0  0
 55 56  1  0  0  0  0
 54 57  1  0  0  0  0
 51 58  1  0  0  0  0
 58 59  2  0  0  0  0
 59 60  1  0  0  0  0
 60 61  2  0  0  0  0
 60 62  1  0  0  0  0
 62 63  2  0  0  0  0
 63 64  1  0  0  0  0
 64 65  2  0  0  0  0
 65 66  1  0  0  0  0
 66 67  1  0  0  0  0
 66 68  2  0  0  0  0
 68 69  1  0  0  0  0
 63 70  1  0  0  0  0
 70 71  2  0  0  0  0
 71 72  1  0  0  0  0
 72 73  3  0  0  0  0
 71 74  1  0  0  0  0
 74 75  3  0  0  0  0
 11  2  1  0  0  0  0
 23 17  1  0  0  0  0
 44 24  2  0  0  0  0
 57 48  2  0  0  0  0
 70 59  1  0  0  0  0
 10  5  1  0  0  0  0
 22 18  1  0  0  0  0
 43 26  2  0  0  0  0
 53 49  2  0  0  0  0
 68 62  1  0  0  0  0
 23  7  1  0  0  0  0
 41 27  2  0  0  0  0
 40 29  1  0  0  0  0
 57 34  1  0  0  0  0
  1 76  1  0  0  0  0
  6 77  1  0  0  0  0
  9 78  1  0  0  0  0
 17 79  1  0  0  0  0
 18 80  1  0  0  0  0
 19 81  1  0  0  0  0
 20 82  1  0  0  0  0
 21 83  1  0  0  0  0
 22 84  1  0  0  0  0
 22 85  1  0  0  0  0
 23 86  1  0  0  0  0
 32 87  1  0  0  0  0
 32 88  1  0  0  0  0
 33 89  1  0  0  0  0
 33 90  1  0  0  0  0
 33 91  1  0  0  0  0
 38 92  1  0  0  0  0
 38 93  1  0  0  0  0
 39 94  1  0  0  0  0
 39 95  1  0  0  0  0
 39 96  1  0  0  0  0
 44 97  1  0  0  0  0
 45 98  1  0  0  0  0
 45 99  1  0  0  0  0
 46100  1  0  0  0  0
 46101  1  0  0  0  0
 46102  1  0  0  0  0
 52103  1  0  0  0  0
 55104  1  0  0  0  0
 55105  1  0  0  0  0
 56106  1  0  0  0  0
 56107  1  0  0  0  0
 56108  1  0  0  0  0
 58109  1  0  0  0  0
 64110  1  0  0  0  0
 65111  1  0  0  0  0
M  END
