116

C         -6.84600        4.17000        0.09260
C         -7.30550        3.89330       -1.17070
C         -6.54460        3.27490       -2.26010
O         -5.33810        3.10350       -2.32570
C         -7.53020        2.87370       -3.27670
C         -7.28350        2.15430       -4.44380
C         -8.41340        1.86900       -5.17160
C         -9.69400        2.27270       -4.77110
C         -9.94840        2.99860       -3.63100
C         -8.81230        3.29720       -2.87310
C         -8.68400        4.01340       -1.60470
C         -9.68520        4.71200       -0.98030
C        -11.00770        4.80800       -1.46050
N        -12.10090        4.92560       -1.79130
C         -9.53060        5.46950        0.19920
N         -9.47630        6.11790        1.14630
C        -10.35880        1.60970       -5.95210
C        -11.06400        0.26410       -5.67740
C        -11.18900       -0.36510       -7.04630
C         -9.97610       -0.74280       -7.42920
C         -9.01090       -0.37530       -6.32550
C         -9.91720       -0.57900       -5.10450
C         -8.93000        1.16440       -6.40110
C         -5.57960        3.97960        0.65950
C         -5.31760        4.11240        2.03330
C         -6.28840        4.58230        3.06720
C         -6.39950        6.10920        3.06480
C         -4.00880        3.75710        2.33490
S         -3.15290        3.59110        3.85760
C         -1.78870        2.97920        2.98810
C         -0.50620        2.47580        3.24630
C          0.21660        2.34130        4.45170
C          1.53970        1.79020        4.40870
N          2.11060        1.75160        5.60250
S          1.07240        2.35470        6.68730
N         -0.14770        2.68620        5.67680
C          2.03940        1.31090        3.17780
C          3.19140        0.56440        2.88530
S          4.53980       -0.14170        3.70800
C          5.01190       -0.91510        2.21550
C          6.01820       -1.81990        1.85930
S          7.24950       -2.69200        2.68390
C          7.69170       -3.51040        1.18030
C          6.90180       -3.09430        0.09380
C          7.04650       -3.53510       -1.32670
C          8.16250       -2.75530       -2.02760
C          5.95940       -2.16280        0.49900
S          4.65480       -1.37200       -0.34880
C          4.17360       -0.60120        1.13610
C          3.12540        0.23580        1.52720
N          1.99640        0.77030        0.96300
C          1.29870        1.42690        1.96630
C          0.05360        2.10760        1.98700
N         -0.84850        2.44270        0.99320
C         -1.97270        2.94060        1.60120
C         -3.24180        3.38340        1.21790
S         -4.15600        3.45480       -0.23850
C         -0.61220        2.72370       -0.40780
C         -1.34690        1.76470       -1.34410
C          1.51130        0.17240       -0.26200
C          0.64040       -1.04630        0.03590
C          8.67500       -4.49790        1.05320
C          9.44710       -5.12740        1.99750
C          9.39630       -4.90400        3.44610
O          8.77210       -4.04720        4.04520
C         10.25560       -5.94190        4.04670
C         10.49070       -6.19890        5.38260
C         11.32330       -7.25470        5.73790
C         11.61250       -7.60180        7.16130
C         11.88940       -8.00440        4.70520
F         12.69420       -9.03060        5.03940
C         11.67290       -7.76420        3.35770
C         10.83570       -6.71170        3.02430
C         10.38000       -6.20370        1.73160
C         10.79140       -6.67110        0.50940
C         10.38250       -6.17040       -0.74350
N         10.10330       -5.81840       -1.80150
C         11.70980       -7.72800        0.33690
N         12.44820       -8.58090        0.12430
H         -7.58360        4.52900        0.79830
H         -6.28110        1.85950       -4.71220
H        -10.93930        3.30180       -3.33710
H        -10.93150        2.26420       -6.60600
H        -11.97390        0.33910       -5.08820
H        -12.10780       -0.41900       -7.60000
H         -9.67900       -1.17510       -8.36670
H         -8.04980       -0.88280       -6.32660
H        -10.20010       -1.62190       -4.97160
H         -9.50330       -0.19330       -4.17460
H         -8.54760        1.52510       -7.35400
H         -7.27510        4.14680        2.90080
H         -5.92970        4.25040        4.04380
H         -5.42290        6.55910        3.22740
H         -7.06800        6.43020        3.85860
H         -6.79730        6.46750        2.11870
H          6.10120       -3.34720       -1.84120
H          7.25890       -4.60330       -1.38740
H          9.12030       -2.94000       -1.54830
H          8.23390       -3.06790       -3.06540
H          7.95710       -1.68770       -1.99600
H         -0.97330        3.73960       -0.60390
H          0.46560        2.72640       -0.58030
H         -1.20130        0.72900       -1.05240
H         -0.98750        1.90170       -2.36050
H         -2.41290        1.97150       -1.33450
H          2.39160       -0.13540       -0.83210
H          0.96520        0.89250       -0.86030
H         -0.22170       -0.76240        0.63630
H          0.29510       -1.49250       -0.89270
H          1.21050       -1.79090        0.58660
H          8.80450       -4.84180        0.03590
H         10.02450       -5.58480        6.13790
H         12.68570       -7.57210        7.34570
H         11.27600       -8.61600        7.37500
H         11.11440       -6.91230        7.83640
H         12.14830       -8.39650        2.62640
