117

C         -4.07020       -5.76250        2.80000
C         -5.39030       -5.83080        2.48780
C         -6.17950       -7.06260        2.75730
O         -5.74090       -8.15030        3.05880
C         -7.59230       -6.65670        2.62530
C         -8.72200       -7.43310        2.87550
C         -9.91130       -6.77770        2.66430
C         -9.97890       -5.43790        2.25720
C         -8.87530       -4.65930        2.00470
C         -7.65660       -5.31600        2.18870
C         -6.29830       -4.84320        1.94140
C         -5.96130       -3.82660        1.08600
C         -6.89400       -2.96490        0.47510
N         -7.60490       -2.23070       -0.04810
C         -4.65000       -3.59940        0.61980
N         -3.61290       -3.41850        0.16040
C        -11.48640       -5.43520        2.24050
C        -12.18460       -5.51570        0.86050
C        -11.22090       -6.21580       -0.06550
C        -11.15470       -7.48730        0.30640
C        -12.07220       -7.66970        1.49020
C        -13.17450       -6.65870        1.13610
C        -11.41160       -6.93100        2.68140
C         -3.28080       -4.59240        2.93960
S         -3.98520       -3.08280        3.52620
C         -2.47680       -2.28610        3.31270
C         -1.89390       -1.02420        3.38440
S         -2.35310        0.60390        3.78530
C         -0.77970        1.11850        3.28730
C         -0.09290        2.33920        3.14170
C         -0.38530        3.67780        3.49210
C          0.59770        4.70290        3.24320
N          0.20730        5.88910        3.68150
S         -1.26260        5.73850        4.34200
N         -1.46240        4.15350        4.09580
C          1.76850        4.37650        2.51970
C          2.78550        5.14590        1.93020
S          3.30390        6.79330        1.85140
C          4.55020        6.32620        0.71450
C          5.50620        7.05680        0.00820
C          5.65720        8.53720        0.13030
C          4.70170        9.25570       -0.82680
C          6.25670        6.23760       -0.83420
S          5.75480        4.54700       -0.72640
C          4.54980        4.95160        0.43380
C          3.55610        4.27730        1.14090
N          3.08980        2.99270        1.26150
C          2.00320        3.03640        2.11010
C          1.15380        2.01200        2.56630
N          1.28450        0.63050        2.44750
C          0.07380        0.09000        2.86040
C         -0.56480       -1.15990        2.90840
N         -0.33280       -2.47000        2.56900
C         -1.48900       -3.16330        2.81520
C         -1.93540       -4.47330        2.65180
C          0.80480       -3.04450        1.89650
C          1.74110       -3.76660        2.86330
C          2.54360       -0.00630        2.80320
C          2.61790       -0.28240        4.30470
C          3.34840        2.01070        0.22990
C          2.70460        2.42100       -1.09380
C          7.18370        6.66980       -1.79990
C          8.00350        5.93440       -2.60820
C          8.44160        6.49860       -3.90910
O          8.38260        7.65560       -4.26080
C          8.89270        5.33050       -4.69790
C          9.27490        5.27480       -6.02370
C          9.63070        4.05180       -6.58260
C         10.04690        3.91730       -8.01100
C          9.58680        2.92590       -5.75830
F          9.91690        1.73610       -6.29660
C          9.21970        2.95400       -4.42250
C          8.86430        4.18060       -3.88860
C          8.46010        4.56730       -2.53960
C          8.73340        3.86640       -1.39270
C          8.62460        4.43990       -0.10880
N          8.59970        4.90010        0.94270
C          9.22850        2.54930       -1.37450
N          9.59970        1.46460       -1.30730
H         -3.57950       -6.70900        3.00530
H         -8.62990       -8.45880        3.19680
H         -8.93500       -3.62800        1.69770
H        -11.97100       -4.72930        2.91200
H        -12.59220       -4.57330        0.50500
H        -10.66030       -5.71680       -0.83410
H        -10.52730       -8.26390       -0.09030
H        -12.37920       -8.68970        1.70660
H        -13.74150       -6.94660        0.25210
H        -13.85640       -6.45320        1.96010
H        -11.85540       -7.20570        3.63640
H          5.41690        8.82430        1.15590
H          6.68570        8.83190       -0.07770
H          3.67210        8.98360       -0.60690
H          4.80680       10.33160       -0.71700
H          4.91750        8.98940       -1.85900
H         -1.35160       -5.29470        2.27840
H          0.42740       -3.75350        1.15330
H          1.32990       -2.24920        1.36340
H          2.13760       -3.08130        3.60750
H          2.57100       -4.20610        2.31650
H          1.20580       -4.55990        3.37900
H          2.65710       -0.93640        2.24200
H          3.35870        0.66670        2.53720
H          1.80640       -0.93350        4.62160
H          3.56650       -0.75460        4.54650
H          2.54240        0.65050        4.85940
H          2.93830        1.05030        0.53430
H          4.43230        1.92130        0.10750
H          1.62930        2.53020       -0.96950
H          3.11320        3.36320       -1.44860
H          2.89470        1.65850       -1.84370
H          7.15580        7.72940       -2.03250
H          9.29340        6.17680       -6.61620
H          9.40540        3.20140       -8.52380
H          9.99280        4.87440       -8.52120
H         11.06680        3.53870       -8.07100
H          9.20820        2.03970       -3.85160
