117

C          7.83000        2.05870        1.80650
C          7.99300        3.04490        0.86510
C          6.93740        3.64970        0.05000
O          5.74110        3.40810        0.08080
C          7.59810        4.62680       -0.83000
C          6.99160        5.43390       -1.78900
C          7.86660        6.24570       -2.46960
C          9.24330        6.25690       -2.21080
C          9.85270        5.46930       -1.26250
C          8.98150        4.63120       -0.56140
C          9.25350        3.65920        0.49790
C         10.49120        3.39880        1.03080
C         10.77330        2.46830        2.05200
N         11.09150        1.73660        2.87950
C         11.68440        4.03630        0.63140
N         12.69780        4.50440        0.36180
C          9.51470        7.29500       -3.27070
C         10.12050        6.81300       -4.61210
C          9.69720        5.37510       -4.78210
C          8.39380        5.36310       -5.02740
C          7.91210        6.79290       -5.02750
C          9.15540        7.49700       -5.59380
C          7.98030        7.28180       -3.55930
C          6.68490        1.37670        2.23180
C          6.71880        0.35290        3.19520
C          7.94290       -0.17570        3.86870
C          8.62340       -1.23650        2.99920
C          5.45460       -0.17850        3.41300
S          4.87140       -1.46640        4.45360
C          3.27480       -1.19520        3.84500
C          1.97430       -1.69750        4.00340
C          1.44060       -2.66350        4.88520
C          0.03100       -2.93240        4.85130
N         -0.33610       -3.82050        5.76120
S          0.97690       -4.28230        6.58750
N          2.06640       -3.36770        5.81480
C         -0.75720       -2.32010        3.85110
C         -2.07830       -2.55650        3.44220
S         -3.42810       -3.53950        3.89520
C         -4.27730       -2.97150        2.48170
C         -5.52860       -3.24400        1.91770
S         -6.85650       -4.25850        2.31180
C         -7.67460       -3.79580        0.81610
C         -6.97550       -2.83350        0.09780
C         -7.50150       -2.10790       -1.09510
C         -7.39240       -0.59120       -0.94890
C         -5.75800       -2.54300        0.72860
S         -4.41200       -1.52170        0.30360
C         -3.54570       -2.05580        1.71530
C         -2.28520       -1.81340        2.27440
N         -1.15420       -1.10630        1.96650
C         -0.20220       -1.38930        2.92860
C          1.14400       -0.97640        3.09650
N          1.91260       -0.02260        2.45340
C          3.20290       -0.16820        2.89740
C          4.44260        0.42360        2.64690
S          5.05250        1.66940        1.62630
C          1.51840        1.26530        1.92260
C          1.61500        2.35270        2.99250
C         -1.01330       -0.50020        0.66170
C         -1.77670        0.82060        0.55840
C         -8.92000       -4.41270        0.55630
C         -9.40400       -4.78450       -0.66590
C         -8.57530       -4.99570       -1.87490
O         -7.40170       -4.73120       -2.03620
C         -9.44990       -5.71500       -2.82490
C         -9.12790       -6.16700       -4.08800
C        -10.11150       -6.84090       -4.81420
O         -9.94790       -7.33220       -6.06090
C         -8.70120       -7.16870       -6.69890
C        -11.37680       -7.04300       -4.24320
C        -11.68970       -6.58740       -2.97910
C        -10.71720       -5.90920       -2.25250
C        -10.73310       -5.30790       -0.92880
C        -11.82580       -5.17400       -0.11250
C        -13.10250       -5.68930       -0.41570
N        -14.16050       -6.09290       -0.60510
C        -11.82710       -4.46950        1.10900
N        -11.90600       -3.88320        2.09310
H          8.73040        1.73120        2.30750
H          5.92610        5.39370       -1.95340
H         10.91320        5.49380       -1.07690
H          9.96070        8.22520       -2.92450
H         11.18140        7.01770       -4.72740
H         10.35740        4.53750       -4.65330
H          7.74720        4.51300       -5.14400
H          6.96220        6.97940       -5.52190
H          9.35300        7.23280       -6.63160
H          9.12570        8.58070       -5.48910
H          7.42410        8.20410       -3.40270
H          8.65180        0.62470        4.08480
H          7.64180       -0.63090        4.81430
H          8.93110       -0.81290        2.04600
H          9.50470       -1.61830        3.50640
H          7.94260       -2.06300        2.80920
H         -6.94620       -2.43700       -1.97800
H         -8.54740       -2.38190       -1.24300
H         -7.86980       -0.10780       -1.79740
H         -7.88950       -0.26070       -0.03930
H         -6.35450       -0.27070       -0.91490
H          2.18900        1.50600        1.09240
H          0.49810        1.22240        1.56270
H          0.97830        2.10740        3.84020
H          2.63730        2.46090        3.34340
H          1.29370        3.30250        2.57450
H         -1.42820       -1.19820       -0.07430
H          0.04690       -0.37960        0.43760
H         -1.51200        1.50320        1.36290
H         -1.56030        1.29680       -0.39360
H         -2.84610        0.63840        0.61590
H         -9.49790       -4.67020        1.43660
H         -8.13750       -5.98660       -4.47410
H         -8.80710       -7.63970       -7.67450
H         -8.45650       -6.11080       -6.83160
H         -7.89910       -7.66260       -6.14280
H        -12.10930       -7.57420       -4.83000
H        -12.67160       -6.76770       -2.57340
