
  xtb     02022221273D
 energy: -201.877947440055 gnorm: 0.000421951915 xtb: 6.4.1 (unknown)
110125  0     0  0            999 V2000
    2.7291    4.0111   -4.8229 C   0  0  0  0  0  0  0  0  0  0  0  0
    3.6374    3.1714   -5.4169 C   0  0  0  0  0  0  0  0  0  0  0  0
    3.8398    1.7535   -5.1102 C   0  0  0  0  0  0  0  0  0  0  0  0
    3.2359    1.0757   -4.2940 O   0  0  0  0  0  0  0  0  0  0  0  0
    4.9265    1.2891   -5.9882 C   0  0  0  0  0  0  0  0  0  0  0  0
    5.4666    0.0062   -6.0493 C   0  0  0  0  0  0  0  0  0  0  0  0
    6.4812   -0.1299   -6.9662 C   0  0  0  0  0  0  0  0  0  0  0  0
    6.9316    0.9346   -7.7579 C   0  0  0  0  0  0  0  0  0  0  0  0
    6.4076    2.2046   -7.7073 C   0  0  0  0  0  0  0  0  0  0  0  0
    5.3670    2.3634   -6.7873 C   0  0  0  0  0  0  0  0  0  0  0  0
    4.5726    3.5466   -6.4588 C   0  0  0  0  0  0  0  0  0  0  0  0
    4.7075    4.7775   -7.0505 C   0  0  0  0  0  0  0  0  0  0  0  0
    5.6345    5.0782   -8.0703 C   0  0  0  0  0  0  0  0  0  0  0  0
    6.3580    5.4030   -8.9008 N   0  0  0  0  0  0  0  0  0  0  0  0
    3.9524    5.9292   -6.7472 C   0  0  0  0  0  0  0  0  0  0  0  0
    3.3865    6.9134   -6.5670 N   0  0  0  0  0  0  0  0  0  0  0  0
    7.9694    0.0869   -8.4501 C   0  0  0  0  0  0  0  0  0  0  0  0
    7.6341   -0.3784   -9.8827 C   0  0  0  0  0  0  0  0  0  0  0  0
    8.5645   -1.5477  -10.1105 C   0  0  0  0  0  0  0  0  0  0  0  0
    8.1340   -2.5572   -9.3647 C   0  0  0  0  0  0  0  0  0  0  0  0
    6.9052   -2.0870   -8.6199 C   0  0  0  0  0  0  0  0  0  0  0  0
    6.3147   -1.1300   -9.6635 C   0  0  0  0  0  0  0  0  0  0  0  0
    7.4640   -1.1018   -7.5709 C   0  0  0  0  0  0  0  0  0  0  0  0
    1.7997    3.7855   -3.8016 C   0  0  0  0  0  0  0  0  0  0  0  0
    0.9726    4.7982   -3.2871 C   0  0  0  0  0  0  0  0  0  0  0  0
    0.9715    6.2296   -3.7142 C   0  0  0  0  0  0  0  0  0  0  0  0
    2.0710    7.0137   -2.9924 C   0  0  0  0  0  0  0  0  0  0  0  0
    0.1710    4.3219   -2.2585 C   0  0  0  0  0  0  0  0  0  0  0  0
   -1.0199    5.1070   -1.2387 S   0  0  0  0  0  0  0  0  0  0  0  0
   -1.2698    3.6000   -0.4305 C   0  0  0  0  0  0  0  0  0  0  0  0
   -2.0768    3.0663    0.5820 C   0  0  0  0  0  0  0  0  0  0  0  0
   -3.1405    3.6350    1.3164 C   0  0  0  0  0  0  0  0  0  0  0  0
   -3.8826    2.8009    2.2153 C   0  0  0  0  0  0  0  0  0  0  0  0
   -4.8857    3.4443    2.7915 N   0  0  0  0  0  0  0  0  0  0  0  0
   -4.8927    4.9703    2.2528 S   0  0  0  0  0  0  0  0  0  0  0  0
   -3.6161    4.8693    1.2627 N   0  0  0  0  0  0  0  0  0  0  0  0
   -3.4472    1.4746    2.4298 C   0  0  0  0  0  0  0  0  0  0  0  0
   -3.8740    0.5100    3.3541 C   0  0  0  0  0  0  0  0  0  0  0  0
   -5.0778    0.3206    4.5796 S   0  0  0  0  0  0  0  0  0  0  0  0
   -4.3869   -1.2316    4.9749 C   0  0  0  0  0  0  0  0  0  0  0  0
   -4.6794   -2.2089    5.9306 C   0  0  0  0  0  0  0  0  0  0  0  0
   -5.8265   -2.3937    7.1966 S   0  0  0  0  0  0  0  0  0  0  0  0
   -5.1247   -3.9615    7.6146 C   0  0  0  0  0  0  0  0  0  0  0  0
   -4.0403   -4.3011    6.7831 C   0  0  0  0  0  0  0  0  0  0  0  0
   -3.1937   -5.5269    6.8980 C   0  0  0  0  0  0  0  0  0  0  0  0
   -2.1150   -5.3465    7.9698 C   0  0  0  0  0  0  0  0  0  0  0  0
   -3.8006   -3.3020    5.8539 C   0  0  0  0  0  0  0  0  0  0  0  0
   -2.6034   -3.1235    4.5946 S   0  0  0  0  0  0  0  0  0  0  0  0
   -3.2849   -1.5755    4.1776 C   0  0  0  0  0  0  0  0  0  0  0  0
   -2.9954   -0.5743    3.2463 C   0  0  0  0  0  0  0  0  0  0  0  0
   -2.0667   -0.3343    2.2656 N   0  0  0  0  0  0  0  0  0  0  0  0
   -2.3253    0.9266    1.7454 C   0  0  0  0  0  0  0  0  0  0  0  0
   -1.7127    1.6936    0.7199 C   0  0  0  0  0  0  0  0  0  0  0  0
   -0.7527    1.4019   -0.2297 N   0  0  0  0  0  0  0  0  0  0  0  0
   -0.4748    2.5546   -0.9171 C   0  0  0  0  0  0  0  0  0  0  0  0
    0.3495    2.9572   -1.9724 C   0  0  0  0  0  0  0  0  0  0  0  0
    1.5383    2.2390   -2.9943 S   0  0  0  0  0  0  0  0  0  0  0  0
   -0.3370    0.1282   -0.7743 C   0  0  0  0  0  0  0  0  0  0  0  0
    1.1249   -0.1904   -0.4650 C   0  0  0  0  0  0  0  0  0  0  0  0
   -0.8166   -1.0621    2.3166 C   0  0  0  0  0  0  0  0  0  0  0  0
    0.1980   -0.3427    3.2029 C   0  0  0  0  0  0  0  0  0  0  0  0
   -5.5675   -4.7966    8.6445 C   0  0  0  0  0  0  0  0  0  0  0  0
   -6.5612   -4.6359    9.5805 C   0  0  0  0  0  0  0  0  0  0  0  0
   -7.4313   -3.4574    9.7259 C   0  0  0  0  0  0  0  0  0  0  0  0
   -7.4430   -2.4571    9.0335 O   0  0  0  0  0  0  0  0  0  0  0  0
   -8.2843   -3.7472   10.8837 C   0  0  0  0  0  0  0  0  0  0  0  0
   -7.9583   -5.0418   11.4027 C   0  0  0  0  0  0  0  0  0  0  0  0
   -8.7076   -5.3898   12.4821 C   0  0  0  0  0  0  0  0  0  0  0  0
   -9.8307   -4.1427   12.8914 S   0  0  0  0  0  0  0  0  0  0  0  0
   -9.2785   -3.1281   11.5772 C   0  0  0  0  0  0  0  0  0  0  0  0
   -9.9577   -1.6009   11.2973 Cl  0  0  0  0  0  0  0  0  0  0  0  0
   -6.8928   -5.6130   10.5992 C   0  0  0  0  0  0  0  0  0  0  0  0
   -6.3500   -6.8564   10.8116 C   0  0  0  0  0  0  0  0  0  0  0  0
   -5.3237   -7.4545   10.0578 C   0  0  0  0  0  0  0  0  0  0  0  0
   -4.4895   -7.9977    9.4826 N   0  0  0  0  0  0  0  0  0  0  0  0
   -6.8048   -7.6830   11.8590 C   0  0  0  0  0  0  0  0  0  0  0  0
   -7.1604   -8.3718   12.7055 N   0  0  0  0  0  0  0  0  0  0  0  0
    2.7244    5.0309   -5.1820 H   0  0  0  0  0  0  0  0  0  0  0  0
    5.0948   -0.7822   -5.4137 H   0  0  0  0  0  0  0  0  0  0  0  0
    6.7697    3.0112   -8.3220 H   0  0  0  0  0  0  0  0  0  0  0  0
    9.0010    0.4152   -8.3389 H   0  0  0  0  0  0  0  0  0  0  0  0
    7.6446    0.4094  -10.6308 H   0  0  0  0  0  0  0  0  0  0  0  0
    9.4428   -1.5041  -10.7274 H   0  0  0  0  0  0  0  0  0  0  0  0
    8.5808   -3.5253   -9.2341 H   0  0  0  0  0  0  0  0  0  0  0  0
    6.2514   -2.8571   -8.2193 H   0  0  0  0  0  0  0  0  0  0  0  0
    5.5058   -0.5064   -9.2872 H   0  0  0  0  0  0  0  0  0  0  0  0
    5.9848   -1.6520  -10.5602 H   0  0  0  0  0  0  0  0  0  0  0  0
    8.1596   -1.5694   -6.8764 H   0  0  0  0  0  0  0  0  0  0  0  0
    1.1112    6.3192   -4.7924 H   0  0  0  0  0  0  0  0  0  0  0  0
    0.0014    6.6603   -3.4581 H   0  0  0  0  0  0  0  0  0  0  0  0
    2.0464    8.0536   -3.3050 H   0  0  0  0  0  0  0  0  0  0  0  0
    1.9238    6.9674   -1.9159 H   0  0  0  0  0  0  0  0  0  0  0  0
    3.0518    6.6070   -3.2276 H   0  0  0  0  0  0  0  0  0  0  0  0
   -2.7118   -5.7028    5.9335 H   0  0  0  0  0  0  0  0  0  0  0  0
   -3.8001   -6.4011    7.1389 H   0  0  0  0  0  0  0  0  0  0  0  0
   -2.5661   -5.1680    8.9428 H   0  0  0  0  0  0  0  0  0  0  0  0
   -1.4738   -4.5027    7.7248 H   0  0  0  0  0  0  0  0  0  0  0  0
   -1.5050   -6.2431    8.0325 H   0  0  0  0  0  0  0  0  0  0  0  0
   -0.4535    0.1829   -1.8624 H   0  0  0  0  0  0  0  0  0  0  0  0
   -1.0170   -0.6446   -0.4126 H   0  0  0  0  0  0  0  0  0  0  0  0
    1.3413   -0.0910    0.5950 H   0  0  0  0  0  0  0  0  0  0  0  0
    1.7754    0.4871   -1.0110 H   0  0  0  0  0  0  0  0  0  0  0  0
    1.3532   -1.2045   -0.7811 H   0  0  0  0  0  0  0  0  0  0  0  0
   -0.4084   -1.2124    1.3226 H   0  0  0  0  0  0  0  0  0  0  0  0
   -1.0421   -2.0451    2.7377 H   0  0  0  0  0  0  0  0  0  0  0  0
   -0.1911   -0.2374    4.2130 H   0  0  0  0  0  0  0  0  0  0  0  0
    1.1227   -0.9116    3.2454 H   0  0  0  0  0  0  0  0  0  0  0  0
    0.4103    0.6506    2.8122 H   0  0  0  0  0  0  0  0  0  0  0  0
   -5.0156   -5.7248    8.7099 H   0  0  0  0  0  0  0  0  0  0  0  0
   -8.6838   -6.2863   13.0689 H   0  0  0  0  0  0  0  0  0  0  0  0
  1  2  2  0  0  0  0
  2  3  1  0  0  0  0
  3  4  2  0  0  0  0
  3  5  1  0  0  0  0
  5  6  2  0  0  0  0
  6  7  1  0  0  0  0
  7  8  2  0  0  0  0
  8  9  1  0  0  0  0
  9 10  2  0  0  0  0
 10 11  1  0  0  0  0
 11 12  2  0  0  0  0
 12 13  1  0  0  0  0
 13 14  3  0  0  0  0
 12 15  1  0  0  0  0
 15 16  3  0  0  0  0
  8 17  1  0  0  0  0
 17 18  1  0  0  0  0
 18 19  1  0  0  0  0
 19 20  2  0  0  0  0
 20 21  1  0  0  0  0
 21 22  1  0  0  0  0
 21 23  1  0  0  0  0
  1 24  1  0  0  0  0
 24 25  2  0  0  0  0
 25 26  1  0  0  0  0
 26 27  1  0  0  0  0
 25 28  1  0  0  0  0
 28 29  1  0  0  0  0
 29 30  1  0  0  0  0
 30 31  1  0  0  0  0
 31 32  1  0  0  0  0
 32 33  1  0  0  0  0
 33 34  2  0  0  0  0
 34 35  1  0  0  0  0
 35 36  1  0  0  0  0
 33 37  1  0  0  0  0
 37 38  1  0  0  0  0
 38 39  1  0  0  0  0
 39 40  1  0  0  0  0
 40 41  1  0  0  0  0
 41 42  1  0  0  0  0
 42 43  1  0  0  0  0
 43 44  2  0  0  0  0
 44 45  1  0  0  0  0
 45 46  1  0  0  0  0
 44 47  1  0  0  0  0
 47 48  1  0  0  0  0
 48 49  1  0  0  0  0
 49 50  1  0  0  0  0
 50 51  1  0  0  0  0
 51 52  1  0  0  0  0
 52 53  1  0  0  0  0
 53 54  1  0  0  0  0
 54 55  1  0  0  0  0
 55 56  1  0  0  0  0
 56 57  1  0  0  0  0
 54 58  1  0  0  0  0
 58 59  1  0  0  0  0
 51 60  1  0  0  0  0
 60 61  1  0  0  0  0
 43 62  1  0  0  0  0
 62 63  2  0  0  0  0
 63 64  1  0  0  0  0
 64 65  2  0  0  0  0
 64 66  1  0  0  0  0
 66 67  1  0  0  0  0
 67 68  2  0  0  0  0
 68 69  1  0  0  0  0
 69 70  1  0  0  0  0
 70 71  1  0  0  0  0
 67 72  1  0  0  0  0
 72 73  2  0  0  0  0
 73 74  1  0  0  0  0
 74 75  3  0  0  0  0
 73 76  1  0  0  0  0
 76 77  3  0  0  0  0
 11  2  1  0  0  0  0
 23 17  1  0  0  0  0
 57 24  1  0  0  0  0
 72 63  1  0  0  0  0
 10  5  1  0  0  0  0
 22 18  1  0  0  0  0
 56 28  2  0  0  0  0
 70 66  2  0  0  0  0
 23  7  1  0  0  0  0
 55 30  2  0  0  0  0
 53 31  2  0  0  0  0
 36 32  2  0  0  0  0
 52 37  2  0  0  0  0
 50 38  2  0  0  0  0
 49 40  2  0  0  0  0
 47 41  2  0  0  0  0
  1 78  1  0  0  0  0
  6 79  1  0  0  0  0
  9 80  1  0  0  0  0
 17 81  1  0  0  0  0
 18 82  1  0  0  0  0
 19 83  1  0  0  0  0
 20 84  1  0  0  0  0
 21 85  1  0  0  0  0
 22 86  1  0  0  0  0
 22 87  1  0  0  0  0
 23 88  1  0  0  0  0
 26 89  1  0  0  0  0
 26 90  1  0  0  0  0
 27 91  1  0  0  0  0
 27 92  1  0  0  0  0
 27 93  1  0  0  0  0
 45 94  1  0  0  0  0
 45 95  1  0  0  0  0
 46 96  1  0  0  0  0
 46 97  1  0  0  0  0
 46 98  1  0  0  0  0
 58 99  1  0  0  0  0
 58100  1  0  0  0  0
 59101  1  0  0  0  0
 59102  1  0  0  0  0
 59103  1  0  0  0  0
 60104  1  0  0  0  0
 60105  1  0  0  0  0
 61106  1  0  0  0  0
 61107  1  0  0  0  0
 61108  1  0  0  0  0
 62109  1  0  0  0  0
 68110  1  0  0  0  0
M  END
