
  xtb     02022222163D
 energy: -189.110678213150 gnorm: 0.000563741578 xtb: 6.4.1 (unknown)
108122  0     0  0            999 V2000
   -0.1037   -2.1426   -6.0938 C   0  0  0  0  0  0  0  0  0  0  0  0
    1.2453   -2.0716   -6.3396 C   0  0  0  0  0  0  0  0  0  0  0  0
    2.2911   -1.7671   -5.3608 C   0  0  0  0  0  0  0  0  0  0  0  0
    2.1471   -1.4533   -4.1898 O   0  0  0  0  0  0  0  0  0  0  0  0
    3.5760   -1.9244   -6.0626 C   0  0  0  0  0  0  0  0  0  0  0  0
    4.8515   -1.7725   -5.5231 C   0  0  0  0  0  0  0  0  0  0  0  0
    5.8678   -1.9920   -6.4217 C   0  0  0  0  0  0  0  0  0  0  0  0
    5.6322   -2.3291   -7.7609 C   0  0  0  0  0  0  0  0  0  0  0  0
    4.3791   -2.4795   -8.3061 C   0  0  0  0  0  0  0  0  0  0  0  0
    3.3297   -2.2691   -7.4067 C   0  0  0  0  0  0  0  0  0  0  0  0
    1.8835   -2.3446   -7.6115 C   0  0  0  0  0  0  0  0  0  0  0  0
    1.2678   -2.5986   -8.8115 C   0  0  0  0  0  0  0  0  0  0  0  0
   -0.1241   -2.6282   -9.0353 C   0  0  0  0  0  0  0  0  0  0  0  0
   -1.2403   -2.6617   -9.3082 N   0  0  0  0  0  0  0  0  0  0  0  0
    1.9467   -2.8515  -10.0216 C   0  0  0  0  0  0  0  0  0  0  0  0
    2.4253   -3.0724  -11.0419 N   0  0  0  0  0  0  0  0  0  0  0  0
    7.1033   -2.4074   -8.0843 C   0  0  0  0  0  0  0  0  0  0  0  0
    7.7078   -3.8227   -8.1983 C   0  0  0  0  0  0  0  0  0  0  0  0
    9.1933   -3.5962   -8.0348 C   0  0  0  0  0  0  0  0  0  0  0  0
    9.4162   -3.2823   -6.7649 C   0  0  0  0  0  0  0  0  0  0  0  0
    8.0848   -3.2909   -6.0489 C   0  0  0  0  0  0  0  0  0  0  0  0
    7.3779   -4.4125   -6.8209 C   0  0  0  0  0  0  0  0  0  0  0  0
    7.3665   -2.0359   -6.5897 C   0  0  0  0  0  0  0  0  0  0  0  0
   -0.8387   -1.8850   -4.9320 C   0  0  0  0  0  0  0  0  0  0  0  0
   -2.2360   -2.0219   -4.8644 C   0  0  0  0  0  0  0  0  0  0  0  0
   -3.1318   -2.4316   -5.9873 C   0  0  0  0  0  0  0  0  0  0  0  0
   -3.4809   -1.2304   -6.8703 C   0  0  0  0  0  0  0  0  0  0  0  0
   -2.7197   -1.6650   -3.6130 C   0  0  0  0  0  0  0  0  0  0  0  0
   -4.3408   -1.6295   -2.9427 S   0  0  0  0  0  0  0  0  0  0  0  0
   -3.6751   -1.0561   -1.4534 C   0  0  0  0  0  0  0  0  0  0  0  0
   -4.1020   -0.7036   -0.1680 C   0  0  0  0  0  0  0  0  0  0  0  0
   -5.3852   -0.7747    0.4158 C   0  0  0  0  0  0  0  0  0  0  0  0
   -5.5330   -0.4288    1.7964 C   0  0  0  0  0  0  0  0  0  0  0  0
   -6.7760   -0.5768    2.2273 N   0  0  0  0  0  0  0  0  0  0  0  0
   -7.6835   -1.1055    0.9951 S   0  0  0  0  0  0  0  0  0  0  0  0
   -6.5244   -1.1652   -0.1340 N   0  0  0  0  0  0  0  0  0  0  0  0
   -4.4078    0.0536    2.4989 C   0  0  0  0  0  0  0  0  0  0  0  0
   -4.3121    0.5717    3.7975 C   0  0  0  0  0  0  0  0  0  0  0  0
   -5.3258    0.8566    5.1706 S   0  0  0  0  0  0  0  0  0  0  0  0
   -3.9731    1.6126    5.9709 C   0  0  0  0  0  0  0  0  0  0  0  0
   -3.7934    2.2320    7.2135 C   0  0  0  0  0  0  0  0  0  0  0  0
   -4.7898    2.5606    8.5732 S   0  0  0  0  0  0  0  0  0  0  0  0
   -3.4645    3.4266    9.3566 C   0  0  0  0  0  0  0  0  0  0  0  0
   -2.2921    3.3916    8.6187 C   0  0  0  0  0  0  0  0  0  0  0  0
   -0.9609    3.8730    9.1014 C   0  0  0  0  0  0  0  0  0  0  0  0
    0.1356    2.8230    8.9274 C   0  0  0  0  0  0  0  0  0  0  0  0
   -2.4978    2.7212    7.4015 C   0  0  0  0  0  0  0  0  0  0  0  0
   -1.4765    2.4045    6.0251 S   0  0  0  0  0  0  0  0  0  0  0  0
   -2.8022    1.6295    5.2050 C   0  0  0  0  0  0  0  0  0  0  0  0
   -2.9998    1.0219    3.9584 C   0  0  0  0  0  0  0  0  0  0  0  0
   -2.2839    0.7877    2.8177 N   0  0  0  0  0  0  0  0  0  0  0  0
   -3.1194    0.1746    1.8986 C   0  0  0  0  0  0  0  0  0  0  0  0
   -2.9451   -0.2921    0.5640 C   0  0  0  0  0  0  0  0  0  0  0  0
   -1.8481   -0.4471   -0.2620 N   0  0  0  0  0  0  0  0  0  0  0  0
   -2.2861   -0.8946   -1.4790 C   0  0  0  0  0  0  0  0  0  0  0  0
   -1.7262   -1.2512   -2.7092 C   0  0  0  0  0  0  0  0  0  0  0  0
   -0.1514   -1.3242   -3.4063 S   0  0  0  0  0  0  0  0  0  0  0  0
   -0.4248   -0.3665   -0.0296 C   0  0  0  0  0  0  0  0  0  0  0  0
    0.1816    0.9007   -0.6335 C   0  0  0  0  0  0  0  0  0  0  0  0
   -0.9349    1.2947    2.7320 C   0  0  0  0  0  0  0  0  0  0  0  0
    0.0593    0.3869    3.4568 C   0  0  0  0  0  0  0  0  0  0  0  0
   -3.7886    4.0466   10.5924 C   0  0  0  0  0  0  0  0  0  0  0  0
   -3.3499    5.2169   11.1139 C   0  0  0  0  0  0  0  0  0  0  0  0
   -2.2993    6.4155   10.3905 S   0  0  0  0  0  0  0  0  0  0  0  0
   -2.5377    7.5195   11.7422 C   0  0  0  0  0  0  0  0  0  0  0  0
   -1.8389    8.9891   11.8433 S   0  0  0  0  0  0  0  0  0  0  0  0
   -3.3572    6.9651   12.6692 N   0  0  0  0  0  0  0  0  0  0  0  0
   -3.7475    7.6696   13.8754 C   0  0  0  0  0  0  0  0  0  0  0  0
   -4.9075    8.6199   13.6077 C   0  0  0  0  0  0  0  0  0  0  0  0
   -3.8536    5.7004   12.4033 C   0  0  0  0  0  0  0  0  0  0  0  0
   -4.5939    5.0996   13.1485 O   0  0  0  0  0  0  0  0  0  0  0  0
   -0.7200   -2.4493   -6.9278 H   0  0  0  0  0  0  0  0  0  0  0  0
    4.9864   -1.5048   -4.4867 H   0  0  0  0  0  0  0  0  0  0  0  0
    4.2181   -2.7392   -9.3387 H   0  0  0  0  0  0  0  0  0  0  0  0
    7.4556   -1.7297   -8.8595 H   0  0  0  0  0  0  0  0  0  0  0  0
    7.3909   -4.3835   -9.0733 H   0  0  0  0  0  0  0  0  0  0  0  0
    9.8983   -3.6319   -8.8444 H   0  0  0  0  0  0  0  0  0  0  0  0
   10.3447   -3.0033   -6.3021 H   0  0  0  0  0  0  0  0  0  0  0  0
    8.1127   -3.3689   -4.9652 H   0  0  0  0  0  0  0  0  0  0  0  0
    7.8501   -5.3809   -6.6642 H   0  0  0  0  0  0  0  0  0  0  0  0
    6.3119   -4.4900   -6.6150 H   0  0  0  0  0  0  0  0  0  0  0  0
    7.8983   -1.1125   -6.3676 H   0  0  0  0  0  0  0  0  0  0  0  0
   -4.0504   -2.8370   -5.5582 H   0  0  0  0  0  0  0  0  0  0  0  0
   -2.6680   -3.2074   -6.5978 H   0  0  0  0  0  0  0  0  0  0  0  0
   -3.9697   -0.4578   -6.2813 H   0  0  0  0  0  0  0  0  0  0  0  0
   -2.5854   -0.8116   -7.3228 H   0  0  0  0  0  0  0  0  0  0  0  0
   -4.1515   -1.5418   -7.6659 H   0  0  0  0  0  0  0  0  0  0  0  0
   -0.6836    4.7805    8.5577 H   0  0  0  0  0  0  0  0  0  0  0  0
   -1.0394    4.1224   10.1588 H   0  0  0  0  0  0  0  0  0  0  0  0
    1.0566    3.1816    9.3795 H   0  0  0  0  0  0  0  0  0  0  0  0
    0.3282    2.6223    7.8769 H   0  0  0  0  0  0  0  0  0  0  0  0
   -0.1492    1.8927    9.4139 H   0  0  0  0  0  0  0  0  0  0  0  0
   -0.2248   -0.4480    1.0351 H   0  0  0  0  0  0  0  0  0  0  0  0
    0.0327   -1.2321   -0.5205 H   0  0  0  0  0  0  0  0  0  0  0  0
   -0.3634    1.7919   -0.3282 H   0  0  0  0  0  0  0  0  0  0  0  0
    1.2187    0.9953   -0.3248 H   0  0  0  0  0  0  0  0  0  0  0  0
    0.1537    0.8450   -1.7181 H   0  0  0  0  0  0  0  0  0  0  0  0
   -0.9263    2.2769    3.2170 H   0  0  0  0  0  0  0  0  0  0  0  0
   -0.6638    1.4412    1.6913 H   0  0  0  0  0  0  0  0  0  0  0  0
   -0.1399    0.3922    4.5251 H   0  0  0  0  0  0  0  0  0  0  0  0
    1.0719    0.7450    3.2943 H   0  0  0  0  0  0  0  0  0  0  0  0
   -0.0124   -0.6415    3.1085 H   0  0  0  0  0  0  0  0  0  0  0  0
   -4.5650    3.5627   11.1773 H   0  0  0  0  0  0  0  0  0  0  0  0
   -4.0402    6.9035   14.5973 H   0  0  0  0  0  0  0  0  0  0  0  0
   -2.8785    8.2207   14.2424 H   0  0  0  0  0  0  0  0  0  0  0  0
   -4.6190    9.3730   12.8782 H   0  0  0  0  0  0  0  0  0  0  0  0
   -5.7666    8.0693   13.2312 H   0  0  0  0  0  0  0  0  0  0  0  0
   -5.1883    9.1184   14.5306 H   0  0  0  0  0  0  0  0  0  0  0  0
  1  2  2  0  0  0  0
  2  3  1  0  0  0  0
  3  4  2  0  0  0  0
  3  5  1  0  0  0  0
  5  6  2  0  0  0  0
  6  7  1  0  0  0  0
  7  8  2  0  0  0  0
  8  9  1  0  0  0  0
  9 10  2  0  0  0  0
 10 11  1  0  0  0  0
 11 12  2  0  0  0  0
 12 13  1  0  0  0  0
 13 14  3  0  0  0  0
 12 15  1  0  0  0  0
 15 16  3  0  0  0  0
  8 17  1  0  0  0  0
 17 18  1  0  0  0  0
 18 19  1  0  0  0  0
 19 20  2  0  0  0  0
 20 21  1  0  0  0  0
 21 22  1  0  0  0  0
 21 23  1  0  0  0  0
  1 24  1  0  0  0  0
 24 25  2  0  0  0  0
 25 26  1  0  0  0  0
 26 27  1  0  0  0  0
 25 28  1  0  0  0  0
 28 29  1  0  0  0  0
 29 30  1  0  0  0  0
 30 31  1  0  0  0  0
 31 32  1  0  0  0  0
 32 33  1  0  0  0  0
 33 34  2  0  0  0  0
 34 35  1  0  0  0  0
 35 36  1  0  0  0  0
 33 37  1  0  0  0  0
 37 38  1  0  0  0  0
 38 39  1  0  0  0  0
 39 40  1  0  0  0  0
 40 41  1  0  0  0  0
 41 42  1  0  0  0  0
 42 43  1  0  0  0  0
 43 44  2  0  0  0  0
 44 45  1  0  0  0  0
 45 46  1  0  0  0  0
 44 47  1  0  0  0  0
 47 48  1  0  0  0  0
 48 49  1  0  0  0  0
 49 50  1  0  0  0  0
 50 51  1  0  0  0  0
 51 52  1  0  0  0  0
 52 53  1  0  0  0  0
 53 54  1  0  0  0  0
 54 55  1  0  0  0  0
 55 56  1  0  0  0  0
 56 57  1  0  0  0  0
 54 58  1  0  0  0  0
 58 59  1  0  0  0  0
 51 60  1  0  0  0  0
 60 61  1  0  0  0  0
 43 62  1  0  0  0  0
 62 63  2  0  0  0  0
 63 64  1  0  0  0  0
 64 65  1  0  0  0  0
 65 66  2  0  0  0  0
 65 67  1  0  0  0  0
 67 68  1  0  0  0  0
 68 69  1  0  0  0  0
 67 70  1  0  0  0  0
 70 71  2  0  0  0  0
 11  2  1  0  0  0  0
 23 17  1  0  0  0  0
 57 24  1  0  0  0  0
 70 63  1  0  0  0  0
 10  5  1  0  0  0  0
 22 18  1  0  0  0  0
 56 28  2  0  0  0  0
 23  7  1  0  0  0  0
 55 30  2  0  0  0  0
 53 31  2  0  0  0  0
 36 32  2  0  0  0  0
 52 37  2  0  0  0  0
 50 38  2  0  0  0  0
 49 40  2  0  0  0  0
 47 41  2  0  0  0  0
  1 72  1  0  0  0  0
  6 73  1  0  0  0  0
  9 74  1  0  0  0  0
 17 75  1  0  0  0  0
 18 76  1  0  0  0  0
 19 77  1  0  0  0  0
 20 78  1  0  0  0  0
 21 79  1  0  0  0  0
 22 80  1  0  0  0  0
 22 81  1  0  0  0  0
 23 82  1  0  0  0  0
 26 83  1  0  0  0  0
 26 84  1  0  0  0  0
 27 85  1  0  0  0  0
 27 86  1  0  0  0  0
 27 87  1  0  0  0  0
 45 88  1  0  0  0  0
 45 89  1  0  0  0  0
 46 90  1  0  0  0  0
 46 91  1  0  0  0  0
 46 92  1  0  0  0  0
 58 93  1  0  0  0  0
 58 94  1  0  0  0  0
 59 95  1  0  0  0  0
 59 96  1  0  0  0  0
 59 97  1  0  0  0  0
 60 98  1  0  0  0  0
 60 99  1  0  0  0  0
 61100  1  0  0  0  0
 61101  1  0  0  0  0
 61102  1  0  0  0  0
 62103  1  0  0  0  0
 68104  1  0  0  0  0
 68105  1  0  0  0  0
 69106  1  0  0  0  0
 69107  1  0  0  0  0
 69108  1  0  0  0  0
M  END
