
  xtb     02112207393D
 energy: -207.512694291599 gnorm: 0.000678264154 xtb: 6.4.1 (unknown)
113128  0     0  0            999 V2000
    5.1313    0.2138   -5.7566 C   0  0  0  0  0  0  0  0  0  0  0  0
    5.4909   -1.0820   -6.0283 C   0  0  0  0  0  0  0  0  0  0  0  0
    4.8821   -2.2886   -5.4625 C   0  0  0  0  0  0  0  0  0  0  0  0
    3.9366   -2.3532   -4.6933 O   0  0  0  0  0  0  0  0  0  0  0  0
    5.6347   -3.4295   -6.0080 C   0  0  0  0  0  0  0  0  0  0  0  0
    5.4258   -4.7790   -5.7353 C   0  0  0  0  0  0  0  0  0  0  0  0
    6.2995   -5.6212   -6.3799 C   0  0  0  0  0  0  0  0  0  0  0  0
    7.3039   -5.1547   -7.2381 C   0  0  0  0  0  0  0  0  0  0  0  0
    7.5160   -3.8260   -7.5205 C   0  0  0  0  0  0  0  0  0  0  0  0
    6.6410   -2.9507   -6.8714 C   0  0  0  0  0  0  0  0  0  0  0  0
    6.5633   -1.4907   -6.9144 C   0  0  0  0  0  0  0  0  0  0  0  0
    7.3706   -0.6781   -7.6700 C   0  0  0  0  0  0  0  0  0  0  0  0
    7.3070    0.7296   -7.7267 C   0  0  0  0  0  0  0  0  0  0  0  0
    7.3257    1.8742   -7.8311 N   0  0  0  0  0  0  0  0  0  0  0  0
    8.3974   -1.1383   -8.5208 C   0  0  0  0  0  0  0  0  0  0  0  0
    9.2502   -1.4343   -9.2305 N   0  0  0  0  0  0  0  0  0  0  0  0
    7.8148   -6.5443   -7.5254 C   0  0  0  0  0  0  0  0  0  0  0  0
    9.1148   -6.9962   -6.8154 C   0  0  0  0  0  0  0  0  0  0  0  0
    9.2030   -6.2009   -5.5365 C   0  0  0  0  0  0  0  0  0  0  0  0
    8.2539   -6.6399   -4.7206 C   0  0  0  0  0  0  0  0  0  0  0  0
    7.5070   -7.7405   -5.4328 C   0  0  0  0  0  0  0  0  0  0  0  0
    8.6495   -8.3517   -6.2596 C   0  0  0  0  0  0  0  0  0  0  0  0
    6.6973   -7.0636   -6.5667 C   0  0  0  0  0  0  0  0  0  0  0  0
    4.1543    0.7356   -4.9008 C   0  0  0  0  0  0  0  0  0  0  0  0
    3.9755    2.1148   -4.7009 C   0  0  0  0  0  0  0  0  0  0  0  0
    4.7873    3.2017   -5.3265 C   0  0  0  0  0  0  0  0  0  0  0  0
    6.0934    3.4192   -4.5575 C   0  0  0  0  0  0  0  0  0  0  0  0
    2.9718    2.3655   -3.7741 C   0  0  0  0  0  0  0  0  0  0  0  0
    2.3420    3.8539   -3.0913 S   0  0  0  0  0  0  0  0  0  0  0  0
    1.2624    2.9129   -2.1225 C   0  0  0  0  0  0  0  0  0  0  0  0
    0.3106    3.0986   -1.1110 C   0  0  0  0  0  0  0  0  0  0  0  0
   -0.0762    4.2622   -0.4097 C   0  0  0  0  0  0  0  0  0  0  0  0
   -0.9549    4.1318    0.7152 C   0  0  0  0  0  0  0  0  0  0  0  0
   -1.1787    5.2879    1.3198 N   0  0  0  0  0  0  0  0  0  0  0  0
   -0.3579    6.4426    0.5374 S   0  0  0  0  0  0  0  0  0  0  0  0
    0.3161    5.5117   -0.6023 N   0  0  0  0  0  0  0  0  0  0  0  0
   -1.5100    2.8649    1.0008 C   0  0  0  0  0  0  0  0  0  0  0  0
   -2.4834    2.4777    1.9319 C   0  0  0  0  0  0  0  0  0  0  0  0
   -3.3950    3.1688    3.2283 S   0  0  0  0  0  0  0  0  0  0  0  0
   -4.2223    1.6455    3.4152 C   0  0  0  0  0  0  0  0  0  0  0  0
   -5.2125    1.1723    4.2781 C   0  0  0  0  0  0  0  0  0  0  0  0
   -6.0901    1.8030    5.6137 S   0  0  0  0  0  0  0  0  0  0  0  0
   -6.9404    0.2651    5.8088 C   0  0  0  0  0  0  0  0  0  0  0  0
   -6.5603   -0.6720    4.8542 C   0  0  0  0  0  0  0  0  0  0  0  0
   -7.1161   -2.0520    4.7272 C   0  0  0  0  0  0  0  0  0  0  0  0
   -8.2781   -2.0710    3.7300 C   0  0  0  0  0  0  0  0  0  0  0  0
   -5.5726   -0.1552    4.0157 C   0  0  0  0  0  0  0  0  0  0  0  0
   -4.6674   -0.8401    2.6964 S   0  0  0  0  0  0  0  0  0  0  0  0
   -3.8065    0.6604    2.5053 C   0  0  0  0  0  0  0  0  0  0  0  0
   -2.7924    1.1376    1.6688 C   0  0  0  0  0  0  0  0  0  0  0  0
   -2.0243    0.6794    0.6321 N   0  0  0  0  0  0  0  0  0  0  0  0
   -1.2042    1.7137    0.2189 C   0  0  0  0  0  0  0  0  0  0  0  0
   -0.1812    1.8060   -0.7616 C   0  0  0  0  0  0  0  0  0  0  0  0
    0.4874    0.8628   -1.5250 N   0  0  0  0  0  0  0  0  0  0  0  0
    1.3691    1.5337   -2.3328 C   0  0  0  0  0  0  0  0  0  0  0  0
    2.3557    1.2085   -3.2688 C   0  0  0  0  0  0  0  0  0  0  0  0
    3.0361   -0.2284   -3.9349 S   0  0  0  0  0  0  0  0  0  0  0  0
    0.7508   -0.5346   -1.2537 C   0  0  0  0  0  0  0  0  0  0  0  0
    1.6960   -0.6890   -0.0642 C   0  0  0  0  0  0  0  0  0  0  0  0
   -2.3693   -0.5614   -0.0235 C   0  0  0  0  0  0  0  0  0  0  0  0
   -1.8503   -1.7802    0.7381 C   0  0  0  0  0  0  0  0  0  0  0  0
   -7.9374    0.1049    6.7935 C   0  0  0  0  0  0  0  0  0  0  0  0
   -8.0992    0.8006    7.9563 C   0  0  0  0  0  0  0  0  0  0  0  0
   -9.4264    0.8491    8.6153 C   0  0  0  0  0  0  0  0  0  0  0  0
  -10.3947    0.1702    8.3615 O   0  0  0  0  0  0  0  0  0  0  0  0
   -9.3196    1.9447    9.6074 C   0  0  0  0  0  0  0  0  0  0  0  0
  -10.3021    2.4814   10.4132 C   0  0  0  0  0  0  0  0  0  0  0  0
   -9.9655    3.5346   11.2570 C   0  0  0  0  0  0  0  0  0  0  0  0
  -11.1649    4.2275   12.2739 Cl  0  0  0  0  0  0  0  0  0  0  0  0
   -8.6567    4.0240   11.2730 C   0  0  0  0  0  0  0  0  0  0  0  0
   -8.2074    5.4676   12.4080 Br  0  0  0  0  0  0  0  0  0  0  0  0
   -7.6632    3.4770   10.4699 C   0  0  0  0  0  0  0  0  0  0  0  0
   -7.9983    2.4282    9.6319 C   0  0  0  0  0  0  0  0  0  0  0  0
   -7.1888    1.6283    8.7153 C   0  0  0  0  0  0  0  0  0  0  0  0
   -5.8279    1.4783    8.7857 C   0  0  0  0  0  0  0  0  0  0  0  0
   -5.1313    0.4589    8.1039 C   0  0  0  0  0  0  0  0  0  0  0  0
   -4.5463   -0.3956    7.6083 N   0  0  0  0  0  0  0  0  0  0  0  0
   -4.9967    2.2467    9.6249 C   0  0  0  0  0  0  0  0  0  0  0  0
   -4.2846    2.8600   10.2834 N   0  0  0  0  0  0  0  0  0  0  0  0
    5.7003    0.9790   -6.2662 H   0  0  0  0  0  0  0  0  0  0  0  0
    4.6383   -5.0941   -5.0687 H   0  0  0  0  0  0  0  0  0  0  0  0
    8.2934   -3.4869   -8.1841 H   0  0  0  0  0  0  0  0  0  0  0  0
    7.7798   -6.8583   -8.5667 H   0  0  0  0  0  0  0  0  0  0  0  0
    9.9993   -6.9901   -7.4465 H   0  0  0  0  0  0  0  0  0  0  0  0
    9.8883   -5.3880   -5.3832 H   0  0  0  0  0  0  0  0  0  0  0  0
    7.9874   -6.2663   -3.7492 H   0  0  0  0  0  0  0  0  0  0  0  0
    6.9286   -8.4127   -4.8042 H   0  0  0  0  0  0  0  0  0  0  0  0
    8.3071   -9.0420   -7.0294 H   0  0  0  0  0  0  0  0  0  0  0  0
    9.4047   -8.8350   -5.6416 H   0  0  0  0  0  0  0  0  0  0  0  0
    5.9349   -7.7208   -6.9806 H   0  0  0  0  0  0  0  0  0  0  0  0
    5.0144    2.9722   -6.3686 H   0  0  0  0  0  0  0  0  0  0  0  0
    4.2011    4.1224   -5.2987 H   0  0  0  0  0  0  0  0  0  0  0  0
    6.7047    2.5199   -4.5730 H   0  0  0  0  0  0  0  0  0  0  0  0
    5.8842    3.6798   -3.5226 H   0  0  0  0  0  0  0  0  0  0  0  0
    6.6586    4.2265   -5.0142 H   0  0  0  0  0  0  0  0  0  0  0  0
   -6.3251   -2.7151    4.3705 H   0  0  0  0  0  0  0  0  0  0  0  0
   -7.4528   -2.4122    5.6989 H   0  0  0  0  0  0  0  0  0  0  0  0
   -7.9432   -1.7379    2.7503 H   0  0  0  0  0  0  0  0  0  0  0  0
   -9.0795   -1.4152    4.0618 H   0  0  0  0  0  0  0  0  0  0  0  0
   -8.6713   -3.0797    3.6370 H   0  0  0  0  0  0  0  0  0  0  0  0
   -0.1689   -1.0829   -1.0790 H   0  0  0  0  0  0  0  0  0  0  0  0
    1.2216   -0.9449   -2.1506 H   0  0  0  0  0  0  0  0  0  0  0  0
    2.6400   -0.1892   -0.2679 H   0  0  0  0  0  0  0  0  0  0  0  0
    1.8956   -1.7418    0.1151 H   0  0  0  0  0  0  0  0  0  0  0  0
    1.2617   -0.2511    0.8326 H   0  0  0  0  0  0  0  0  0  0  0  0
   -3.4631   -0.6176   -0.0665 H   0  0  0  0  0  0  0  0  0  0  0  0
   -2.0058   -0.5287   -1.0513 H   0  0  0  0  0  0  0  0  0  0  0  0
   -2.0585   -2.6838    0.1717 H   0  0  0  0  0  0  0  0  0  0  0  0
   -0.7814   -1.7135    0.9186 H   0  0  0  0  0  0  0  0  0  0  0  0
   -2.3500   -1.8577    1.6998 H   0  0  0  0  0  0  0  0  0  0  0  0
   -8.7288   -0.6026    6.5668 H   0  0  0  0  0  0  0  0  0  0  0  0
  -11.3075    2.0919   10.3891 H   0  0  0  0  0  0  0  0  0  0  0  0
   -6.6647    3.8829   10.5065 H   0  0  0  0  0  0  0  0  0  0  0  0
  1  2  2  0  0  0  0
  2  3  1  0  0  0  0
  3  4  2  0  0  0  0
  3  5  1  0  0  0  0
  5  6  2  0  0  0  0
  6  7  1  0  0  0  0
  7  8  2  0  0  0  0
  8  9  1  0  0  0  0
  9 10  2  0  0  0  0
 10 11  1  0  0  0  0
 11 12  2  0  0  0  0
 12 13  1  0  0  0  0
 13 14  3  0  0  0  0
 12 15  1  0  0  0  0
 15 16  3  0  0  0  0
  8 17  1  0  0  0  0
 17 18  1  0  0  0  0
 18 19  1  0  0  0  0
 19 20  2  0  0  0  0
 20 21  1  0  0  0  0
 21 22  1  0  0  0  0
 21 23  1  0  0  0  0
  1 24  1  0  0  0  0
 24 25  2  0  0  0  0
 25 26  1  0  0  0  0
 26 27  1  0  0  0  0
 25 28  1  0  0  0  0
 28 29  1  0  0  0  0
 29 30  1  0  0  0  0
 30 31  1  0  0  0  0
 31 32  1  0  0  0  0
 32 33  1  0  0  0  0
 33 34  2  0  0  0  0
 34 35  1  0  0  0  0
 35 36  1  0  0  0  0
 33 37  1  0  0  0  0
 37 38  1  0  0  0  0
 38 39  1  0  0  0  0
 39 40  1  0  0  0  0
 40 41  1  0  0  0  0
 41 42  1  0  0  0  0
 42 43  1  0  0  0  0
 43 44  2  0  0  0  0
 44 45  1  0  0  0  0
 45 46  1  0  0  0  0
 44 47  1  0  0  0  0
 47 48  1  0  0  0  0
 48 49  1  0  0  0  0
 49 50  1  0  0  0  0
 50 51  1  0  0  0  0
 51 52  1  0  0  0  0
 52 53  1  0  0  0  0
 53 54  1  0  0  0  0
 54 55  1  0  0  0  0
 55 56  1  0  0  0  0
 56 57  1  0  0  0  0
 54 58  1  0  0  0  0
 58 59  1  0  0  0  0
 51 60  1  0  0  0  0
 60 61  1  0  0  0  0
 43 62  1  0  0  0  0
 62 63  2  0  0  0  0
 63 64  1  0  0  0  0
 64 65  2  0  0  0  0
 64 66  1  0  0  0  0
 66 67  2  0  0  0  0
 67 68  1  0  0  0  0
 68 69  1  0  0  0  0
 68 70  2  0  0  0  0
 70 71  1  0  0  0  0
 70 72  1  0  0  0  0
 72 73  2  0  0  0  0
 73 74  1  0  0  0  0
 74 75  2  0  0  0  0
 75 76  1  0  0  0  0
 76 77  3  0  0  0  0
 75 78  1  0  0  0  0
 78 79  3  0  0  0  0
 11  2  1  0  0  0  0
 23 17  1  0  0  0  0
 57 24  1  0  0  0  0
 74 63  1  0  0  0  0
 10  5  1  0  0  0  0
 22 18  1  0  0  0  0
 56 28  2  0  0  0  0
 73 66  1  0  0  0  0
 23  7  1  0  0  0  0
 55 30  2  0  0  0  0
 53 31  2  0  0  0  0
 36 32  2  0  0  0  0
 52 37  2  0  0  0  0
 50 38  2  0  0  0  0
 49 40  2  0  0  0  0
 47 41  2  0  0  0  0
  1 80  1  0  0  0  0
  6 81  1  0  0  0  0
  9 82  1  0  0  0  0
 17 83  1  0  0  0  0
 18 84  1  0  0  0  0
 19 85  1  0  0  0  0
 20 86  1  0  0  0  0
 21 87  1  0  0  0  0
 22 88  1  0  0  0  0
 22 89  1  0  0  0  0
 23 90  1  0  0  0  0
 26 91  1  0  0  0  0
 26 92  1  0  0  0  0
 27 93  1  0  0  0  0
 27 94  1  0  0  0  0
 27 95  1  0  0  0  0
 45 96  1  0  0  0  0
 45 97  1  0  0  0  0
 46 98  1  0  0  0  0
 46 99  1  0  0  0  0
 46100  1  0  0  0  0
 58101  1  0  0  0  0
 58102  1  0  0  0  0
 59103  1  0  0  0  0
 59104  1  0  0  0  0
 59105  1  0  0  0  0
 60106  1  0  0  0  0
 60107  1  0  0  0  0
 61108  1  0  0  0  0
 61109  1  0  0  0  0
 61110  1  0  0  0  0
 62111  1  0  0  0  0
 67112  1  0  0  0  0
 72113  1  0  0  0  0
M  END
