111

C          4.36420       -5.54290        3.88560
C          5.67290       -5.81990        3.64740
C          6.29370       -7.07860        4.13880
O          5.83370       -7.84140        4.95890
C          7.54770       -7.21550        3.37170
C          8.42850       -8.29490        3.37790
C          9.50870       -8.14230        2.54200
C          9.69610       -7.00720        1.74090
C          8.84020       -5.93200        1.72700
C          7.74520       -6.06080        2.58390
C          6.67190       -5.11550        2.87230
C          6.73990       -3.75610        2.70700
C          7.79870       -3.09240        2.05690
N          8.63320       -2.50270        1.53330
C          5.80590       -2.86510        3.27430
N          5.09760       -2.11020        3.77240
C         10.98210       -7.53410        1.15580
C         12.30820       -6.93710        1.68770
C         12.02630       -6.45300        3.08860
C         11.85360       -7.51970        3.85770
C         12.01550       -8.74410        2.99100
C         13.07190       -8.23440        1.99760
C         10.78010       -8.79280        2.05730
C          3.53300       -4.63850        3.17950
S          3.81740       -4.27480        1.47400
C          2.46420       -3.21660        1.46790
C          1.76120       -2.35330        0.63460
S          1.83240       -1.86220       -1.02770
C          0.44960       -0.87810       -0.72240
C         -0.38190       -0.05590       -1.48650
C         -0.32090        0.23610       -2.86530
C         -1.35310        1.04150       -3.43460
N         -1.19960        1.22070       -4.73770
S          0.13960        0.43760       -5.20330
N          0.57000       -0.15880       -3.76140
C         -2.36040        1.54740       -2.58600
C         -3.43780        2.38050       -2.89960
S         -4.13270        3.15800       -4.27810
C         -5.34910        3.85790       -3.22480
C         -6.42520        4.69640       -3.47250
C         -6.73470        5.23590       -4.83030
C         -6.10000        6.61580       -5.02460
C         -7.12100        5.00270       -2.28780
S         -6.41190        4.21000       -0.87850
C         -5.20100        3.49350       -1.87320
C         -4.10700        2.64290       -1.70120
N         -3.47890        2.00300       -0.66540
C         -2.40360        1.29270       -1.17650
C         -1.40610        0.43060       -0.62660
N         -1.18140       -0.12030        0.62760
C         -0.05160       -0.90910        0.58580
C          0.72300       -1.76520        1.40510
N          0.77900       -2.27970        2.68820
C          1.83850       -3.15510        2.72700
C          2.42110       -3.98870        3.67990
C          0.23760       -1.79230        3.93590
C          1.21540       -0.83890        4.62310
C         -1.97300       -0.00560        1.82290
C         -1.43940        1.09180        2.74580
C         -4.03500        2.20810        0.65340
C         -5.21740        1.27610        0.92040
C         -8.23240        5.84600       -2.25410
C         -9.01460        6.27710       -1.20880
C         -8.85910        5.91420        0.20870
O         -8.03430        5.16970        0.70870
C         -9.92460        6.64420        0.89170
S        -10.46620        6.80890        2.50550
C        -11.71490        7.88780        1.95420
Br       -12.90940        8.63380        3.18960
C        -11.71550        8.10790        0.60410
C        -10.67640        7.38530       -0.00760
C        -10.13950        7.18110       -1.34380
C        -10.64950        7.76620       -2.47490
C        -11.76490        8.62810       -2.42230
N        -12.66980        9.33350       -2.40160
C        -10.16260        7.60180       -3.78600
N         -9.82010        7.51420       -4.87920
H          3.88720       -6.12910        4.66500
H          8.24640       -9.15610        4.00160
H          8.98610       -5.06470        1.10380
H         10.99230       -7.67680        0.07710
H         12.78190       -6.22310        1.01950
H         11.92660       -5.41700        3.35470
H         11.58090       -7.55310        4.89630
H         12.22500       -9.67560        3.51050
H         13.19970       -8.88070        1.13020
H         14.03770       -8.05250        2.46650
H         10.66820       -9.75900        1.56900
H         -7.81160        5.30660       -4.98940
H         -6.32350        4.54800       -5.57160
H         -5.02070        6.55490       -4.90740
H         -6.48970        7.32500       -4.29810
H         -6.32380        6.98620       -6.02070
H          2.10590       -4.09800        4.70160
H          0.06180       -2.66310        4.57490
H         -0.71850       -1.30210        3.76900
H          2.15530       -1.34440        4.82930
H          1.43260        0.01520        3.98510
H          0.79350       -0.48130        5.55850
H         -3.00970        0.16820        1.54990
H         -1.94240       -0.97570        2.32730
H         -0.42510        0.86280        3.05790
H         -1.40750        2.05110        2.23320
H         -2.06650        1.18340        3.62900
H         -3.26470        2.11900        1.41180
H         -4.40100        3.23940        0.68340
H         -6.03610        1.51690        0.24780
H         -4.95110        0.23190        0.76640
H         -5.56560        1.40730        1.94090
H         -8.51150        6.22510       -3.22810
H        -12.42060        8.74730        0.10610
