111

C          6.94710        1.64040        0.12770
C          7.59010        2.55180       -0.66730
C          7.11260        3.21120       -1.90270
O          6.07410        3.03460       -2.51200
C          8.16430        4.16760       -2.28840
C          8.13860        5.02980       -3.38250
C          9.25610        5.81980       -3.49840
C         10.32390        5.75380       -2.59300
C         10.36300        4.90430       -1.51350
C          9.23250        4.09300       -1.37460
C          8.91340        3.08160       -0.36960
C          9.74850        2.70950        0.65220
C          9.51100        1.71490        1.62560
N          9.43110        0.92610        2.45750
C         11.02140        3.27160        0.89030
N         12.06340        3.67220        1.15960
C         11.10020        6.83120       -3.30740
C         11.10880        8.24820       -2.68230
C          9.83530        8.37270       -1.88350
C          8.82460        8.43580       -2.74000
C          9.39660        8.35480       -4.13380
C         10.73480        9.07990       -3.91960
C          9.91070        6.90500       -4.31590
C          5.68160        1.03260        0.03170
S          5.24970       -0.04010        1.38150
C          3.72110       -0.34140        0.66390
C          2.52480       -1.01790        0.87030
S          1.79910       -2.01430        2.08130
C          0.32290       -2.06350        1.13290
C         -0.82100       -2.70580        1.58340
O         -0.81590       -3.36900        2.78330
C         -0.06200       -4.58150        2.82210
C          0.18290       -4.94380        4.27550
C         -1.98980       -2.59710        0.81170
C         -1.88730       -1.96130       -0.45910
C         -0.71640       -1.40020       -0.94910
O         -0.66320       -0.84190       -2.20120
C         -0.78720       -1.74590       -3.29710
C          0.35680       -2.75120       -3.35200
C          0.40640       -1.36830       -0.10500
C          1.68300       -0.74460       -0.22840
N          2.33950        0.08180       -1.10290
C          3.57230        0.34610       -0.56590
C          4.67490        1.11490       -0.91770
C          1.83420        0.81250       -2.24150
C          1.39560        2.21860       -1.83950
S         -3.40050       -1.89800       -1.34640
C         -4.19760       -2.66430       -0.01860
C         -5.49010       -3.03140        0.33750
S         -7.10770       -3.01040       -0.24520
C         -7.65560       -3.73180        1.27190
C         -6.60160       -3.96980        2.16350
C         -5.38340       -3.57810        1.64330
N         -4.07880       -3.54520        2.06440
C         -3.66970       -4.05760        3.34970
C         -3.65630       -5.58500        3.35550
C         -3.33920       -2.99090        1.05200
C         -8.97490       -4.04370        1.61740
C        -10.15230       -3.87910        0.92710
C        -10.28240       -3.30490       -0.41460
O         -9.39330       -2.90880       -1.14280
C        -11.73090       -3.30430       -0.71540
C        -12.43210       -3.85460        0.37340
C        -13.81300       -3.95710        0.32470
C        -14.47330       -3.50820       -0.81010
C        -13.77750       -2.96660       -1.87940
Br       -14.73590       -2.37190       -3.39510
C        -12.38260       -2.85400       -1.85150
Cl       -11.51790       -2.18480       -3.16840
C        -11.46960       -4.22920        1.41030
C        -11.79650       -4.81000        2.61030
C        -13.11300       -5.12070        3.01030
N        -14.15480       -5.40190        3.40260
C        -10.88690       -5.19030        3.61850
N        -10.22140       -5.52780        4.49250
H          7.48720        1.32710        1.01320
H          7.29550        5.04510       -4.05550
H         11.19410        4.86840       -0.83010
H         12.07660        6.54110       -3.69020
H         12.02790        8.50670       -2.16340
H          9.79670        8.34500       -0.81030
H          7.77250        8.47130       -2.52530
H          8.75690        8.71130       -4.93690
H         10.60900       10.13770       -3.69370
H         11.43060        8.96100       -4.74900
H         10.11040        6.66330       -5.35810
H         -0.63350       -5.37110        2.31350
H          0.89120       -4.45770        2.29810
H          0.75360       -4.15600        4.75890
H          0.74110       -5.87370        4.33040
H         -0.76120       -5.06290        4.79940
H         -1.74700       -2.27170       -3.25850
H         -0.77920       -1.09880       -4.17700
H          0.25260       -3.37000       -4.23840
H          1.31630       -2.24000       -3.38950
H          0.33960       -3.39310       -2.47310
H          4.77150        1.71790       -1.80130
H          0.98610        0.27240       -2.65540
H          2.63550        0.86770       -2.98350
H          0.59180        2.16510       -1.10910
H          1.03460        2.75250       -2.71370
H          2.22670        2.77320       -1.41000
H         -6.76500       -4.40050        3.13520
H         -4.37890       -3.69110        4.09850
H         -2.67980       -3.66470        3.57740
H         -2.96000       -5.96270        2.61080
H         -3.35180       -5.94850        4.33290
H         -4.64450       -5.97940        3.13090
H         -9.05760       -4.47870        2.60610
H        -14.38280       -4.37190        1.13890
H        -15.54860       -3.57890       -0.86690
