120

C          7.46190       -3.75750        0.32970
C          8.68650       -3.14290        0.37100
C          8.99570       -1.88670        1.06480
O          8.29760       -1.28790        1.86330
C         10.33150       -1.47720        0.59760
C         10.99910       -0.29430        0.90280
C         12.21860       -0.16570        0.28230
C         12.73700       -1.14380       -0.57640
C         12.08910       -2.31730       -0.88280
C         10.84560       -2.46790       -0.26320
C          9.86420       -3.54690       -0.36980
C         10.05680       -4.73270       -1.03280
C         11.24170       -5.08420       -1.71160
N         12.17210       -5.44250       -2.28180
C          9.12240       -5.78500       -1.11720
N          8.42230       -6.68890       -1.23530
C         13.99370       -0.35450       -0.84580
C         15.29060       -0.79130       -0.12110
C         14.86050       -1.47430        1.15340
C         14.37000       -0.54660        1.96460
C         14.45870        0.78060        1.25270
C         15.74470        0.56640        0.43860
C         13.41490        0.73620        0.10980
C          6.24230       -3.39560        0.92000
S          5.98710       -2.07620        2.06330
C          4.30130       -2.40920        2.06350
C          3.09960       -1.90220        2.55290
S          2.57030       -0.55770        3.52110
C          0.94330       -0.98970        3.13600
C         -0.33800       -0.44640        3.32590
C         -0.78580        0.67570        4.05720
C         -2.17680        1.02730        4.00810
N         -2.45890        2.07950        4.76000
S         -1.09330        2.58510        5.46760
N         -0.08830        1.48500        4.83860
C         -3.02950        0.31050        3.13940
C         -4.32440        0.58870        2.67920
S         -5.56060        1.77510        2.90150
C         -6.45140        1.06750        1.57210
C         -7.60400        1.47400        0.88620
C         -8.50480        2.56670        1.35360
C         -8.96160        2.34260        2.79490
C         -7.84950        0.65190       -0.20590
S         -6.70780       -0.69260       -0.30560
C         -5.82090       -0.06170        1.03070
C         -4.60720       -0.33630        1.66690
N         -3.55940       -1.20610        1.52350
C         -2.56610       -0.81800        2.40460
C         -1.23740       -1.26560        2.59920
N         -0.53510       -2.34190        2.05910
C          0.80370       -2.14070        2.34890
C          2.05290       -2.67580        1.99270
N          2.59190       -3.66820        1.20050
C          3.95660       -3.48980        1.21370
C          5.05330       -4.05490        0.59060
C          1.91500       -4.50760        0.24300
C          1.31330       -3.69140       -0.89850
C         -1.05180       -3.69400        1.93200
C         -2.06640       -4.03510        3.01960
C         -3.48250       -2.07960        0.37590
C         -2.45660       -1.58860       -0.64180
C         -8.81780        0.74500       -1.22840
C         -9.23540        1.91010       -1.81340
C         -8.45770        3.17220       -1.78060
O         -7.48640        3.43330       -1.10080
C         -9.03650        4.01430       -2.84310
C         -8.63910        5.25350       -3.25260
C         -9.33110        5.88300       -4.31190
C         -8.96680        7.16140       -4.77710
C         -9.64490        7.74940       -5.81040
C        -10.71800        7.08460       -6.42150
C        -11.09810        5.84200       -5.99180
C        -10.42170        5.20710       -4.93070
C        -10.80970        3.92200       -4.48450
C        -10.12840        3.33350       -3.45280
C        -10.28890        2.04200       -2.79610
C        -11.30440        1.14480       -3.01010
C        -11.47330       -0.04680       -2.27600
N        -11.67670       -1.01830       -1.69790
C        -12.32440        1.32240       -3.96550
N        -13.17340        1.41240       -4.73350
H          7.38090       -4.63310       -0.30370
H         10.55950        0.43500        1.56510
H         12.49790       -3.05440       -1.55350
H         14.17100       -0.08090       -1.88410
H         15.99350       -1.33720       -0.74450
H         14.90230       -2.53670        1.30630
H         13.91980       -0.67880        2.93090
H         14.40450        1.66690        1.87960
H         15.90230        1.32180       -0.33020
H         16.63180        0.48850        1.06520
H         13.21190        1.72150       -0.30590
H         -7.96620        3.51480        1.27890
H         -9.37720        2.62330        0.70130
H         -9.47470        1.38740        2.88540
H         -8.11780        2.35170        3.47920
H         -9.64910        3.13220        3.08690
H          5.03730       -4.88480       -0.09340
H          2.65510       -5.20730       -0.14950
H          1.13710       -5.09260        0.74200
H          0.60440       -2.96300       -0.51330
H          0.80030       -4.34710       -1.59660
H          2.09740       -3.15850       -1.43090
H         -1.46990       -3.85990        0.93470
H         -0.19720       -4.36220        2.04890
H         -2.37410       -5.07270        2.91570
H         -1.61640       -3.90320        4.00110
H         -2.94900       -3.40440        2.96450
H         -4.47480       -2.08280       -0.08190
H         -3.26730       -3.10120        0.69120
H         -2.73790       -0.60440       -1.00830
H         -2.41390       -2.27300       -1.48470
H         -1.46890       -1.51570       -0.19380
H         -9.16930       -0.19640       -1.63540
H         -7.80660        5.74810       -2.77450
H         -8.13900        7.66790       -4.30230
H         -9.35750        8.72900       -6.16230
H        -11.24280        7.56210       -7.23540
H        -11.92460        5.32690       -6.45900
H        -11.63320        3.43060       -4.97830
