
  xtb     02022220053D
 energy: -201.003016775161 gnorm: 0.000438136771 xtb: 6.4.1 (unknown)
113128  0     0  0            999 V2000
   -0.4569   -2.5281   -6.9766 C   0  0  0  0  0  0  0  0  0  0  0  0
   -0.4391   -3.8952   -6.8480 C   0  0  0  0  0  0  0  0  0  0  0  0
   -0.4716   -4.6498   -5.5934 C   0  0  0  0  0  0  0  0  0  0  0  0
   -0.5235   -4.2058   -4.4574 O   0  0  0  0  0  0  0  0  0  0  0  0
   -0.4347   -6.0743   -5.9627 C   0  0  0  0  0  0  0  0  0  0  0  0
   -0.4517   -7.1651   -5.0964 C   0  0  0  0  0  0  0  0  0  0  0  0
   -0.4119   -8.3830   -5.7315 C   0  0  0  0  0  0  0  0  0  0  0  0
   -0.3641   -8.5061   -7.1261 C   0  0  0  0  0  0  0  0  0  0  0  0
   -0.3499   -7.4377   -7.9915 C   0  0  0  0  0  0  0  0  0  0  0  0
   -0.3842   -6.1876   -7.3663 C   0  0  0  0  0  0  0  0  0  0  0  0
   -0.3811   -4.8430   -7.9429 C   0  0  0  0  0  0  0  0  0  0  0  0
   -0.3229   -4.5601   -9.2848 C   0  0  0  0  0  0  0  0  0  0  0  0
   -0.2545   -5.5317  -10.3050 C   0  0  0  0  0  0  0  0  0  0  0  0
   -0.1937   -6.2610  -11.1901 N   0  0  0  0  0  0  0  0  0  0  0  0
   -0.3154   -3.2727   -9.8599 C   0  0  0  0  0  0  0  0  0  0  0  0
   -0.3031   -2.2658  -10.4146 N   0  0  0  0  0  0  0  0  0  0  0  0
   -0.3395  -10.0135   -7.0727 C   0  0  0  0  0  0  0  0  0  0  0  0
    1.0271  -10.6896   -7.3112 C   0  0  0  0  0  0  0  0  0  0  0  0
    0.8504  -12.0753   -6.7334 C   0  0  0  0  0  0  0  0  0  0  0  0
    0.8066  -11.9591   -5.4123 C   0  0  0  0  0  0  0  0  0  0  0  0
    0.9527  -10.4927   -5.0749 C   0  0  0  0  0  0  0  0  0  0  0  0
    1.8854  -10.0525   -6.2106 C   0  0  0  0  0  0  0  0  0  0  0  0
   -0.3915   -9.8762   -5.5171 C   0  0  0  0  0  0  0  0  0  0  0  0
   -0.4904   -1.5162   -6.0114 C   0  0  0  0  0  0  0  0  0  0  0  0
   -0.4650   -0.1484   -6.3349 C   0  0  0  0  0  0  0  0  0  0  0  0
   -0.3671    0.4231   -7.7116 C   0  0  0  0  0  0  0  0  0  0  0  0
    1.0910    0.4732   -8.1765 C   0  0  0  0  0  0  0  0  0  0  0  0
   -0.4740    0.6423   -5.1934 C   0  0  0  0  0  0  0  0  0  0  0  0
   -0.4114    2.3803   -4.9577 S   0  0  0  0  0  0  0  0  0  0  0  0
   -0.4428    2.1178   -3.2483 C   0  0  0  0  0  0  0  0  0  0  0  0
   -0.3604    2.8551   -2.0588 C   0  0  0  0  0  0  0  0  0  0  0  0
   -0.1152    4.2280   -1.8332 C   0  0  0  0  0  0  0  0  0  0  0  0
    0.1058    4.6807   -0.4902 C   0  0  0  0  0  0  0  0  0  0  0  0
    0.3950    5.9710   -0.4324 N   0  0  0  0  0  0  0  0  0  0  0  0
    0.3833    6.5671   -1.9373 S   0  0  0  0  0  0  0  0  0  0  0  0
    0.0121    5.2008   -2.7217 N   0  0  0  0  0  0  0  0  0  0  0  0
   -0.0632    3.7672    0.5737 C   0  0  0  0  0  0  0  0  0  0  0  0
   -0.0444    3.9553    1.9638 C   0  0  0  0  0  0  0  0  0  0  0  0
    0.2752    5.2121    3.1073 S   0  0  0  0  0  0  0  0  0  0  0  0
   -0.1434    4.1096    4.3919 C   0  0  0  0  0  0  0  0  0  0  0  0
   -0.1785    4.2123    5.7871 C   0  0  0  0  0  0  0  0  0  0  0  0
    0.1900    5.4248    6.9494 S   0  0  0  0  0  0  0  0  0  0  0  0
   -0.2255    4.3116    8.2557 C   0  0  0  0  0  0  0  0  0  0  0  0
   -0.6409    3.0580    7.7793 C   0  0  0  0  0  0  0  0  0  0  0  0
   -1.0182    1.8756    8.6120 C   0  0  0  0  0  0  0  0  0  0  0  0
    0.2251    1.0933    9.0439 C   0  0  0  0  0  0  0  0  0  0  0  0
   -0.5967    3.0189    6.3926 C   0  0  0  0  0  0  0  0  0  0  0  0
   -0.9471    1.7578    5.2387 S   0  0  0  0  0  0  0  0  0  0  0  0
   -0.5185    2.8366    3.9395 C   0  0  0  0  0  0  0  0  0  0  0  0
   -0.4434    2.7460    2.5458 C   0  0  0  0  0  0  0  0  0  0  0  0
   -0.6782    1.8145    1.5694 N   0  0  0  0  0  0  0  0  0  0  0  0
   -0.4242    2.4088    0.3460 C   0  0  0  0  0  0  0  0  0  0  0  0
   -0.4396    1.9189   -0.9860 C   0  0  0  0  0  0  0  0  0  0  0  0
   -0.5318    0.6448   -1.5207 N   0  0  0  0  0  0  0  0  0  0  0  0
   -0.5179    0.7681   -2.8863 C   0  0  0  0  0  0  0  0  0  0  0  0
   -0.5240   -0.0856   -3.9925 C   0  0  0  0  0  0  0  0  0  0  0  0
   -0.5472   -1.7863   -4.2680 S   0  0  0  0  0  0  0  0  0  0  0  0
   -0.1385   -0.6246   -0.9469 C   0  0  0  0  0  0  0  0  0  0  0  0
    1.3675   -0.6640   -0.6969 C   0  0  0  0  0  0  0  0  0  0  0  0
   -1.4230    0.6156    1.8820 C   0  0  0  0  0  0  0  0  0  0  0  0
   -0.5490   -0.4630    2.5200 C   0  0  0  0  0  0  0  0  0  0  0  0
   -0.1430    4.6049    9.6249 C   0  0  0  0  0  0  0  0  0  0  0  0
    0.2810    5.7259   10.2851 C   0  0  0  0  0  0  0  0  0  0  0  0
    0.7733    6.9763    9.6684 C   0  0  0  0  0  0  0  0  0  0  0  0
    0.8552    7.2354    8.4818 O   0  0  0  0  0  0  0  0  0  0  0  0
    1.1308    7.8211   10.7982 C   0  0  0  0  0  0  0  0  0  0  0  0
    1.7799    9.3877   11.0174 S   0  0  0  0  0  0  0  0  0  0  0  0
    1.7202    9.1852   12.7484 C   0  0  0  0  0  0  0  0  0  0  0  0
    2.1885   10.2783   13.6363 C   0  0  0  0  0  0  0  0  0  0  0  0
    1.2206    7.9676   13.1193 C   0  0  0  0  0  0  0  0  0  0  0  0
    0.8809    7.1802   12.0037 C   0  0  0  0  0  0  0  0  0  0  0  0
    0.3384    5.8635   11.7305 C   0  0  0  0  0  0  0  0  0  0  0  0
   -0.0322    4.9615   12.6956 C   0  0  0  0  0  0  0  0  0  0  0  0
   -0.5636    3.6773   12.4718 C   0  0  0  0  0  0  0  0  0  0  0  0
   -1.0004    2.6196   12.3637 N   0  0  0  0  0  0  0  0  0  0  0  0
    0.0923    5.2571   14.0690 C   0  0  0  0  0  0  0  0  0  0  0  0
    0.1861    5.4758   15.1918 N   0  0  0  0  0  0  0  0  0  0  0  0
   -0.4323   -2.1491   -7.9890 H   0  0  0  0  0  0  0  0  0  0  0  0
   -0.4953   -7.0232   -4.0278 H   0  0  0  0  0  0  0  0  0  0  0  0
   -0.3190   -7.5532   -9.0618 H   0  0  0  0  0  0  0  0  0  0  0  0
   -1.1591  -10.5198   -7.5789 H   0  0  0  0  0  0  0  0  0  0  0  0
    1.3935  -10.6275   -8.3321 H   0  0  0  0  0  0  0  0  0  0  0  0
    0.7239  -12.9613   -7.3274 H   0  0  0  0  0  0  0  0  0  0  0  0
    0.6359  -12.7285   -4.6823 H   0  0  0  0  0  0  0  0  0  0  0  0
    1.2523  -10.2521   -4.0583 H   0  0  0  0  0  0  0  0  0  0  0  0
    2.8690  -10.5135   -6.1373 H   0  0  0  0  0  0  0  0  0  0  0  0
    1.9951   -8.9734   -6.3021 H   0  0  0  0  0  0  0  0  0  0  0  0
   -1.2458  -10.2919   -4.9858 H   0  0  0  0  0  0  0  0  0  0  0  0
   -0.7679    1.4385   -7.6882 H   0  0  0  0  0  0  0  0  0  0  0  0
   -0.9538   -0.1599   -8.4229 H   0  0  0  0  0  0  0  0  0  0  0  0
    1.6834    1.0826   -7.4979 H   0  0  0  0  0  0  0  0  0  0  0  0
    1.1451    0.9042   -9.1720 H   0  0  0  0  0  0  0  0  0  0  0  0
    1.5185   -0.5262   -8.2110 H   0  0  0  0  0  0  0  0  0  0  0  0
   -1.6584    1.2242    8.0125 H   0  0  0  0  0  0  0  0  0  0  0  0
   -1.5789    2.1814    9.4963 H   0  0  0  0  0  0  0  0  0  0  0  0
   -0.0685    0.2329    9.6383 H   0  0  0  0  0  0  0  0  0  0  0  0
    0.8824    1.7182    9.6436 H   0  0  0  0  0  0  0  0  0  0  0  0
    0.7765    0.7461    8.1728 H   0  0  0  0  0  0  0  0  0  0  0  0
   -0.4093   -1.3945   -1.6735 H   0  0  0  0  0  0  0  0  0  0  0  0
   -0.6819   -0.8280   -0.0295 H   0  0  0  0  0  0  0  0  0  0  0  0
    1.6637    0.1212   -0.0037 H   0  0  0  0  0  0  0  0  0  0  0  0
    1.6494   -1.6285   -0.2836 H   0  0  0  0  0  0  0  0  0  0  0  0
    1.9061   -0.5180   -1.6302 H   0  0  0  0  0  0  0  0  0  0  0  0
   -2.2081    0.8921    2.5951 H   0  0  0  0  0  0  0  0  0  0  0  0
   -1.9172    0.2641    0.9753 H   0  0  0  0  0  0  0  0  0  0  0  0
   -0.2025   -0.1313    3.4948 H   0  0  0  0  0  0  0  0  0  0  0  0
   -1.1290   -1.3718    2.6558 H   0  0  0  0  0  0  0  0  0  0  0  0
    0.3214   -0.6860    1.9102 H   0  0  0  0  0  0  0  0  0  0  0  0
   -0.4586    3.7846   10.2558 H   0  0  0  0  0  0  0  0  0  0  0  0
    1.6095   11.1855   13.4665 H   0  0  0  0  0  0  0  0  0  0  0  0
    2.0848    9.9837   14.6773 H   0  0  0  0  0  0  0  0  0  0  0  0
    3.2342   10.5115   13.4377 H   0  0  0  0  0  0  0  0  0  0  0  0
    1.1088    7.6647   14.1440 H   0  0  0  0  0  0  0  0  0  0  0  0
  1  2  2  0  0  0  0
  2  3  1  0  0  0  0
  3  4  2  0  0  0  0
  3  5  1  0  0  0  0
  5  6  2  0  0  0  0
  6  7  1  0  0  0  0
  7  8  2  0  0  0  0
  8  9  1  0  0  0  0
  9 10  2  0  0  0  0
 10 11  1  0  0  0  0
 11 12  2  0  0  0  0
 12 13  1  0  0  0  0
 13 14  3  0  0  0  0
 12 15  1  0  0  0  0
 15 16  3  0  0  0  0
  8 17  1  0  0  0  0
 17 18  1  0  0  0  0
 18 19  1  0  0  0  0
 19 20  2  0  0  0  0
 20 21  1  0  0  0  0
 21 22  1  0  0  0  0
 21 23  1  0  0  0  0
  1 24  1  0  0  0  0
 24 25  2  0  0  0  0
 25 26  1  0  0  0  0
 26 27  1  0  0  0  0
 25 28  1  0  0  0  0
 28 29  1  0  0  0  0
 29 30  1  0  0  0  0
 30 31  1  0  0  0  0
 31 32  1  0  0  0  0
 32 33  1  0  0  0  0
 33 34  2  0  0  0  0
 34 35  1  0  0  0  0
 35 36  1  0  0  0  0
 33 37  1  0  0  0  0
 37 38  1  0  0  0  0
 38 39  1  0  0  0  0
 39 40  1  0  0  0  0
 40 41  1  0  0  0  0
 41 42  1  0  0  0  0
 42 43  1  0  0  0  0
 43 44  2  0  0  0  0
 44 45  1  0  0  0  0
 45 46  1  0  0  0  0
 44 47  1  0  0  0  0
 47 48  1  0  0  0  0
 48 49  1  0  0  0  0
 49 50  1  0  0  0  0
 50 51  1  0  0  0  0
 51 52  1  0  0  0  0
 52 53  1  0  0  0  0
 53 54  1  0  0  0  0
 54 55  1  0  0  0  0
 55 56  1  0  0  0  0
 56 57  1  0  0  0  0
 54 58  1  0  0  0  0
 58 59  1  0  0  0  0
 51 60  1  0  0  0  0
 60 61  1  0  0  0  0
 43 62  1  0  0  0  0
 62 63  2  0  0  0  0
 63 64  1  0  0  0  0
 64 65  2  0  0  0  0
 64 66  1  0  0  0  0
 66 67  1  0  0  0  0
 67 68  1  0  0  0  0
 68 69  1  0  0  0  0
 68 70  2  0  0  0  0
 70 71  1  0  0  0  0
 71 72  1  0  0  0  0
 72 73  2  0  0  0  0
 73 74  1  0  0  0  0
 74 75  3  0  0  0  0
 73 76  1  0  0  0  0
 76 77  3  0  0  0  0
 11  2  1  0  0  0  0
 23 17  1  0  0  0  0
 57 24  1  0  0  0  0
 72 63  1  0  0  0  0
 10  5  1  0  0  0  0
 22 18  1  0  0  0  0
 56 28  2  0  0  0  0
 71 66  2  0  0  0  0
 23  7  1  0  0  0  0
 55 30  2  0  0  0  0
 53 31  2  0  0  0  0
 36 32  2  0  0  0  0
 52 37  2  0  0  0  0
 50 38  2  0  0  0  0
 49 40  2  0  0  0  0
 47 41  2  0  0  0  0
  1 78  1  0  0  0  0
  6 79  1  0  0  0  0
  9 80  1  0  0  0  0
 17 81  1  0  0  0  0
 18 82  1  0  0  0  0
 19 83  1  0  0  0  0
 20 84  1  0  0  0  0
 21 85  1  0  0  0  0
 22 86  1  0  0  0  0
 22 87  1  0  0  0  0
 23 88  1  0  0  0  0
 26 89  1  0  0  0  0
 26 90  1  0  0  0  0
 27 91  1  0  0  0  0
 27 92  1  0  0  0  0
 27 93  1  0  0  0  0
 45 94  1  0  0  0  0
 45 95  1  0  0  0  0
 46 96  1  0  0  0  0
 46 97  1  0  0  0  0
 46 98  1  0  0  0  0
 58 99  1  0  0  0  0
 58100  1  0  0  0  0
 59101  1  0  0  0  0
 59102  1  0  0  0  0
 59103  1  0  0  0  0
 60104  1  0  0  0  0
 60105  1  0  0  0  0
 61106  1  0  0  0  0
 61107  1  0  0  0  0
 61108  1  0  0  0  0
 62109  1  0  0  0  0
 69110  1  0  0  0  0
 69111  1  0  0  0  0
 69112  1  0  0  0  0
 70113  1  0  0  0  0
M  END
