
  xtb     02022218373D
 energy: -217.903543583575 gnorm: 0.000164418786 xtb: 6.4.1 (unknown)
126144  0     0  0            999 V2000
   -5.8715   -5.9358    1.7612 C   0  0  0  0  0  0  0  0  0  0  0  0
   -5.5304   -6.9921    2.5561 C   0  0  0  0  0  0  0  0  0  0  0  0
   -4.1572   -7.5423    2.6618 C   0  0  0  0  0  0  0  0  0  0  0  0
   -3.2081   -7.3244    1.9382 O   0  0  0  0  0  0  0  0  0  0  0  0
   -4.1438   -8.3223    3.9143 C   0  0  0  0  0  0  0  0  0  0  0  0
   -3.0443   -8.9626    4.4822 C   0  0  0  0  0  0  0  0  0  0  0  0
   -3.3152   -9.5850    5.6769 C   0  0  0  0  0  0  0  0  0  0  0  0
   -4.5861   -9.5719    6.2679 C   0  0  0  0  0  0  0  0  0  0  0  0
   -5.6805   -8.9488    5.7169 C   0  0  0  0  0  0  0  0  0  0  0  0
   -5.4255   -8.3076    4.5006 C   0  0  0  0  0  0  0  0  0  0  0  0
   -6.3178   -7.5342    3.6439 C   0  0  0  0  0  0  0  0  0  0  0  0
   -7.6745   -7.4044    3.7868 C   0  0  0  0  0  0  0  0  0  0  0  0
   -8.4230   -7.9623    4.8428 C   0  0  0  0  0  0  0  0  0  0  0  0
   -9.0849   -8.3848    5.6805 N   0  0  0  0  0  0  0  0  0  0  0  0
   -8.5014   -6.7268    2.8661 C   0  0  0  0  0  0  0  0  0  0  0  0
   -9.2300   -6.2117    2.1432 N   0  0  0  0  0  0  0  0  0  0  0  0
   -4.1255  -10.3668    7.4644 C   0  0  0  0  0  0  0  0  0  0  0  0
   -3.8850   -9.5730    8.7662 C   0  0  0  0  0  0  0  0  0  0  0  0
   -3.0053  -10.4859    9.5896 C   0  0  0  0  0  0  0  0  0  0  0  0
   -1.8029  -10.5015    9.0288 C   0  0  0  0  0  0  0  0  0  0  0  0
   -1.8495   -9.5990    7.8170 C   0  0  0  0  0  0  0  0  0  0  0  0
   -2.8432   -8.5412    8.3143 C   0  0  0  0  0  0  0  0  0  0  0  0
   -2.7097  -10.3842    6.8038 C   0  0  0  0  0  0  0  0  0  0  0  0
   -5.1175   -5.4618    0.6620 C   0  0  0  0  0  0  0  0  0  0  0  0
   -4.4242   -6.1460   -0.3245 C   0  0  0  0  0  0  0  0  0  0  0  0
   -4.4898   -7.6194   -0.5478 C   0  0  0  0  0  0  0  0  0  0  0  0
   -4.9850   -7.9562   -1.9539 C   0  0  0  0  0  0  0  0  0  0  0  0
   -3.7422   -5.2562   -1.1691 C   0  0  0  0  0  0  0  0  0  0  0  0
   -2.6309   -5.5030   -2.4980 S   0  0  0  0  0  0  0  0  0  0  0  0
   -2.3681   -3.7966   -2.5709 C   0  0  0  0  0  0  0  0  0  0  0  0
   -1.5473   -2.8758   -3.2377 C   0  0  0  0  0  0  0  0  0  0  0  0
   -0.5070   -3.0811   -4.1699 C   0  0  0  0  0  0  0  0  0  0  0  0
    0.3216   -1.9701   -4.5339 C   0  0  0  0  0  0  0  0  0  0  0  0
    1.2968   -2.3149   -5.3602 N   0  0  0  0  0  0  0  0  0  0  0  0
    1.1766   -3.9008   -5.6604 S   0  0  0  0  0  0  0  0  0  0  0  0
   -0.1207   -4.2102   -4.7430 N   0  0  0  0  0  0  0  0  0  0  0  0
    0.0097   -0.6916   -4.0234 C   0  0  0  0  0  0  0  0  0  0  0  0
    0.6330    0.5504   -4.2175 C   0  0  0  0  0  0  0  0  0  0  0  0
    2.0400    1.2040   -4.9839 S   0  0  0  0  0  0  0  0  0  0  0  0
    1.6088    2.7766   -4.3647 C   0  0  0  0  0  0  0  0  0  0  0  0
    2.2179    4.0366   -4.3821 C   0  0  0  0  0  0  0  0  0  0  0  0
    3.6782    4.6868   -5.0111 S   0  0  0  0  0  0  0  0  0  0  0  0
    3.3571    6.2250   -4.2038 C   0  0  0  0  0  0  0  0  0  0  0  0
    2.1252    6.2492   -3.5665 C   0  0  0  0  0  0  0  0  0  0  0  0
    1.4811    7.4591   -2.9763 C   0  0  0  0  0  0  0  0  0  0  0  0
    0.1327    7.7543   -3.6334 C   0  0  0  0  0  0  0  0  0  0  0  0
    1.4980    5.0004   -3.6688 C   0  0  0  0  0  0  0  0  0  0  0  0
    0.0297    4.3554   -2.9885 S   0  0  0  0  0  0  0  0  0  0  0  0
    0.4181    2.7840   -3.6279 C   0  0  0  0  0  0  0  0  0  0  0  0
   -0.1350    1.5009   -3.5401 C   0  0  0  0  0  0  0  0  0  0  0  0
   -1.1979    0.8966   -2.9236 N   0  0  0  0  0  0  0  0  0  0  0  0
   -1.1166   -0.4651   -3.1818 C   0  0  0  0  0  0  0  0  0  0  0  0
   -1.8458   -1.5877   -2.7053 C   0  0  0  0  0  0  0  0  0  0  0  0
   -2.8259   -1.7384   -1.7382 N   0  0  0  0  0  0  0  0  0  0  0  0
   -3.1218   -3.0716   -1.6436 C   0  0  0  0  0  0  0  0  0  0  0  0
   -3.9104   -3.9043   -0.8430 C   0  0  0  0  0  0  0  0  0  0  0  0
   -4.9955   -3.7102    0.4816 S   0  0  0  0  0  0  0  0  0  0  0  0
   -3.2597   -0.8404   -0.6930 C   0  0  0  0  0  0  0  0  0  0  0  0
   -2.1120   -0.4775    0.2463 C   0  0  0  0  0  0  0  0  0  0  0  0
   -2.3318    1.7013   -2.5227 C   0  0  0  0  0  0  0  0  0  0  0  0
   -3.5403    1.4509   -3.4209 C   0  0  0  0  0  0  0  0  0  0  0  0
    4.3689    7.2130   -4.2710 C   0  0  0  0  0  0  0  0  0  0  0  0
    4.7469    8.0230   -3.2393 C   0  0  0  0  0  0  0  0  0  0  0  0
    4.4597    7.7444   -1.8106 C   0  0  0  0  0  0  0  0  0  0  0  0
    3.6908    6.9280   -1.3473 O   0  0  0  0  0  0  0  0  0  0  0  0
    5.3961    8.5930   -1.0497 C   0  0  0  0  0  0  0  0  0  0  0  0
    5.5488    8.6255    0.3350 C   0  0  0  0  0  0  0  0  0  0  0  0
    6.5193    9.4951    0.7703 C   0  0  0  0  0  0  0  0  0  0  0  0
    7.2889   10.2728   -0.1058 C   0  0  0  0  0  0  0  0  0  0  0  0
    7.1461   10.2545   -1.4729 C   0  0  0  0  0  0  0  0  0  0  0  0
    6.1602    9.3777   -1.9368 C   0  0  0  0  0  0  0  0  0  0  0  0
    5.7323    9.0838   -3.3001 C   0  0  0  0  0  0  0  0  0  0  0  0
    6.1161    9.7486   -4.4349 C   0  0  0  0  0  0  0  0  0  0  0  0
    5.5753    9.4982   -5.7140 C   0  0  0  0  0  0  0  0  0  0  0  0
    5.1535    9.3639   -6.7734 N   0  0  0  0  0  0  0  0  0  0  0  0
    7.0578   10.7970   -4.4651 C   0  0  0  0  0  0  0  0  0  0  0  0
    7.8205   11.6507   -4.5533 N   0  0  0  0  0  0  0  0  0  0  0  0
    8.0844   10.8924    1.0163 C   0  0  0  0  0  0  0  0  0  0  0  0
    9.5083   10.3394    1.2389 C   0  0  0  0  0  0  0  0  0  0  0  0
    9.8459   10.7679    2.6488 C   0  0  0  0  0  0  0  0  0  0  0  0
    9.1139   10.0365    3.4793 C   0  0  0  0  0  0  0  0  0  0  0  0
    8.2693    9.1010    2.6447 C   0  0  0  0  0  0  0  0  0  0  0  0
    9.2309    8.8492    1.4762 C   0  0  0  0  0  0  0  0  0  0  0  0
    7.2226   10.0295    1.9930 C   0  0  0  0  0  0  0  0  0  0  0  0
   -6.7332   -5.3366    2.0339 H   0  0  0  0  0  0  0  0  0  0  0  0
   -2.0821   -8.9472    3.9946 H   0  0  0  0  0  0  0  0  0  0  0  0
   -6.6520   -8.9420    6.1827 H   0  0  0  0  0  0  0  0  0  0  0  0
   -4.6352  -11.3137    7.6313 H   0  0  0  0  0  0  0  0  0  0  0  0
   -4.7862   -9.1994    9.2444 H   0  0  0  0  0  0  0  0  0  0  0  0
   -3.3520  -11.0509   10.4348 H   0  0  0  0  0  0  0  0  0  0  0  0
   -0.9444  -11.0820    9.3117 H   0  0  0  0  0  0  0  0  0  0  0  0
   -0.8961   -9.2487    7.4304 H   0  0  0  0  0  0  0  0  0  0  0  0
   -3.1959   -7.8637    7.5388 H   0  0  0  0  0  0  0  0  0  0  0  0
   -2.4469   -7.9646    9.1485 H   0  0  0  0  0  0  0  0  0  0  0  0
   -2.2749  -11.3432    6.5285 H   0  0  0  0  0  0  0  0  0  0  0  0
   -5.1572   -8.0685    0.1887 H   0  0  0  0  0  0  0  0  0  0  0  0
   -3.4915   -8.0373   -0.3962 H   0  0  0  0  0  0  0  0  0  0  0  0
   -5.9658   -7.5172   -2.1252 H   0  0  0  0  0  0  0  0  0  0  0  0
   -4.2995   -7.5843   -2.7103 H   0  0  0  0  0  0  0  0  0  0  0  0
   -5.0660   -9.0345   -2.0643 H   0  0  0  0  0  0  0  0  0  0  0  0
    2.1406    8.3181   -3.1033 H   0  0  0  0  0  0  0  0  0  0  0  0
    1.3442    7.2956   -1.9043 H   0  0  0  0  0  0  0  0  0  0  0  0
   -0.2887    8.6637   -3.2130 H   0  0  0  0  0  0  0  0  0  0  0  0
   -0.5713    6.9428   -3.4677 H   0  0  0  0  0  0  0  0  0  0  0  0
    0.2569    7.8946   -4.7051 H   0  0  0  0  0  0  0  0  0  0  0  0
   -3.7286    0.0452   -1.1211 H   0  0  0  0  0  0  0  0  0  0  0  0
   -4.0313   -1.3700   -0.1287 H   0  0  0  0  0  0  0  0  0  0  0  0
   -1.7375   -1.3739    0.7350 H   0  0  0  0  0  0  0  0  0  0  0  0
   -2.4610    0.2120    1.0102 H   0  0  0  0  0  0  0  0  0  0  0  0
   -1.2889   -0.0181   -0.2959 H   0  0  0  0  0  0  0  0  0  0  0  0
   -2.0209    2.7441   -2.6220 H   0  0  0  0  0  0  0  0  0  0  0  0
   -2.5710    1.5405   -1.4712 H   0  0  0  0  0  0  0  0  0  0  0  0
   -3.2992    1.7114   -4.4489 H   0  0  0  0  0  0  0  0  0  0  0  0
   -3.8392    0.4054   -3.3989 H   0  0  0  0  0  0  0  0  0  0  0  0
   -4.3769    2.0634   -3.0958 H   0  0  0  0  0  0  0  0  0  0  0  0
    4.9382    7.2421   -5.1930 H   0  0  0  0  0  0  0  0  0  0  0  0
    4.9373    8.0077    0.9739 H   0  0  0  0  0  0  0  0  0  0  0  0
    7.7456   10.8552   -2.1366 H   0  0  0  0  0  0  0  0  0  0  0  0
    8.0324   11.9766    1.0932 H   0  0  0  0  0  0  0  0  0  0  0  0
   10.2238   10.5992    0.4637 H   0  0  0  0  0  0  0  0  0  0  0  0
   10.5191   11.5704    2.8869 H   0  0  0  0  0  0  0  0  0  0  0  0
    9.0532   10.1059    4.5496 H   0  0  0  0  0  0  0  0  0  0  0  0
    7.8559    8.2322    3.1501 H   0  0  0  0  0  0  0  0  0  0  0  0
    8.7755    8.3412    0.6280 H   0  0  0  0  0  0  0  0  0  0  0  0
   10.1236    8.3091    1.7872 H   0  0  0  0  0  0  0  0  0  0  0  0
    6.5929   10.5388    2.7201 H   0  0  0  0  0  0  0  0  0  0  0  0
  1  2  2  0  0  0  0
  2  3  1  0  0  0  0
  3  4  2  0  0  0  0
  3  5  1  0  0  0  0
  5  6  2  0  0  0  0
  6  7  1  0  0  0  0
  7  8  2  0  0  0  0
  8  9  1  0  0  0  0
  9 10  2  0  0  0  0
 10 11  1  0  0  0  0
 11 12  2  0  0  0  0
 12 13  1  0  0  0  0
 13 14  3  0  0  0  0
 12 15  1  0  0  0  0
 15 16  3  0  0  0  0
  8 17  1  0  0  0  0
 17 18  1  0  0  0  0
 18 19  1  0  0  0  0
 19 20  2  0  0  0  0
 20 21  1  0  0  0  0
 21 22  1  0  0  0  0
 21 23  1  0  0  0  0
  1 24  1  0  0  0  0
 24 25  2  0  0  0  0
 25 26  1  0  0  0  0
 26 27  1  0  0  0  0
 25 28  1  0  0  0  0
 28 29  1  0  0  0  0
 29 30  1  0  0  0  0
 30 31  1  0  0  0  0
 31 32  1  0  0  0  0
 32 33  1  0  0  0  0
 33 34  2  0  0  0  0
 34 35  1  0  0  0  0
 35 36  1  0  0  0  0
 33 37  1  0  0  0  0
 37 38  1  0  0  0  0
 38 39  1  0  0  0  0
 39 40  1  0  0  0  0
 40 41  1  0  0  0  0
 41 42  1  0  0  0  0
 42 43  1  0  0  0  0
 43 44  2  0  0  0  0
 44 45  1  0  0  0  0
 45 46  1  0  0  0  0
 44 47  1  0  0  0  0
 47 48  1  0  0  0  0
 48 49  1  0  0  0  0
 49 50  1  0  0  0  0
 50 51  1  0  0  0  0
 51 52  1  0  0  0  0
 52 53  1  0  0  0  0
 53 54  1  0  0  0  0
 54 55  1  0  0  0  0
 55 56  1  0  0  0  0
 56 57  1  0  0  0  0
 54 58  1  0  0  0  0
 58 59  1  0  0  0  0
 51 60  1  0  0  0  0
 60 61  1  0  0  0  0
 43 62  1  0  0  0  0
 62 63  2  0  0  0  0
 63 64  1  0  0  0  0
 64 65  2  0  0  0  0
 64 66  1  0  0  0  0
 66 67  2  0  0  0  0
 67 68  1  0  0  0  0
 68 69  2  0  0  0  0
 69 70  1  0  0  0  0
 70 71  2  0  0  0  0
 71 72  1  0  0  0  0
 72 73  2  0  0  0  0
 73 74  1  0  0  0  0
 74 75  3  0  0  0  0
 73 76  1  0  0  0  0
 76 77  3  0  0  0  0
 69 78  1  0  0  0  0
 78 79  1  0  0  0  0
 79 80  1  0  0  0  0
 80 81  2  0  0  0  0
 81 82  1  0  0  0  0
 82 83  1  0  0  0  0
 82 84  1  0  0  0  0
 11  2  1  0  0  0  0
 23 17  1  0  0  0  0
 57 24  1  0  0  0  0
 72 63  1  0  0  0  0
 84 78  1  0  0  0  0
 10  5  1  0  0  0  0
 22 18  1  0  0  0  0
 56 28  2  0  0  0  0
 71 66  1  0  0  0  0
 83 79  1  0  0  0  0
 23  7  1  0  0  0  0
 55 30  2  0  0  0  0
 84 68  1  0  0  0  0
 53 31  2  0  0  0  0
 36 32  2  0  0  0  0
 52 37  2  0  0  0  0
 50 38  2  0  0  0  0
 49 40  2  0  0  0  0
 47 41  2  0  0  0  0
  1 85  1  0  0  0  0
  6 86  1  0  0  0  0
  9 87  1  0  0  0  0
 17 88  1  0  0  0  0
 18 89  1  0  0  0  0
 19 90  1  0  0  0  0
 20 91  1  0  0  0  0
 21 92  1  0  0  0  0
 22 93  1  0  0  0  0
 22 94  1  0  0  0  0
 23 95  1  0  0  0  0
 26 96  1  0  0  0  0
 26 97  1  0  0  0  0
 27 98  1  0  0  0  0
 27 99  1  0  0  0  0
 27100  1  0  0  0  0
 45101  1  0  0  0  0
 45102  1  0  0  0  0
 46103  1  0  0  0  0
 46104  1  0  0  0  0
 46105  1  0  0  0  0
 58106  1  0  0  0  0
 58107  1  0  0  0  0
 59108  1  0  0  0  0
 59109  1  0  0  0  0
 59110  1  0  0  0  0
 60111  1  0  0  0  0
 60112  1  0  0  0  0
 61113  1  0  0  0  0
 61114  1  0  0  0  0
 61115  1  0  0  0  0
 62116  1  0  0  0  0
 67117  1  0  0  0  0
 70118  1  0  0  0  0
 78119  1  0  0  0  0
 79120  1  0  0  0  0
 80121  1  0  0  0  0
 81122  1  0  0  0  0
 82123  1  0  0  0  0
 83124  1  0  0  0  0
 83125  1  0  0  0  0
 84126  1  0  0  0  0
M  END
