113

C          1.67470       -3.60790       -5.36080
C          0.74610       -3.98740       -6.27340
C          1.15310       -4.40140       -7.64460
O          2.24830       -4.26850       -8.14200
C         -0.03960       -5.04350       -8.22940
C         -0.13400       -5.68450       -9.46310
C         -1.37790       -6.20250       -9.73290
C         -2.45320       -6.10110       -8.83880
C         -2.37820       -5.46810       -7.62160
C         -1.12400       -4.92390       -7.33380
C         -0.69280       -4.14020       -6.18060
C         -1.52770       -3.45860       -5.33620
C         -1.11490       -2.49490       -4.39290
N         -0.88020       -1.65660       -3.64410
C         -2.93500       -3.55840       -5.36440
N         -4.08110       -3.60550       -5.32080
C         -3.38810       -6.85280       -9.75110
C         -3.69370       -8.33300       -9.41400
C         -2.50220       -8.85410       -8.64940
C         -1.48670       -8.94900       -9.49730
C         -1.97310       -8.49400      -10.85100
C         -3.43340       -8.97020      -10.78830
C         -2.19240       -6.96410      -10.74890
C          1.51220       -3.48970       -3.95140
C          0.84960       -4.30660       -3.05130
C          0.26780       -5.64840       -3.37540
C         -1.17580       -5.81360       -2.90210
C          0.90660       -3.77340       -1.75240
S          0.20890       -4.27730       -0.22960
C          0.75990       -2.80530        0.48860
C          0.65950       -2.11280        1.70340
C          0.10200       -2.49400        2.94320
C          0.12740       -1.55970        4.02960
N         -0.39830       -2.05700        5.13790
S         -0.88540       -3.57130        4.83890
N         -0.44620       -3.65020        3.28290
C          0.61620       -0.25610        3.79260
C          0.55700        0.89730        4.58720
S         -0.02060        1.38290        6.14290
C          0.35920        3.03690        5.73520
C          0.17540        4.26350        6.37940
S         -0.51770        4.79100        7.86100
C         -0.20270        6.47500        7.42030
C          0.43480        6.58890        6.16910
C          0.79890        7.86170        5.47670
C         -0.39940        8.42420        4.70670
C          0.62400        5.34210        5.59840
S          1.28290        4.84090        4.06130
C          0.93180        3.18270        4.46230
C          1.04030        1.95410        3.80580
N          1.42940        1.48900        2.57870
C          1.16540        0.13010        2.53550
C          1.28350       -0.84580        1.51030
N          1.81130       -0.81350        0.22830
C          1.47730       -1.98820       -0.38830
C          1.58370       -2.55190       -1.66420
S          2.26640       -2.10130       -3.17830
C          2.86630        0.00490       -0.32860
C          4.10790       -0.00280        0.55950
C          1.67130        2.42630        1.50540
C          0.50080        2.47270        0.52630
C         -0.55950        7.59160        8.17900
C         -1.24390        7.69840        9.36770
C         -1.76800        6.58840       10.16470
O         -1.65670        5.39560        9.95120
C         -2.46990        7.20740       11.31030
C         -3.14780        6.58490       12.33750
C         -3.74050        7.38040       13.31150
Cl        -4.60420        6.67100       14.61870
C         -3.63010        8.76920       13.22010
F         -4.20400        9.53010       14.16040
C         -2.94850        9.40020       12.19040
C         -2.35950        8.60540       11.21990
C         -1.58950        8.94240       10.02250
C         -1.27230       10.21730        9.62480
C         -0.53020       10.56450        8.47740
N          0.06450       10.93330        7.56540
C         -1.65200       11.38090       10.32630
N         -1.92720       12.36770       10.84430
H          2.65880       -3.37570       -5.75720
H          0.71690       -5.74230      -10.12370
H         -3.20900       -5.40160       -6.93860
H         -4.27390       -6.30960      -10.07400
H         -4.66650       -8.50050       -8.95980
H         -2.50460       -9.04080       -7.59140
H         -0.47090       -9.23030       -9.28940
H         -1.38000       -8.80920      -11.70530
H         -4.05780       -8.56090      -11.58110
H         -3.52210      -10.05530      -10.77310
H         -2.29780       -6.49360      -11.72440
H          0.33270       -5.82560       -4.45010
H          0.88230       -6.40570       -2.87770
H         -1.22890       -5.79290       -1.81730
H         -1.81300       -5.02090       -3.28560
H         -1.56770       -6.76700       -3.24780
H          1.60630        7.64980        4.77200
H          1.15570        8.60810        6.18740
H         -1.22200        8.64350        5.38300
H         -0.11430        9.34270        4.20210
H         -0.74290        7.70810        3.96350
H          3.11560       -0.43250       -1.29870
H          2.51360        1.01870       -0.52040
H          3.88170        0.35910        1.55980
H          4.49640       -1.01490        0.64690
H          4.87880        0.62670        0.12320
H          2.61030        2.19520        1.00330
H          1.79040        3.40810        1.97000
H          0.71610        3.17250       -0.27650
H          0.30420        1.49340        0.09700
H         -0.39870        2.80320        1.04050
H         -0.25870        8.52720        7.72790
H         -3.21560        5.50960       12.37970
H         -2.90290       10.47680       12.18080
