
  xtb     02112205533D
 energy: -197.823529428694 gnorm: 0.000485631659 xtb: 6.4.1 (unknown)
110125  0     0  0            999 V2000
   -4.0477   -2.9251    4.5671 C   0  0  0  0  0  0  0  0  0  0  0  0
   -4.8453   -1.8415    4.8385 C   0  0  0  0  0  0  0  0  0  0  0  0
   -4.7756   -0.5287    4.1929 C   0  0  0  0  0  0  0  0  0  0  0  0
   -3.9900   -0.1621    3.3334 O   0  0  0  0  0  0  0  0  0  0  0  0
   -5.8496    0.2845    4.7860 C   0  0  0  0  0  0  0  0  0  0  0  0
   -6.1766    1.6011    4.4691 C   0  0  0  0  0  0  0  0  0  0  0  0
   -7.2374    2.1009    5.1855 C   0  0  0  0  0  0  0  0  0  0  0  0
   -7.9256    1.3446    6.1432 C   0  0  0  0  0  0  0  0  0  0  0  0
   -7.6134    0.0446    6.4641 C   0  0  0  0  0  0  0  0  0  0  0  0
   -6.5326   -0.4827    5.7509 C   0  0  0  0  0  0  0  0  0  0  0  0
   -5.9164   -1.8080    5.8145 C   0  0  0  0  0  0  0  0  0  0  0  0
   -6.2958   -2.8151    6.6662 C   0  0  0  0  0  0  0  0  0  0  0  0
   -5.7080   -4.0943    6.7480 C   0  0  0  0  0  0  0  0  0  0  0  0
   -5.2897   -5.1566    6.8821 N   0  0  0  0  0  0  0  0  0  0  0  0
   -7.3413   -2.7150    7.6077 C   0  0  0  0  0  0  0  0  0  0  0  0
   -8.1729   -2.7113    8.3996 N   0  0  0  0  0  0  0  0  0  0  0  0
   -8.8723    2.4725    6.4707 C   0  0  0  0  0  0  0  0  0  0  0  0
   -8.6001    3.2436    7.7795 C   0  0  0  0  0  0  0  0  0  0  0  0
   -9.3480    4.5443    7.5953 C   0  0  0  0  0  0  0  0  0  0  0  0
   -8.6939    5.2612    6.6904 C   0  0  0  0  0  0  0  0  0  0  0  0
   -7.4930    4.4569    6.2475 C   0  0  0  0  0  0  0  0  0  0  0  0
   -7.1627    3.7323    7.5588 C   0  0  0  0  0  0  0  0  0  0  0  0
   -8.1030    3.3168    5.4045 C   0  0  0  0  0  0  0  0  0  0  0  0
   -2.9965   -3.0867    3.6580 C   0  0  0  0  0  0  0  0  0  0  0  0
   -2.2999   -4.2976    3.5037 C   0  0  0  0  0  0  0  0  0  0  0  0
   -2.5906   -5.5726    4.2257 C   0  0  0  0  0  0  0  0  0  0  0  0
   -3.7261   -6.3386    3.5412 C   0  0  0  0  0  0  0  0  0  0  0  0
   -1.3127   -4.1932    2.5326 C   0  0  0  0  0  0  0  0  0  0  0  0
   -0.1434   -5.3430    1.9084 S   0  0  0  0  0  0  0  0  0  0  0  0
    0.4569   -4.1104    0.8547 C   0  0  0  0  0  0  0  0  0  0  0  0
    1.4636   -3.9309   -0.1041 C   0  0  0  0  0  0  0  0  0  0  0  0
    2.5033   -4.7888   -0.5258 C   0  0  0  0  0  0  0  0  0  0  0  0
    3.4802   -4.2914   -1.4496 C   0  0  0  0  0  0  0  0  0  0  0  0
    4.4268   -5.1787   -1.7121 N   0  0  0  0  0  0  0  0  0  0  0  0
    4.1128   -6.5265   -0.8727 S   0  0  0  0  0  0  0  0  0  0  0  0
    2.7574   -6.0296   -0.1409 N   0  0  0  0  0  0  0  0  0  0  0  0
    3.3008   -3.0040   -2.0014 C   0  0  0  0  0  0  0  0  0  0  0  0
    3.9914   -2.3400   -3.0255 C   0  0  0  0  0  0  0  0  0  0  0  0
    5.3565   -2.5915   -4.0580 S   0  0  0  0  0  0  0  0  0  0  0  0
    4.9747   -1.0979   -4.8743 C   0  0  0  0  0  0  0  0  0  0  0  0
    5.5383   -0.3977   -5.9453 C   0  0  0  0  0  0  0  0  0  0  0  0
    6.8781   -0.6352   -6.9904 S   0  0  0  0  0  0  0  0  0  0  0  0
    6.5530    0.9093   -7.7843 C   0  0  0  0  0  0  0  0  0  0  0  0
    5.4055    1.5316   -7.2992 C   0  0  0  0  0  0  0  0  0  0  0  0
    4.7838    2.7485   -7.8976 C   0  0  0  0  0  0  0  0  0  0  0  0
    3.2795    2.6033   -8.1152 C   0  0  0  0  0  0  0  0  0  0  0  0
    4.8505    0.7831   -6.2538 C   0  0  0  0  0  0  0  0  0  0  0  0
    3.4800    1.0292   -5.2046 S   0  0  0  0  0  0  0  0  0  0  0  0
    3.8475   -0.4454   -4.3579 C   0  0  0  0  0  0  0  0  0  0  0  0
    3.2908   -1.1582   -3.2903 C   0  0  0  0  0  0  0  0  0  0  0  0
    2.2118   -1.0597   -2.4548 N   0  0  0  0  0  0  0  0  0  0  0  0
    2.2039   -2.1720   -1.6335 C   0  0  0  0  0  0  0  0  0  0  0  0
    1.3469   -2.5924   -0.5823 C   0  0  0  0  0  0  0  0  0  0  0  0
    0.3160   -1.9697    0.1039 N   0  0  0  0  0  0  0  0  0  0  0  0
   -0.2139   -2.8887    0.9741 C   0  0  0  0  0  0  0  0  0  0  0  0
   -1.2246   -2.9229    1.9387 C   0  0  0  0  0  0  0  0  0  0  0  0
   -2.3882   -1.8268    2.5823 S   0  0  0  0  0  0  0  0  0  0  0  0
    0.1247   -0.5677    0.4118 C   0  0  0  0  0  0  0  0  0  0  0  0
    1.2212   -0.0636    1.3479 C   0  0  0  0  0  0  0  0  0  0  0  0
    1.1869   -0.0787   -2.7260 C   0  0  0  0  0  0  0  0  0  0  0  0
    1.5562    1.3015   -2.1837 C   0  0  0  0  0  0  0  0  0  0  0  0
    7.4311    1.2793   -8.8247 C   0  0  0  0  0  0  0  0  0  0  0  0
    7.8309    2.5455   -9.1572 C   0  0  0  0  0  0  0  0  0  0  0  0
    7.7706    3.7171   -8.2429 C   0  0  0  0  0  0  0  0  0  0  0  0
    7.2616    3.7734   -7.1435 O   0  0  0  0  0  0  0  0  0  0  0  0
    8.5649    4.7574   -8.9134 C   0  0  0  0  0  0  0  0  0  0  0  0
    8.9479    6.0339   -8.6613 C   0  0  0  0  0  0  0  0  0  0  0  0
    9.9259    6.6439   -9.9462 S   0  0  0  0  0  0  0  0  0  0  0  0
    9.8233    5.1644  -10.8273 C   0  0  0  0  0  0  0  0  0  0  0  0
    9.0679    4.2532  -10.1560 C   0  0  0  0  0  0  0  0  0  0  0  0
    8.6070    2.8917  -10.3338 C   0  0  0  0  0  0  0  0  0  0  0  0
    8.8164    2.1303  -11.4541 C   0  0  0  0  0  0  0  0  0  0  0  0
    8.2883    0.8430  -11.6705 C   0  0  0  0  0  0  0  0  0  0  0  0
    7.8650   -0.1970  -11.9116 N   0  0  0  0  0  0  0  0  0  0  0  0
    9.5819    2.6151  -12.5338 C   0  0  0  0  0  0  0  0  0  0  0  0
   10.2061    2.9988  -13.4172 N   0  0  0  0  0  0  0  0  0  0  0  0
   -4.2556   -3.8193    5.1381 H   0  0  0  0  0  0  0  0  0  0  0  0
   -5.6231    2.1442    3.7191 H   0  0  0  0  0  0  0  0  0  0  0  0
   -8.1580   -0.5227    7.1998 H   0  0  0  0  0  0  0  0  0  0  0  0
   -9.9287    2.2669    6.3092 H   0  0  0  0  0  0  0  0  0  0  0  0
   -8.8060    2.6845    8.6881 H   0  0  0  0  0  0  0  0  0  0  0  0
  -10.2752    4.7777    8.0847 H   0  0  0  0  0  0  0  0  0  0  0  0
   -8.9657    6.2130    6.2727 H   0  0  0  0  0  0  0  0  0  0  0  0
   -6.6899    5.0042    5.7610 H   0  0  0  0  0  0  0  0  0  0  0  0
   -6.4332    2.9316    7.4522 H   0  0  0  0  0  0  0  0  0  0  0  0
   -6.8376    4.4197    8.3380 H   0  0  0  0  0  0  0  0  0  0  0  0
   -8.6472    3.6762    4.5330 H   0  0  0  0  0  0  0  0  0  0  0  0
   -1.6876   -6.1862    4.2096 H   0  0  0  0  0  0  0  0  0  0  0  0
   -2.8572   -5.3839    5.2667 H   0  0  0  0  0  0  0  0  0  0  0  0
   -4.6409   -5.7505    3.5388 H   0  0  0  0  0  0  0  0  0  0  0  0
   -3.4594   -6.5710    2.5128 H   0  0  0  0  0  0  0  0  0  0  0  0
   -3.9156   -7.2670    4.0721 H   0  0  0  0  0  0  0  0  0  0  0  0
    4.9828    3.5996   -7.2392 H   0  0  0  0  0  0  0  0  0  0  0  0
    5.2686    2.9561   -8.8535 H   0  0  0  0  0  0  0  0  0  0  0  0
    3.0634    1.7151   -8.7052 H   0  0  0  0  0  0  0  0  0  0  0  0
    2.9046    3.4719   -8.6506 H   0  0  0  0  0  0  0  0  0  0  0  0
    2.7473    2.5324   -7.1705 H   0  0  0  0  0  0  0  0  0  0  0  0
    0.0921    0.0359   -0.4891 H   0  0  0  0  0  0  0  0  0  0  0  0
   -0.8465   -0.4855    0.9064 H   0  0  0  0  0  0  0  0  0  0  0  0
    2.2010   -0.1716    0.8862 H   0  0  0  0  0  0  0  0  0  0  0  0
    1.2146   -0.6322    2.2747 H   0  0  0  0  0  0  0  0  0  0  0  0
    1.0535    0.9836    1.5843 H   0  0  0  0  0  0  0  0  0  0  0  0
    1.0812   -0.0076   -3.8144 H   0  0  0  0  0  0  0  0  0  0  0  0
    0.2372   -0.4412   -2.3311 H   0  0  0  0  0  0  0  0  0  0  0  0
    2.4204    1.6887   -2.7166 H   0  0  0  0  0  0  0  0  0  0  0  0
    0.7282    1.9896   -2.3302 H   0  0  0  0  0  0  0  0  0  0  0  0
    1.8014    1.2623   -1.1262 H   0  0  0  0  0  0  0  0  0  0  0  0
    7.8720    0.4510   -9.3683 H   0  0  0  0  0  0  0  0  0  0  0  0
    8.7195    6.6545   -7.8183 H   0  0  0  0  0  0  0  0  0  0  0  0
   10.3292    5.0735  -11.7675 H   0  0  0  0  0  0  0  0  0  0  0  0
  1  2  2  0  0  0  0
  2  3  1  0  0  0  0
  3  4  2  0  0  0  0
  3  5  1  0  0  0  0
  5  6  2  0  0  0  0
  6  7  1  0  0  0  0
  7  8  2  0  0  0  0
  8  9  1  0  0  0  0
  9 10  2  0  0  0  0
 10 11  1  0  0  0  0
 11 12  2  0  0  0  0
 12 13  1  0  0  0  0
 13 14  3  0  0  0  0
 12 15  1  0  0  0  0
 15 16  3  0  0  0  0
  8 17  1  0  0  0  0
 17 18  1  0  0  0  0
 18 19  1  0  0  0  0
 19 20  2  0  0  0  0
 20 21  1  0  0  0  0
 21 22  1  0  0  0  0
 21 23  1  0  0  0  0
  1 24  1  0  0  0  0
 24 25  2  0  0  0  0
 25 26  1  0  0  0  0
 26 27  1  0  0  0  0
 25 28  1  0  0  0  0
 28 29  1  0  0  0  0
 29 30  1  0  0  0  0
 30 31  1  0  0  0  0
 31 32  1  0  0  0  0
 32 33  1  0  0  0  0
 33 34  2  0  0  0  0
 34 35  1  0  0  0  0
 35 36  1  0  0  0  0
 33 37  1  0  0  0  0
 37 38  1  0  0  0  0
 38 39  1  0  0  0  0
 39 40  1  0  0  0  0
 40 41  1  0  0  0  0
 41 42  1  0  0  0  0
 42 43  1  0  0  0  0
 43 44  2  0  0  0  0
 44 45  1  0  0  0  0
 45 46  1  0  0  0  0
 44 47  1  0  0  0  0
 47 48  1  0  0  0  0
 48 49  1  0  0  0  0
 49 50  1  0  0  0  0
 50 51  1  0  0  0  0
 51 52  1  0  0  0  0
 52 53  1  0  0  0  0
 53 54  1  0  0  0  0
 54 55  1  0  0  0  0
 55 56  1  0  0  0  0
 56 57  1  0  0  0  0
 54 58  1  0  0  0  0
 58 59  1  0  0  0  0
 51 60  1  0  0  0  0
 60 61  1  0  0  0  0
 43 62  1  0  0  0  0
 62 63  2  0  0  0  0
 63 64  1  0  0  0  0
 64 65  2  0  0  0  0
 64 66  1  0  0  0  0
 66 67  2  0  0  0  0
 67 68  1  0  0  0  0
 68 69  1  0  0  0  0
 69 70  2  0  0  0  0
 70 71  1  0  0  0  0
 71 72  2  0  0  0  0
 72 73  1  0  0  0  0
 73 74  3  0  0  0  0
 72 75  1  0  0  0  0
 75 76  3  0  0  0  0
 11  2  1  0  0  0  0
 23 17  1  0  0  0  0
 57 24  1  0  0  0  0
 71 63  1  0  0  0  0
 10  5  1  0  0  0  0
 22 18  1  0  0  0  0
 56 28  2  0  0  0  0
 70 66  1  0  0  0  0
 23  7  1  0  0  0  0
 55 30  2  0  0  0  0
 53 31  2  0  0  0  0
 36 32  2  0  0  0  0
 52 37  2  0  0  0  0
 50 38  2  0  0  0  0
 49 40  2  0  0  0  0
 47 41  2  0  0  0  0
  1 77  1  0  0  0  0
  6 78  1  0  0  0  0
  9 79  1  0  0  0  0
 17 80  1  0  0  0  0
 18 81  1  0  0  0  0
 19 82  1  0  0  0  0
 20 83  1  0  0  0  0
 21 84  1  0  0  0  0
 22 85  1  0  0  0  0
 22 86  1  0  0  0  0
 23 87  1  0  0  0  0
 26 88  1  0  0  0  0
 26 89  1  0  0  0  0
 27 90  1  0  0  0  0
 27 91  1  0  0  0  0
 27 92  1  0  0  0  0
 45 93  1  0  0  0  0
 45 94  1  0  0  0  0
 46 95  1  0  0  0  0
 46 96  1  0  0  0  0
 46 97  1  0  0  0  0
 58 98  1  0  0  0  0
 58 99  1  0  0  0  0
 59100  1  0  0  0  0
 59101  1  0  0  0  0
 59102  1  0  0  0  0
 60103  1  0  0  0  0
 60104  1  0  0  0  0
 61105  1  0  0  0  0
 61106  1  0  0  0  0
 61107  1  0  0  0  0
 62108  1  0  0  0  0
 67109  1  0  0  0  0
 69110  1  0  0  0  0
M  END
