
  xtb     02112208183D
 energy: -199.671139805329 gnorm: 0.000270445820 xtb: 6.4.1 (unknown)
115129  0     0  0            999 V2000
   -1.1316    7.5875    0.4842 C   0  0  0  0  0  0  0  0  0  0  0  0
   -2.4106    7.6618   -0.0091 C   0  0  0  0  0  0  0  0  0  0  0  0
   -3.3193    6.5365   -0.2376 C   0  0  0  0  0  0  0  0  0  0  0  0
   -3.1390    5.3631    0.0477 O   0  0  0  0  0  0  0  0  0  0  0  0
   -4.5180    7.0932   -0.8844 C   0  0  0  0  0  0  0  0  0  0  0  0
   -5.6332    6.3874   -1.3302 C   0  0  0  0  0  0  0  0  0  0  0  0
   -6.5913    7.1742   -1.9224 C   0  0  0  0  0  0  0  0  0  0  0  0
   -6.4493    8.5609   -2.0627 C   0  0  0  0  0  0  0  0  0  0  0  0
   -5.3549    9.2690   -1.6249 C   0  0  0  0  0  0  0  0  0  0  0  0
   -4.3681    8.4882   -1.0153 C   0  0  0  0  0  0  0  0  0  0  0  0
   -3.0761    8.8732   -0.4467 C   0  0  0  0  0  0  0  0  0  0  0  0
   -2.6075   10.1593   -0.3494 C   0  0  0  0  0  0  0  0  0  0  0  0
   -1.3698   10.5471    0.2038 C   0  0  0  0  0  0  0  0  0  0  0  0
   -0.3832   10.9489    0.6357 N   0  0  0  0  0  0  0  0  0  0  0  0
   -3.3123   11.3013   -0.7838 C   0  0  0  0  0  0  0  0  0  0  0  0
   -3.8232   12.2766   -1.1101 N   0  0  0  0  0  0  0  0  0  0  0  0
   -7.7834    8.7082   -2.7517 C   0  0  0  0  0  0  0  0  0  0  0  0
   -8.9442    9.2614   -1.8987 C   0  0  0  0  0  0  0  0  0  0  0  0
  -10.1824    8.8448   -2.6594 C   0  0  0  0  0  0  0  0  0  0  0  0
  -10.3175    7.5319   -2.5229 C   0  0  0  0  0  0  0  0  0  0  0  0
   -9.1723    7.0388   -1.6681 C   0  0  0  0  0  0  0  0  0  0  0  0
   -8.9907    8.2508   -0.7453 C   0  0  0  0  0  0  0  0  0  0  0  0
   -7.9425    7.1619   -2.5927 C   0  0  0  0  0  0  0  0  0  0  0  0
   -0.3590    6.4831    0.8604 C   0  0  0  0  0  0  0  0  0  0  0  0
    0.9925    6.5853    1.2339 C   0  0  0  0  0  0  0  0  0  0  0  0
    1.7881    7.8481    1.2964 C   0  0  0  0  0  0  0  0  0  0  0  0
    2.3457    8.2075   -0.0837 C   0  0  0  0  0  0  0  0  0  0  0  0
    1.5489    5.3344    1.4680 C   0  0  0  0  0  0  0  0  0  0  0  0
    3.1808    4.8178    1.8588 S   0  0  0  0  0  0  0  0  0  0  0  0
    2.6446    3.1739    1.7853 C   0  0  0  0  0  0  0  0  0  0  0  0
    3.1770    1.8793    1.8262 C   0  0  0  0  0  0  0  0  0  0  0  0
    4.5185    1.4438    1.9022 C   0  0  0  0  0  0  0  0  0  0  0  0
    4.8045    0.0548    1.7015 C   0  0  0  0  0  0  0  0  0  0  0  0
    6.1022   -0.2045    1.7278 N   0  0  0  0  0  0  0  0  0  0  0  0
    6.8960    1.1818    1.9894 S   0  0  0  0  0  0  0  0  0  0  0  0
    5.6138    2.1667    2.0746 N   0  0  0  0  0  0  0  0  0  0  0  0
    3.7285   -0.8475    1.5517 C   0  0  0  0  0  0  0  0  0  0  0  0
    3.7214   -2.2426    1.4195 C   0  0  0  0  0  0  0  0  0  0  0  0
    4.8473   -3.5413    1.2419 S   0  0  0  0  0  0  0  0  0  0  0  0
    3.5079   -4.6575    1.2091 C   0  0  0  0  0  0  0  0  0  0  0  0
    3.4080   -6.0433    1.0497 C   0  0  0  0  0  0  0  0  0  0  0  0
    4.4965   -7.3380    0.7368 S   0  0  0  0  0  0  0  0  0  0  0  0
    3.1479   -8.4774    0.6911 C   0  0  0  0  0  0  0  0  0  0  0  0
    1.9099   -7.8437    0.9303 C   0  0  0  0  0  0  0  0  0  0  0  0
    0.5636   -8.4952    0.9245 C   0  0  0  0  0  0  0  0  0  0  0  0
    0.0384   -8.6646   -0.5037 C   0  0  0  0  0  0  0  0  0  0  0  0
    2.0751   -6.4814    1.1034 C   0  0  0  0  0  0  0  0  0  0  0  0
    0.9380   -5.1783    1.3480 S   0  0  0  0  0  0  0  0  0  0  0  0
    2.2572   -4.0383    1.3516 C   0  0  0  0  0  0  0  0  0  0  0  0
    2.3817   -2.6489    1.4457 C   0  0  0  0  0  0  0  0  0  0  0  0
    1.5676   -1.5540    1.5605 N   0  0  0  0  0  0  0  0  0  0  0  0
    2.3682   -0.4243    1.5967 C   0  0  0  0  0  0  0  0  0  0  0  0
    2.0921    0.9712    1.6215 C   0  0  0  0  0  0  0  0  0  0  0  0
    0.9467    1.7170    1.4276 N   0  0  0  0  0  0  0  0  0  0  0  0
    1.2779    3.0405    1.5173 C   0  0  0  0  0  0  0  0  0  0  0  0
    0.6448    4.2699    1.3171 C   0  0  0  0  0  0  0  0  0  0  0  0
   -0.9242    4.8120    0.8569 S   0  0  0  0  0  0  0  0  0  0  0  0
   -0.3889    1.3659    1.0062 C   0  0  0  0  0  0  0  0  0  0  0  0
   -1.3991    1.4982    2.1453 C   0  0  0  0  0  0  0  0  0  0  0  0
    0.1649   -1.7353    1.8558 C   0  0  0  0  0  0  0  0  0  0  0  0
   -0.6420   -2.1416    0.6217 C   0  0  0  0  0  0  0  0  0  0  0  0
    3.2286   -9.8469    0.4267 C   0  0  0  0  0  0  0  0  0  0  0  0
    4.2530  -10.6813    0.0121 C   0  0  0  0  0  0  0  0  0  0  0  0
    5.6049  -10.1768   -0.1999 C   0  0  0  0  0  0  0  0  0  0  0  0
    5.9490   -9.0424    0.1200 O   0  0  0  0  0  0  0  0  0  0  0  0
    6.5215  -11.0089   -0.7904 N   0  0  0  0  0  0  0  0  0  0  0  0
    7.8550  -10.4710   -1.0408 C   0  0  0  0  0  0  0  0  0  0  0  0
    8.7442  -10.6096    0.1877 C   0  0  0  0  0  0  0  0  0  0  0  0
    6.3030  -12.3418   -1.1221 C   0  0  0  0  0  0  0  0  0  0  0  0
    7.1746  -13.0057   -1.6414 O   0  0  0  0  0  0  0  0  0  0  0  0
    4.9714  -12.8473   -0.7914 C   0  0  0  0  0  0  0  0  0  0  0  0
    3.9887  -12.0652   -0.2511 C   0  0  0  0  0  0  0  0  0  0  0  0
    2.6482  -12.6640    0.0508 C   0  0  0  0  0  0  0  0  0  0  0  0
    4.7531  -14.2116   -1.0789 C   0  0  0  0  0  0  0  0  0  0  0  0
    4.5659  -15.3201   -1.3072 N   0  0  0  0  0  0  0  0  0  0  0  0
   -0.6011    8.5261    0.5671 H   0  0  0  0  0  0  0  0  0  0  0  0
   -5.6964    5.3172   -1.2089 H   0  0  0  0  0  0  0  0  0  0  0  0
   -5.2605   10.3346   -1.7484 H   0  0  0  0  0  0  0  0  0  0  0  0
   -7.7543    9.1282   -3.7553 H   0  0  0  0  0  0  0  0  0  0  0  0
   -8.8583   10.3133   -1.6411 H   0  0  0  0  0  0  0  0  0  0  0  0
  -10.7812    9.5172   -3.2451 H   0  0  0  0  0  0  0  0  0  0  0  0
  -11.0514    6.8885   -2.9716 H   0  0  0  0  0  0  0  0  0  0  0  0
   -9.2948    6.0658   -1.1997 H   0  0  0  0  0  0  0  0  0  0  0  0
   -8.0829    8.2201   -0.1455 H   0  0  0  0  0  0  0  0  0  0  0  0
   -9.8509    8.4064   -0.0963 H   0  0  0  0  0  0  0  0  0  0  0  0
   -8.0221    6.5512   -3.4902 H   0  0  0  0  0  0  0  0  0  0  0  0
    1.1839    8.6754    1.6710 H   0  0  0  0  0  0  0  0  0  0  0  0
    2.6205    7.6922    1.9855 H   0  0  0  0  0  0  0  0  0  0  0  0
    2.9299    9.1208   -0.0183 H   0  0  0  0  0  0  0  0  0  0  0  0
    2.9850    7.4087   -0.4526 H   0  0  0  0  0  0  0  0  0  0  0  0
    1.5391    8.3645   -0.7963 H   0  0  0  0  0  0  0  0  0  0  0  0
   -0.1261   -7.8571    1.4817 H   0  0  0  0  0  0  0  0  0  0  0  0
    0.5998   -9.4646    1.4250 H   0  0  0  0  0  0  0  0  0  0  0  0
    0.7133   -9.2795   -1.0946 H   0  0  0  0  0  0  0  0  0  0  0  0
   -0.0508   -7.6950   -0.9874 H   0  0  0  0  0  0  0  0  0  0  0  0
   -0.9416   -9.1348   -0.4888 H   0  0  0  0  0  0  0  0  0  0  0  0
   -0.6747    2.0648    0.2126 H   0  0  0  0  0  0  0  0  0  0  0  0
   -0.3843    0.3666    0.5835 H   0  0  0  0  0  0  0  0  0  0  0  0
   -1.0919    0.9335    3.0234 H   0  0  0  0  0  0  0  0  0  0  0  0
   -1.5008    2.5409    2.4326 H   0  0  0  0  0  0  0  0  0  0  0  0
   -2.3701    1.1395    1.8165 H   0  0  0  0  0  0  0  0  0  0  0  0
    0.0855   -2.5359    2.6001 H   0  0  0  0  0  0  0  0  0  0  0  0
   -0.2227   -0.8264    2.3085 H   0  0  0  0  0  0  0  0  0  0  0  0
   -0.4487   -1.4814   -0.2209 H   0  0  0  0  0  0  0  0  0  0  0  0
   -0.3825   -3.1511    0.3169 H   0  0  0  0  0  0  0  0  0  0  0  0
   -1.7029   -2.1158    0.8537 H   0  0  0  0  0  0  0  0  0  0  0  0
    2.2686  -10.3352    0.5247 H   0  0  0  0  0  0  0  0  0  0  0  0
    8.2719  -11.0332   -1.8782 H   0  0  0  0  0  0  0  0  0  0  0  0
    7.7412   -9.4192   -1.3101 H   0  0  0  0  0  0  0  0  0  0  0  0
    8.8406  -11.6569    0.4649 H   0  0  0  0  0  0  0  0  0  0  0  0
    8.3209  -10.0545    1.0216 H   0  0  0  0  0  0  0  0  0  0  0  0
    9.7318  -10.2136   -0.0309 H   0  0  0  0  0  0  0  0  0  0  0  0
    2.6664  -13.7353   -0.1321 H   0  0  0  0  0  0  0  0  0  0  0  0
    1.8788  -12.2259   -0.5851 H   0  0  0  0  0  0  0  0  0  0  0  0
    2.3763  -12.4956    1.0920 H   0  0  0  0  0  0  0  0  0  0  0  0
  1  2  2  0  0  0  0
  2  3  1  0  0  0  0
  3  4  2  0  0  0  0
  3  5  1  0  0  0  0
  5  6  2  0  0  0  0
  6  7  1  0  0  0  0
  7  8  2  0  0  0  0
  8  9  1  0  0  0  0
  9 10  2  0  0  0  0
 10 11  1  0  0  0  0
 11 12  2  0  0  0  0
 12 13  1  0  0  0  0
 13 14  3  0  0  0  0
 12 15  1  0  0  0  0
 15 16  3  0  0  0  0
  8 17  1  0  0  0  0
 17 18  1  0  0  0  0
 18 19  1  0  0  0  0
 19 20  2  0  0  0  0
 20 21  1  0  0  0  0
 21 22  1  0  0  0  0
 21 23  1  0  0  0  0
  1 24  1  0  0  0  0
 24 25  2  0  0  0  0
 25 26  1  0  0  0  0
 26 27  1  0  0  0  0
 25 28  1  0  0  0  0
 28 29  1  0  0  0  0
 29 30  1  0  0  0  0
 30 31  1  0  0  0  0
 31 32  1  0  0  0  0
 32 33  1  0  0  0  0
 33 34  2  0  0  0  0
 34 35  1  0  0  0  0
 35 36  1  0  0  0  0
 33 37  1  0  0  0  0
 37 38  1  0  0  0  0
 38 39  1  0  0  0  0
 39 40  1  0  0  0  0
 40 41  1  0  0  0  0
 41 42  1  0  0  0  0
 42 43  1  0  0  0  0
 43 44  2  0  0  0  0
 44 45  1  0  0  0  0
 45 46  1  0  0  0  0
 44 47  1  0  0  0  0
 47 48  1  0  0  0  0
 48 49  1  0  0  0  0
 49 50  1  0  0  0  0
 50 51  1  0  0  0  0
 51 52  1  0  0  0  0
 52 53  1  0  0  0  0
 53 54  1  0  0  0  0
 54 55  1  0  0  0  0
 55 56  1  0  0  0  0
 56 57  1  0  0  0  0
 54 58  1  0  0  0  0
 58 59  1  0  0  0  0
 51 60  1  0  0  0  0
 60 61  1  0  0  0  0
 43 62  1  0  0  0  0
 62 63  2  0  0  0  0
 63 64  1  0  0  0  0
 64 65  2  0  0  0  0
 64 66  1  0  0  0  0
 66 67  1  0  0  0  0
 67 68  1  0  0  0  0
 66 69  1  0  0  0  0
 69 70  2  0  0  0  0
 69 71  1  0  0  0  0
 71 72  2  0  0  0  0
 72 73  1  0  0  0  0
 71 74  1  0  0  0  0
 74 75  3  0  0  0  0
 11  2  1  0  0  0  0
 23 17  1  0  0  0  0
 57 24  1  0  0  0  0
 72 63  1  0  0  0  0
 10  5  1  0  0  0  0
 22 18  1  0  0  0  0
 56 28  2  0  0  0  0
 23  7  1  0  0  0  0
 55 30  2  0  0  0  0
 53 31  2  0  0  0  0
 36 32  2  0  0  0  0
 52 37  2  0  0  0  0
 50 38  2  0  0  0  0
 49 40  2  0  0  0  0
 47 41  2  0  0  0  0
  1 76  1  0  0  0  0
  6 77  1  0  0  0  0
  9 78  1  0  0  0  0
 17 79  1  0  0  0  0
 18 80  1  0  0  0  0
 19 81  1  0  0  0  0
 20 82  1  0  0  0  0
 21 83  1  0  0  0  0
 22 84  1  0  0  0  0
 22 85  1  0  0  0  0
 23 86  1  0  0  0  0
 26 87  1  0  0  0  0
 26 88  1  0  0  0  0
 27 89  1  0  0  0  0
 27 90  1  0  0  0  0
 27 91  1  0  0  0  0
 45 92  1  0  0  0  0
 45 93  1  0  0  0  0
 46 94  1  0  0  0  0
 46 95  1  0  0  0  0
 46 96  1  0  0  0  0
 58 97  1  0  0  0  0
 58 98  1  0  0  0  0
 59 99  1  0  0  0  0
 59100  1  0  0  0  0
 59101  1  0  0  0  0
 60102  1  0  0  0  0
 60103  1  0  0  0  0
 61104  1  0  0  0  0
 61105  1  0  0  0  0
 61106  1  0  0  0  0
 62107  1  0  0  0  0
 67108  1  0  0  0  0
 67109  1  0  0  0  0
 68110  1  0  0  0  0
 68111  1  0  0  0  0
 68112  1  0  0  0  0
 73113  1  0  0  0  0
 73114  1  0  0  0  0
 73115  1  0  0  0  0
M  END
