
  xtb     02012218253D
 energy: -207.465806543496 gnorm: 0.000177807952 xtb: 6.4.1 (unknown)
117132  0     0  0            999 V2000
   -4.0702   -5.7625    2.8000 C   0  0  0  0  0  0  0  0  0  0  0  0
   -5.3903   -5.8308    2.4878 C   0  0  0  0  0  0  0  0  0  0  0  0
   -6.1795   -7.0626    2.7573 C   0  0  0  0  0  0  0  0  0  0  0  0
   -5.7409   -8.1503    3.0588 O   0  0  0  0  0  0  0  0  0  0  0  0
   -7.5923   -6.6567    2.6253 C   0  0  0  0  0  0  0  0  0  0  0  0
   -8.7220   -7.4331    2.8755 C   0  0  0  0  0  0  0  0  0  0  0  0
   -9.9113   -6.7777    2.6643 C   0  0  0  0  0  0  0  0  0  0  0  0
   -9.9789   -5.4379    2.2572 C   0  0  0  0  0  0  0  0  0  0  0  0
   -8.8753   -4.6593    2.0047 C   0  0  0  0  0  0  0  0  0  0  0  0
   -7.6566   -5.3160    2.1887 C   0  0  0  0  0  0  0  0  0  0  0  0
   -6.2983   -4.8432    1.9414 C   0  0  0  0  0  0  0  0  0  0  0  0
   -5.9613   -3.8266    1.0860 C   0  0  0  0  0  0  0  0  0  0  0  0
   -6.8940   -2.9649    0.4751 C   0  0  0  0  0  0  0  0  0  0  0  0
   -7.6049   -2.2307   -0.0481 N   0  0  0  0  0  0  0  0  0  0  0  0
   -4.6500   -3.5994    0.6198 C   0  0  0  0  0  0  0  0  0  0  0  0
   -3.6129   -3.4185    0.1604 N   0  0  0  0  0  0  0  0  0  0  0  0
  -11.4864   -5.4352    2.2405 C   0  0  0  0  0  0  0  0  0  0  0  0
  -12.1846   -5.5157    0.8605 C   0  0  0  0  0  0  0  0  0  0  0  0
  -11.2209   -6.2158   -0.0655 C   0  0  0  0  0  0  0  0  0  0  0  0
  -11.1547   -7.4873    0.3064 C   0  0  0  0  0  0  0  0  0  0  0  0
  -12.0722   -7.6697    1.4902 C   0  0  0  0  0  0  0  0  0  0  0  0
  -13.1745   -6.6587    1.1361 C   0  0  0  0  0  0  0  0  0  0  0  0
  -11.4116   -6.9310    2.6814 C   0  0  0  0  0  0  0  0  0  0  0  0
   -3.2808   -4.5924    2.9396 C   0  0  0  0  0  0  0  0  0  0  0  0
   -3.9852   -3.0828    3.5262 S   0  0  0  0  0  0  0  0  0  0  0  0
   -2.4768   -2.2861    3.3127 C   0  0  0  0  0  0  0  0  0  0  0  0
   -1.8939   -1.0242    3.3844 C   0  0  0  0  0  0  0  0  0  0  0  0
   -2.3531    0.6039    3.7853 S   0  0  0  0  0  0  0  0  0  0  0  0
   -0.7797    1.1185    3.2873 C   0  0  0  0  0  0  0  0  0  0  0  0
   -0.0929    2.3392    3.1417 C   0  0  0  0  0  0  0  0  0  0  0  0
   -0.3853    3.6778    3.4921 C   0  0  0  0  0  0  0  0  0  0  0  0
    0.5977    4.7029    3.2432 C   0  0  0  0  0  0  0  0  0  0  0  0
    0.2073    5.8891    3.6815 N   0  0  0  0  0  0  0  0  0  0  0  0
   -1.2626    5.7385    4.3420 S   0  0  0  0  0  0  0  0  0  0  0  0
   -1.4624    4.1535    4.0958 N   0  0  0  0  0  0  0  0  0  0  0  0
    1.7685    4.3765    2.5197 C   0  0  0  0  0  0  0  0  0  0  0  0
    2.7855    5.1459    1.9302 C   0  0  0  0  0  0  0  0  0  0  0  0
    3.3039    6.7933    1.8514 S   0  0  0  0  0  0  0  0  0  0  0  0
    4.5502    6.3262    0.7145 C   0  0  0  0  0  0  0  0  0  0  0  0
    5.5062    7.0568    0.0082 C   0  0  0  0  0  0  0  0  0  0  0  0
    5.6572    8.5372    0.1303 C   0  0  0  0  0  0  0  0  0  0  0  0
    4.7017    9.2557   -0.8268 C   0  0  0  0  0  0  0  0  0  0  0  0
    6.2567    6.2376   -0.8342 C   0  0  0  0  0  0  0  0  0  0  0  0
    5.7548    4.5470   -0.7264 S   0  0  0  0  0  0  0  0  0  0  0  0
    4.5498    4.9516    0.4338 C   0  0  0  0  0  0  0  0  0  0  0  0
    3.5561    4.2773    1.1409 C   0  0  0  0  0  0  0  0  0  0  0  0
    3.0898    2.9927    1.2615 N   0  0  0  0  0  0  0  0  0  0  0  0
    2.0032    3.0364    2.1101 C   0  0  0  0  0  0  0  0  0  0  0  0
    1.1538    2.0120    2.5663 C   0  0  0  0  0  0  0  0  0  0  0  0
    1.2845    0.6305    2.4475 N   0  0  0  0  0  0  0  0  0  0  0  0
    0.0738    0.0900    2.8604 C   0  0  0  0  0  0  0  0  0  0  0  0
   -0.5648   -1.1599    2.9084 C   0  0  0  0  0  0  0  0  0  0  0  0
   -0.3328   -2.4700    2.5690 N   0  0  0  0  0  0  0  0  0  0  0  0
   -1.4890   -3.1633    2.8152 C   0  0  0  0  0  0  0  0  0  0  0  0
   -1.9354   -4.4733    2.6518 C   0  0  0  0  0  0  0  0  0  0  0  0
    0.8048   -3.0445    1.8965 C   0  0  0  0  0  0  0  0  0  0  0  0
    1.7411   -3.7666    2.8633 C   0  0  0  0  0  0  0  0  0  0  0  0
    2.5436   -0.0063    2.8032 C   0  0  0  0  0  0  0  0  0  0  0  0
    2.6179   -0.2824    4.3047 C   0  0  0  0  0  0  0  0  0  0  0  0
    3.3484    2.0107    0.2299 C   0  0  0  0  0  0  0  0  0  0  0  0
    2.7046    2.4210   -1.0938 C   0  0  0  0  0  0  0  0  0  0  0  0
    7.1837    6.6698   -1.7999 C   0  0  0  0  0  0  0  0  0  0  0  0
    8.0035    5.9344   -2.6082 C   0  0  0  0  0  0  0  0  0  0  0  0
    8.4416    6.4986   -3.9091 C   0  0  0  0  0  0  0  0  0  0  0  0
    8.3826    7.6556   -4.2608 O   0  0  0  0  0  0  0  0  0  0  0  0
    8.8927    5.3305   -4.6979 C   0  0  0  0  0  0  0  0  0  0  0  0
    9.2749    5.2748   -6.0237 C   0  0  0  0  0  0  0  0  0  0  0  0
    9.6307    4.0518   -6.5826 C   0  0  0  0  0  0  0  0  0  0  0  0
   10.0469    3.9173   -8.0110 C   0  0  0  0  0  0  0  0  0  0  0  0
    9.5868    2.9259   -5.7583 C   0  0  0  0  0  0  0  0  0  0  0  0
    9.9169    1.7361   -6.2966 F   0  0  0  0  0  0  0  0  0  0  0  0
    9.2197    2.9540   -4.4225 C   0  0  0  0  0  0  0  0  0  0  0  0
    8.8643    4.1806   -3.8886 C   0  0  0  0  0  0  0  0  0  0  0  0
    8.4601    4.5673   -2.5396 C   0  0  0  0  0  0  0  0  0  0  0  0
    8.7334    3.8664   -1.3927 C   0  0  0  0  0  0  0  0  0  0  0  0
    8.6246    4.4399   -0.1088 C   0  0  0  0  0  0  0  0  0  0  0  0
    8.5997    4.9001    0.9427 N   0  0  0  0  0  0  0  0  0  0  0  0
    9.2285    2.5493   -1.3745 C   0  0  0  0  0  0  0  0  0  0  0  0
    9.5997    1.4646   -1.3073 N   0  0  0  0  0  0  0  0  0  0  0  0
   -3.5795   -6.7090    3.0053 H   0  0  0  0  0  0  0  0  0  0  0  0
   -8.6299   -8.4588    3.1968 H   0  0  0  0  0  0  0  0  0  0  0  0
   -8.9350   -3.6280    1.6977 H   0  0  0  0  0  0  0  0  0  0  0  0
  -11.9710   -4.7293    2.9120 H   0  0  0  0  0  0  0  0  0  0  0  0
  -12.5922   -4.5733    0.5050 H   0  0  0  0  0  0  0  0  0  0  0  0
  -10.6603   -5.7168   -0.8341 H   0  0  0  0  0  0  0  0  0  0  0  0
  -10.5273   -8.2639   -0.0903 H   0  0  0  0  0  0  0  0  0  0  0  0
  -12.3792   -8.6897    1.7066 H   0  0  0  0  0  0  0  0  0  0  0  0
  -13.7415   -6.9466    0.2521 H   0  0  0  0  0  0  0  0  0  0  0  0
  -13.8564   -6.4532    1.9601 H   0  0  0  0  0  0  0  0  0  0  0  0
  -11.8554   -7.2057    3.6364 H   0  0  0  0  0  0  0  0  0  0  0  0
    5.4169    8.8243    1.1559 H   0  0  0  0  0  0  0  0  0  0  0  0
    6.6857    8.8319   -0.0777 H   0  0  0  0  0  0  0  0  0  0  0  0
    3.6721    8.9836   -0.6069 H   0  0  0  0  0  0  0  0  0  0  0  0
    4.8068   10.3316   -0.7170 H   0  0  0  0  0  0  0  0  0  0  0  0
    4.9175    8.9894   -1.8590 H   0  0  0  0  0  0  0  0  0  0  0  0
   -1.3516   -5.2947    2.2784 H   0  0  0  0  0  0  0  0  0  0  0  0
    0.4274   -3.7535    1.1533 H   0  0  0  0  0  0  0  0  0  0  0  0
    1.3299   -2.2492    1.3634 H   0  0  0  0  0  0  0  0  0  0  0  0
    2.1376   -3.0813    3.6075 H   0  0  0  0  0  0  0  0  0  0  0  0
    2.5710   -4.2061    2.3165 H   0  0  0  0  0  0  0  0  0  0  0  0
    1.2058   -4.5599    3.3790 H   0  0  0  0  0  0  0  0  0  0  0  0
    2.6571   -0.9364    2.2420 H   0  0  0  0  0  0  0  0  0  0  0  0
    3.3587    0.6667    2.5372 H   0  0  0  0  0  0  0  0  0  0  0  0
    1.8064   -0.9335    4.6216 H   0  0  0  0  0  0  0  0  0  0  0  0
    3.5665   -0.7546    4.5465 H   0  0  0  0  0  0  0  0  0  0  0  0
    2.5424    0.6505    4.8594 H   0  0  0  0  0  0  0  0  0  0  0  0
    2.9383    1.0503    0.5343 H   0  0  0  0  0  0  0  0  0  0  0  0
    4.4323    1.9213    0.1075 H   0  0  0  0  0  0  0  0  0  0  0  0
    1.6293    2.5302   -0.9695 H   0  0  0  0  0  0  0  0  0  0  0  0
    3.1132    3.3632   -1.4486 H   0  0  0  0  0  0  0  0  0  0  0  0
    2.8947    1.6585   -1.8437 H   0  0  0  0  0  0  0  0  0  0  0  0
    7.1558    7.7294   -2.0325 H   0  0  0  0  0  0  0  0  0  0  0  0
    9.2934    6.1768   -6.6162 H   0  0  0  0  0  0  0  0  0  0  0  0
    9.4054    3.2014   -8.5238 H   0  0  0  0  0  0  0  0  0  0  0  0
    9.9928    4.8744   -8.5212 H   0  0  0  0  0  0  0  0  0  0  0  0
   11.0668    3.5387   -8.0710 H   0  0  0  0  0  0  0  0  0  0  0  0
    9.2082    2.0397   -3.8516 H   0  0  0  0  0  0  0  0  0  0  0  0
  1  2  2  0  0  0  0
  2  3  1  0  0  0  0
  3  4  2  0  0  0  0
  3  5  1  0  0  0  0
  5  6  2  0  0  0  0
  6  7  1  0  0  0  0
  7  8  2  0  0  0  0
  8  9  1  0  0  0  0
  9 10  2  0  0  0  0
 10 11  1  0  0  0  0
 11 12  2  0  0  0  0
 12 13  1  0  0  0  0
 13 14  3  0  0  0  0
 12 15  1  0  0  0  0
 15 16  3  0  0  0  0
  8 17  1  0  0  0  0
 17 18  1  0  0  0  0
 18 19  1  0  0  0  0
 19 20  2  0  0  0  0
 20 21  1  0  0  0  0
 21 22  1  0  0  0  0
 21 23  1  0  0  0  0
  1 24  1  0  0  0  0
 24 25  1  0  0  0  0
 25 26  1  0  0  0  0
 26 27  1  0  0  0  0
 27 28  1  0  0  0  0
 28 29  1  0  0  0  0
 29 30  1  0  0  0  0
 30 31  1  0  0  0  0
 31 32  1  0  0  0  0
 32 33  2  0  0  0  0
 33 34  1  0  0  0  0
 34 35  1  0  0  0  0
 32 36  1  0  0  0  0
 36 37  1  0  0  0  0
 37 38  1  0  0  0  0
 38 39  1  0  0  0  0
 39 40  1  0  0  0  0
 40 41  1  0  0  0  0
 41 42  1  0  0  0  0
 40 43  2  0  0  0  0
 43 44  1  0  0  0  0
 44 45  1  0  0  0  0
 45 46  1  0  0  0  0
 46 47  1  0  0  0  0
 47 48  1  0  0  0  0
 48 49  1  0  0  0  0
 49 50  1  0  0  0  0
 50 51  1  0  0  0  0
 51 52  1  0  0  0  0
 52 53  1  0  0  0  0
 53 54  1  0  0  0  0
 54 55  1  0  0  0  0
 53 56  1  0  0  0  0
 56 57  1  0  0  0  0
 50 58  1  0  0  0  0
 58 59  1  0  0  0  0
 47 60  1  0  0  0  0
 60 61  1  0  0  0  0
 43 62  1  0  0  0  0
 62 63  2  0  0  0  0
 63 64  1  0  0  0  0
 64 65  2  0  0  0  0
 64 66  1  0  0  0  0
 66 67  2  0  0  0  0
 67 68  1  0  0  0  0
 68 69  1  0  0  0  0
 68 70  2  0  0  0  0
 70 71  1  0  0  0  0
 70 72  1  0  0  0  0
 72 73  2  0  0  0  0
 73 74  1  0  0  0  0
 74 75  2  0  0  0  0
 75 76  1  0  0  0  0
 76 77  3  0  0  0  0
 75 78  1  0  0  0  0
 78 79  3  0  0  0  0
 11  2  1  0  0  0  0
 23 17  1  0  0  0  0
 55 24  2  0  0  0  0
 74 63  1  0  0  0  0
 10  5  1  0  0  0  0
 22 18  1  0  0  0  0
 54 26  2  0  0  0  0
 73 66  1  0  0  0  0
 23  7  1  0  0  0  0
 52 27  2  0  0  0  0
 51 29  2  0  0  0  0
 49 30  2  0  0  0  0
 35 31  2  0  0  0  0
 48 36  2  0  0  0  0
 46 37  2  0  0  0  0
 45 39  2  0  0  0  0
  1 80  1  0  0  0  0
  6 81  1  0  0  0  0
  9 82  1  0  0  0  0
 17 83  1  0  0  0  0
 18 84  1  0  0  0  0
 19 85  1  0  0  0  0
 20 86  1  0  0  0  0
 21 87  1  0  0  0  0
 22 88  1  0  0  0  0
 22 89  1  0  0  0  0
 23 90  1  0  0  0  0
 41 91  1  0  0  0  0
 41 92  1  0  0  0  0
 42 93  1  0  0  0  0
 42 94  1  0  0  0  0
 42 95  1  0  0  0  0
 55 96  1  0  0  0  0
 56 97  1  0  0  0  0
 56 98  1  0  0  0  0
 57 99  1  0  0  0  0
 57100  1  0  0  0  0
 57101  1  0  0  0  0
 58102  1  0  0  0  0
 58103  1  0  0  0  0
 59104  1  0  0  0  0
 59105  1  0  0  0  0
 59106  1  0  0  0  0
 60107  1  0  0  0  0
 60108  1  0  0  0  0
 61109  1  0  0  0  0
 61110  1  0  0  0  0
 61111  1  0  0  0  0
 62112  1  0  0  0  0
 67113  1  0  0  0  0
 69114  1  0  0  0  0
 69115  1  0  0  0  0
 69116  1  0  0  0  0
 72117  1  0  0  0  0
M  END
