111

C         -1.23450       -6.97020       -3.67890
C         -0.55050       -7.97740       -3.04650
C          0.14360       -7.92070       -1.74220
O          0.44100       -6.94900       -1.07200
C          0.38210       -9.32260       -1.35230
C          0.94560       -9.76580       -0.15720
C          1.04360      -11.13230       -0.05900
C          0.60900      -11.99650       -1.07280
C          0.04740      -11.57240       -2.25380
C         -0.05740      -10.18320       -2.37580
C         -0.58590       -9.36670       -3.46520
C         -0.96330       -9.83490       -4.69740
C         -1.35700       -9.03250       -5.78950
N         -1.65860       -8.45500       -6.73560
C         -0.95940      -11.19570       -5.06710
N         -0.98610      -12.28370       -5.43350
C          1.01530      -13.22990       -0.30490
C          2.32370      -13.91820       -0.74850
C          2.70750      -14.76600        0.44280
C          3.11710      -13.94880        1.40460
C          3.01720      -12.53480        0.87930
C          3.34080      -12.77930       -0.60010
C          1.49840      -12.26610        0.82600
C         -1.24540       -5.59170       -3.40780
S         -2.57850       -4.63990       -4.09360
C         -1.97900       -3.22740       -3.32440
C         -2.26820       -1.88340       -3.11620
S         -3.51990       -0.77190       -3.57850
C         -2.69170        0.43410       -2.66610
C         -2.89070        1.78680       -2.37580
C         -3.92900        2.64680       -2.79100
C         -3.89890        4.00750       -2.35830
N         -4.92120        4.71130       -2.82040
S         -5.84220        3.73480       -3.72650
N         -4.97260        2.37990       -3.56070
C         -2.85010        4.42590       -1.51190
C         -2.64420        5.67300       -0.91300
S         -3.38460        7.23460       -0.83980
C         -2.12860        7.74070        0.27750
C         -1.88900        8.93750        0.93820
C         -2.79170       10.12170        0.82120
C         -3.81660       10.13810        1.95870
C         -0.74970        8.85200        1.75910
S          0.01530        7.26440        1.66970
C         -1.19040        6.73200        0.56060
C         -1.49530        5.55560       -0.12790
N         -0.99040        4.28630       -0.21920
C         -1.79510        3.55720       -1.08160
C         -1.80850        2.20910       -1.55410
N         -0.96910        1.11670       -1.39080
C         -1.50560        0.02550       -2.04110
C         -1.24630       -1.34370       -2.28610
N         -0.33380       -2.34180       -2.00670
C         -0.78350       -3.48650       -2.61790
C         -0.36690       -4.80830       -2.67460
C          0.76550       -2.43350       -1.07370
C          0.35820       -3.16690        0.20480
C          0.30890        1.04560       -0.73570
C          0.17270        0.53790        0.70090
C          0.23720        4.03220        0.50130
C          1.46230        4.44420       -0.31560
C         -0.30290        9.90560        2.56080
C          0.74850        9.99200        3.44090
C          1.72630        8.93310        3.74670
O          1.78830        7.81120        3.27520
C          2.61410        9.53000        4.73910
S          3.99040        9.02890        5.62490
C          4.05240       10.59490        6.38760
Cl         5.26800       10.93960        7.52940
C          3.06630       11.45130        5.97830
C          2.23730       10.83300        5.02580
C          1.06690       11.16630        4.23070
C          0.42740       12.37910        4.27210
C         -0.71090       12.74380        3.52740
N         -1.63550       13.11070        2.95230
C          0.87360       13.42190        5.11080
N          1.21800       14.28510        5.78390
H         -1.91240       -7.26590       -4.47130
H          1.26220       -9.06470        0.59930
H         -0.29380      -12.25030       -3.01810
H          0.21740      -13.93600       -0.08280
H          2.27000      -14.42030       -1.71050
H          2.59240      -15.83330        0.48160
H          3.41220      -14.19690        2.40730
H          3.59610      -11.77720        1.40100
H          4.36440      -13.12010       -0.74680
H          3.14620      -11.92380       -1.24440
H          1.02020      -12.32780        1.80200
H         -2.22240       11.05220        0.83290
H         -3.31960       10.05470       -0.13210
H         -4.41900        9.23300        1.93750
H         -4.47200       10.99740        1.85070
H         -3.32010       10.20340        2.92410
H          0.51680       -5.20800       -2.21790
H          1.14080       -1.44170       -0.83720
H          1.56880       -2.98870       -1.56850
H          1.17330       -3.13460        0.92250
H          0.12620       -4.20660       -0.00850
H         -0.52120       -2.70660        0.65070
H          0.78730        2.01980       -0.77740
H          0.93720        0.36930       -1.32250
H          1.14410        0.50780        1.18790
H         -0.25420       -0.46020        0.70780
H         -0.49390        1.17560        1.27770
H          0.29050        2.99910        0.82610
H          0.20360        4.65080        1.40330
H          2.36930        4.18510        0.22300
H          1.45420        5.51940       -0.47350
H          1.47650        3.96060       -1.29110
H         -0.90680       10.79860        2.46920
H          2.96040       12.45380        6.34820
