111

C          6.09990       -3.02990       -3.15050
C          5.69910       -3.93320       -4.09480
C          4.33180       -4.46140       -4.31050
O          3.41010       -4.54450       -3.52310
C          4.28320       -4.85500       -5.73060
C          3.15370       -5.25350       -6.44270
C          3.39190       -5.50040       -7.77290
C          4.66080       -5.36880       -8.35390
C          5.78720       -4.99710       -7.65850
C          5.56440       -4.73370       -6.30340
C          6.48560       -4.27690       -5.26850
C          7.85070       -4.24160       -5.35990
C          8.70850       -3.89420       -4.29390
N          9.46100       -3.64690       -3.46290
C          8.57660       -4.60770       -6.51210
N          9.21870       -4.88830       -7.42140
C          4.15470       -5.72760       -9.72930
C          3.95290       -4.55460      -10.71260
C          3.02290       -5.11810      -11.76290
C          1.82290       -5.24790      -11.21190
C          1.92180       -4.77460       -9.77980
C          2.96920       -3.66520       -9.94100
C          2.74190       -5.87950       -9.07980
C          5.35730       -2.51540       -2.06690
S          5.75780       -0.86990       -1.54030
C          4.38580       -0.86750       -0.50630
C          3.66320       -0.04410        0.34820
S          3.77040        1.54900        0.99840
C          2.27150        1.29180        1.89530
C          1.67710        2.25360        2.70590
O          2.17380        3.49090        2.97270
C          3.56550        3.72190        3.13450
C          4.19210        2.84510        4.21000
C          0.40630        1.96840        3.25040
C         -0.18610        0.71650        2.94370
C          0.40660       -0.24160        2.13990
O         -0.31290       -1.37610        1.83940
C         -0.93940       -1.34290        0.55740
C         -2.09660       -0.35940        0.45010
C          1.68810        0.01370        1.63370
C          2.54330       -0.76820        0.79750
N          2.59200       -2.03870        0.27630
C          3.70150       -2.10490       -0.52650
C          4.27480       -3.03960       -1.38530
C          1.80350       -3.20580        0.60960
C          1.11230       -3.81460       -0.60920
S         -1.77460        0.46860        3.62810
C         -1.72040        2.07610        4.25970
C         -2.58150        2.95100        4.91140
S         -4.19120        3.06120        5.50520
C         -3.91000        4.75320        5.92670
C         -2.60380        5.16800        5.63780
C         -1.85490        4.16000        5.06050
N         -0.59180        4.01950        4.54360
C          0.34660        5.11470        4.51120
C          0.21300        5.92940        3.22760
C         -0.50680        2.75470        4.01570
C         -4.86060        5.65160        6.42520
C         -6.19280        5.48060        6.71450
C         -6.93190        4.21420        6.64820
O         -6.50970        3.12040        6.32070
C         -8.30930        4.52460        7.07390
C         -9.39360        3.67680        7.19100
C        -10.60360        4.20370        7.61420
C        -10.70010        5.55820        7.91030
Cl       -12.21200        6.19560        8.43640
C         -9.61480        6.42250        7.79620
C         -8.40750        5.89460        7.37180
C         -7.10250        6.52110        7.14470
C         -6.83800        7.85960        7.28670
C         -5.60000        8.48830        7.04030
N         -4.63350        9.08250        6.85660
C         -7.79050        8.81870        7.69100
N         -8.50920        9.65450        8.01200
H          7.05250       -2.53760       -3.31280
H          2.19370       -5.33830       -5.95790
H          6.75750       -4.89760       -8.11610
H          4.61250       -6.59850      -10.19390
H          4.87130       -4.09540      -11.06770
H          3.33610       -5.40580      -12.74920
H          0.93330       -5.66570      -11.64550
H          0.98980       -4.51580       -9.28420
H          3.35960       -3.28230       -8.99980
H          2.60180       -2.83760      -10.54560
H          2.25700       -6.85340       -9.10820
H          4.10130        3.61230        2.18670
H          3.61190        4.77490        3.42810
H          4.17090        1.79840        3.91670
H          5.22560        3.14220        4.36030
H          3.65280        2.95330        5.14880
H         -1.30240       -2.36220        0.41090
H         -0.18950       -1.10600       -0.20900
H         -2.85050       -0.57660        1.20140
H         -1.75090        0.66350        0.58330
H         -2.54370       -0.44870       -0.53660
H          3.94890       -4.05040       -1.52380
H          2.47320       -3.95140        1.05440
H          1.06920       -2.91490        1.36060
H          0.51140       -3.07310       -1.12750
H          1.82790       -4.21740       -1.31880
H          0.46220       -4.62120       -0.28140
H         -2.27180        6.17240        5.83110
H          1.35620        4.71890        4.60070
H          0.13630        5.74460        5.37950
H         -0.80670        6.28960        3.11110
H          0.47130        5.31430        2.37040
H          0.88390        6.78300        3.25930
H         -4.45960        6.64650        6.57700
H         -9.28980        2.62930        6.95450
H        -11.47250        3.57310        7.71660
H         -9.73520        7.46550        8.03720
