116

C          4.44200       -6.25650        0.42700
C          5.72340       -5.83420        0.68460
C          6.23270       -4.46990        0.53380
O          5.61130       -3.47490        0.19540
C          7.66800       -4.52280        0.85580
C          8.57140       -3.46250        0.83370
C          9.85310       -3.81420        1.18230
C         10.20920       -5.12380        1.52960
C          9.32650       -6.17770        1.55850
C          8.01600       -5.84290        1.20480
C          6.81670       -6.67720        1.12490
C          6.75780       -8.00810        1.45530
C          5.60320       -8.81690        1.42190
N          4.71270       -9.54390        1.43020
C          7.85770       -8.77170        1.89870
N          8.70210       -9.45850        2.26520
C         11.65370       -4.75510        1.76110
C         12.65280       -5.14410        0.65120
C         13.84830       -4.25710        0.91410
C         13.51090       -3.01690        0.58450
C         12.08150       -3.04470        0.09320
C         12.05660       -4.42880       -0.56800
C         11.25640       -3.29460        1.37350
C          3.29690       -5.53810        0.06780
C          2.04030       -6.14150       -0.11630
C          1.73700       -7.59680        0.02900
C          1.46770       -7.95190        1.49400
C          1.05970       -5.19690       -0.38780
S         -0.66820       -5.33340       -0.66530
C         -0.74500       -3.61250       -0.82300
C         -1.69930       -2.60430       -1.00010
C         -3.10540       -2.69210       -1.08830
C         -3.86760       -1.48270       -1.14430
N         -5.17200       -1.70540       -1.18170
S         -5.41750       -3.30530       -1.15090
N         -3.86870       -3.77370       -1.08820
C         -3.18180       -0.24990       -1.18840
C         -3.68090        1.05270       -1.31680
S         -5.20440        1.86790       -1.40070
C         -4.34910        3.37740       -1.57520
C         -4.74040        4.71320       -1.70290
S         -6.23310        5.56470       -1.72050
C         -5.37800        7.09990       -1.88930
C         -4.00270        6.93480       -1.96400
C         -3.01570        8.04970       -2.05650
C         -2.83450        8.72490       -0.69530
C         -3.65650        5.58750       -1.82520
S         -2.12660        4.76030       -1.76870
C         -2.95420        3.24050       -1.57740
C         -2.57600        1.90260       -1.41190
N         -1.42150        1.17480       -1.33540
C         -1.75760       -0.15860       -1.17000
C         -1.00330       -1.35470       -0.99580
N          0.33580       -1.62240       -0.78440
C          0.49330       -2.97760       -0.68700
C          1.53350       -3.87460       -0.42950
S          3.22980       -3.78660       -0.13960
C          1.49030       -0.78530       -0.55570
C          2.36860       -0.67730       -1.80230
C         -0.16200        1.85850       -1.51230
C          0.28090        2.56820       -0.23200
C         -6.08680        8.32050       -1.99270
C         -7.32170        8.61430       -1.50670
C         -8.10890        9.74320       -2.07600
O         -7.69360       10.62200       -2.79760
C         -9.49020        9.51280       -1.61430
C        -10.65110       10.18680       -1.94300
C        -11.84370        9.75790       -1.38230
C        -11.88930        8.67030       -0.51140
C        -13.19560        8.20910        0.05180
C        -10.71430        7.99750       -0.17930
C         -9.51670        8.42140       -0.72510
C         -8.14950        7.95030       -0.52240
C         -7.70180        7.25400        0.56940
C         -8.54790        6.71730        1.55990
N         -9.19420        6.25360        2.38770
C         -6.33380        7.09210        0.87140
N         -5.23090        6.99560        1.17610
H          4.26430       -7.31820        0.52900
H          8.25150       -2.46790        0.56500
H          9.61880       -7.17760        1.83130
H         12.03580       -4.94280        2.76270
H         12.84380       -6.21020        0.56380
H         14.76690       -4.60230        1.35100
H         14.09130       -2.11910        0.69100
H         11.75250       -2.19800       -0.50350
H         12.71090       -4.48170       -1.43670
H         11.06060       -4.77240       -0.84110
H         11.37480       -2.50800        2.11650
H          0.84460       -7.81790       -0.56020
H          2.55690       -8.20960       -0.34790
H          0.63450       -7.36740        1.87730
H          2.34460       -7.75410        2.10560
H          1.22390       -9.00690        1.57770
H         -2.05910        7.64400       -2.39350
H         -3.35600        8.78810       -2.78590
H         -2.09110        9.51470       -0.76570
H         -2.50900        7.99990        0.04610
H         -3.77450        9.15400       -0.35740
H          2.07830       -1.25920        0.23710
H          1.17380        0.18770       -0.19290
H          3.16700        0.03850       -1.62870
H          2.81810       -1.64160       -2.02270
H          1.79370       -0.36550       -2.67240
H         -0.31090        2.61170       -2.29370
H          0.58790        1.15980       -1.87080
H         -0.40580        3.37660        0.00350
H          0.29680        1.88730        0.61680
H          1.27340        2.98890       -0.36680
H         -5.62230        9.09680       -2.59380
H        -10.61690       11.02810       -2.61800
H        -12.76150       10.27420       -1.62330
H        -13.67030        7.51390       -0.64170
H        -13.87260        9.04680        0.20170
H        -13.04950        7.69340        0.99760
H        -10.75350        7.15130        0.48880
