
  xtb     02022203473D
 energy: -204.132920618183 gnorm: 0.000682400150 xtb: 6.4.1 (unknown)
114129  0     0  0            999 V2000
   -0.5963    2.6587    7.2875 C   0  0  0  0  0  0  0  0  0  0  0  0
   -1.3743    1.8509    8.0767 C   0  0  0  0  0  0  0  0  0  0  0  0
   -2.1158    0.6254    7.7105 C   0  0  0  0  0  0  0  0  0  0  0  0
   -2.0327   -0.0516    6.7021 O   0  0  0  0  0  0  0  0  0  0  0  0
   -3.0313    0.3552    8.8344 C   0  0  0  0  0  0  0  0  0  0  0  0
   -3.9902   -0.6541    8.9003 C   0  0  0  0  0  0  0  0  0  0  0  0
   -4.7179   -0.6583   10.0653 C   0  0  0  0  0  0  0  0  0  0  0  0
   -4.5123    0.2770   11.0884 C   0  0  0  0  0  0  0  0  0  0  0  0
   -3.5689    1.2754   11.0369 C   0  0  0  0  0  0  0  0  0  0  0  0
   -2.8113    1.2920    9.8615 C   0  0  0  0  0  0  0  0  0  0  0  0
   -1.7299    2.1816    9.4470 C   0  0  0  0  0  0  0  0  0  0  0  0
   -1.1164    3.1030   10.2557 C   0  0  0  0  0  0  0  0  0  0  0  0
    0.0056    3.8883    9.9136 C   0  0  0  0  0  0  0  0  0  0  0  0
    0.9293    4.5486    9.7389 N   0  0  0  0  0  0  0  0  0  0  0  0
   -1.4879    3.3613   11.5918 C   0  0  0  0  0  0  0  0  0  0  0  0
   -1.7341    3.6309   12.6806 N   0  0  0  0  0  0  0  0  0  0  0  0
   -5.5948   -0.3149   11.9564 C   0  0  0  0  0  0  0  0  0  0  0  0
   -5.1284   -1.1916   13.1377 C   0  0  0  0  0  0  0  0  0  0  0  0
   -6.3544   -2.0010   13.4936 C   0  0  0  0  0  0  0  0  0  0  0  0
   -6.5466   -2.8889   12.5264 C   0  0  0  0  0  0  0  0  0  0  0  0
   -5.4536   -2.6942   11.5003 C   0  0  0  0  0  0  0  0  0  0  0  0
   -4.3022   -2.2662   12.4192 C   0  0  0  0  0  0  0  0  0  0  0  0
   -5.8217   -1.3599   10.8172 C   0  0  0  0  0  0  0  0  0  0  0  0
   -0.1525    2.5119    5.9626 C   0  0  0  0  0  0  0  0  0  0  0  0
    0.6641    3.9194    5.2499 S   0  0  0  0  0  0  0  0  0  0  0  0
    0.8708    3.0691    3.7749 C   0  0  0  0  0  0  0  0  0  0  0  0
    1.3643    3.2232    2.4820 C   0  0  0  0  0  0  0  0  0  0  0  0
    2.0742    4.4671    1.4928 S   0  0  0  0  0  0  0  0  0  0  0  0
    2.0787    3.3496    0.1732 C   0  0  0  0  0  0  0  0  0  0  0  0
    2.4422    3.3567   -1.1858 C   0  0  0  0  0  0  0  0  0  0  0  0
    3.0766    4.3055   -2.0210 C   0  0  0  0  0  0  0  0  0  0  0  0
    3.3980    3.9461   -3.3788 C   0  0  0  0  0  0  0  0  0  0  0  0
    4.0461    4.9103   -4.0127 N   0  0  0  0  0  0  0  0  0  0  0  0
    4.2307    6.1609   -3.0024 S   0  0  0  0  0  0  0  0  0  0  0  0
    3.4928    5.5233   -1.7131 N   0  0  0  0  0  0  0  0  0  0  0  0
    2.9571    2.7028   -3.8893 C   0  0  0  0  0  0  0  0  0  0  0  0
    2.9725    2.1235   -5.1684 C   0  0  0  0  0  0  0  0  0  0  0  0
    3.5819    2.4559   -6.7534 S   0  0  0  0  0  0  0  0  0  0  0  0
    2.8432    0.9678   -7.3211 C   0  0  0  0  0  0  0  0  0  0  0  0
    2.7983    0.3564   -8.5648 C   0  0  0  0  0  0  0  0  0  0  0  0
    3.4771    0.9192   -9.7704 C   0  0  0  0  0  0  0  0  0  0  0  0
    4.8687    0.3061   -9.9495 C   0  0  0  0  0  0  0  0  0  0  0  0
    2.0901   -0.8607   -8.5126 C   0  0  0  0  0  0  0  0  0  0  0  0
    1.4723   -1.2040   -6.8937 S   0  0  0  0  0  0  0  0  0  0  0  0
    2.1623    0.2620   -6.3124 C   0  0  0  0  0  0  0  0  0  0  0  0
    2.2410    0.9286   -5.0904 C   0  0  0  0  0  0  0  0  0  0  0  0
    1.7886    0.7346   -3.8084 N   0  0  0  0  0  0  0  0  0  0  0  0
    2.2393    1.8002   -3.0569 C   0  0  0  0  0  0  0  0  0  0  0  0
    2.1187    2.0729   -1.6809 C   0  0  0  0  0  0  0  0  0  0  0  0
    1.6392    1.2725   -0.6523 N   0  0  0  0  0  0  0  0  0  0  0  0
    1.5873    2.0708    0.4787 C   0  0  0  0  0  0  0  0  0  0  0  0
    1.1498    1.9931    1.8099 C   0  0  0  0  0  0  0  0  0  0  0  0
    0.5491    1.0992    2.6637 N   0  0  0  0  0  0  0  0  0  0  0  0
    0.3516    1.7520    3.8552 C   0  0  0  0  0  0  0  0  0  0  0  0
   -0.2200    1.4433    5.0801 C   0  0  0  0  0  0  0  0  0  0  0  0
   -0.0499   -0.1705    2.3345 C   0  0  0  0  0  0  0  0  0  0  0  0
   -1.2590    0.0033    1.4178 C   0  0  0  0  0  0  0  0  0  0  0  0
    1.9670   -0.1416   -0.5735 C   0  0  0  0  0  0  0  0  0  0  0  0
    3.1501   -0.3926    0.3611 C   0  0  0  0  0  0  0  0  0  0  0  0
    0.6021   -0.0627   -3.5703 C   0  0  0  0  0  0  0  0  0  0  0  0
   -0.6080    0.5233   -4.2965 C   0  0  0  0  0  0  0  0  0  0  0  0
    1.9174   -1.6846   -9.6259 C   0  0  0  0  0  0  0  0  0  0  0  0
    1.3165   -2.9161   -9.7569 C   0  0  0  0  0  0  0  0  0  0  0  0
    0.7033   -3.6956   -8.6801 C   0  0  0  0  0  0  0  0  0  0  0  0
    0.5531   -3.3626   -7.5174 O   0  0  0  0  0  0  0  0  0  0  0  0
    0.2943   -4.9773   -9.2861 C   0  0  0  0  0  0  0  0  0  0  0  0
   -0.3006   -6.0846   -8.7059 C   0  0  0  0  0  0  0  0  0  0  0  0
   -0.6899   -6.1065   -7.0340 Cl  0  0  0  0  0  0  0  0  0  0  0  0
   -0.5789   -7.1929   -9.5031 C   0  0  0  0  0  0  0  0  0  0  0  0
   -0.2627   -7.1750  -10.8495 C   0  0  0  0  0  0  0  0  0  0  0  0
    0.3320   -6.0680  -11.4451 C   0  0  0  0  0  0  0  0  0  0  0  0
    0.6105   -4.9645  -10.6580 C   0  0  0  0  0  0  0  0  0  0  0  0
    1.2260   -3.6754  -10.9834 C   0  0  0  0  0  0  0  0  0  0  0  0
    1.6112   -3.2842  -12.2415 C   0  0  0  0  0  0  0  0  0  0  0  0
    1.4767   -4.0794  -13.3986 C   0  0  0  0  0  0  0  0  0  0  0  0
    1.4004   -4.6655  -14.3830 N   0  0  0  0  0  0  0  0  0  0  0  0
    2.1806   -2.0388  -12.5783 C   0  0  0  0  0  0  0  0  0  0  0  0
    2.6439   -1.0490  -12.9344 N   0  0  0  0  0  0  0  0  0  0  0  0
   -0.2877    3.5977    7.7326 H   0  0  0  0  0  0  0  0  0  0  0  0
   -4.1209   -1.3480    8.0846 H   0  0  0  0  0  0  0  0  0  0  0  0
   -3.4305    1.9924   11.8284 H   0  0  0  0  0  0  0  0  0  0  0  0
   -6.4115    0.3547   12.2192 H   0  0  0  0  0  0  0  0  0  0  0  0
   -4.6486   -0.6473   13.9463 H   0  0  0  0  0  0  0  0  0  0  0  0
   -6.9676   -1.8138   14.3554 H   0  0  0  0  0  0  0  0  0  0  0  0
   -7.3524   -3.5912   12.4188 H   0  0  0  0  0  0  0  0  0  0  0  0
   -5.2703   -3.5202   10.8181 H   0  0  0  0  0  0  0  0  0  0  0  0
   -3.9931   -3.0653   13.0911 H   0  0  0  0  0  0  0  0  0  0  0  0
   -3.4332   -1.8782   11.8911 H   0  0  0  0  0  0  0  0  0  0  0  0
   -6.7907   -1.3887   10.3219 H   0  0  0  0  0  0  0  0  0  0  0  0
    3.5795    1.9972   -9.6308 H   0  0  0  0  0  0  0  0  0  0  0  0
    2.8856    0.7460  -10.6706 H   0  0  0  0  0  0  0  0  0  0  0  0
    5.4861    0.5086   -9.0775 H   0  0  0  0  0  0  0  0  0  0  0  0
    5.3488    0.7341  -10.8248 H   0  0  0  0  0  0  0  0  0  0  0  0
    4.8012   -0.7709  -10.0849 H   0  0  0  0  0  0  0  0  0  0  0  0
   -0.6811    0.5121    5.3503 H   0  0  0  0  0  0  0  0  0  0  0  0
   -0.3599   -0.6340    3.2727 H   0  0  0  0  0  0  0  0  0  0  0  0
    0.6980   -0.8173    1.8680 H   0  0  0  0  0  0  0  0  0  0  0  0
   -1.6759   -0.9669    1.1616 H   0  0  0  0  0  0  0  0  0  0  0  0
   -0.9771    0.5201    0.5029 H   0  0  0  0  0  0  0  0  0  0  0  0
   -2.0252    0.5892    1.9194 H   0  0  0  0  0  0  0  0  0  0  0  0
    2.2463   -0.4803   -1.5712 H   0  0  0  0  0  0  0  0  0  0  0  0
    1.0912   -0.7069   -0.2420 H   0  0  0  0  0  0  0  0  0  0  0  0
    3.3883   -1.4530    0.3708 H   0  0  0  0  0  0  0  0  0  0  0  0
    4.0222    0.1563    0.0124 H   0  0  0  0  0  0  0  0  0  0  0  0
    2.9305   -0.0737    1.3768 H   0  0  0  0  0  0  0  0  0  0  0  0
    0.3906   -0.0847   -2.5037 H   0  0  0  0  0  0  0  0  0  0  0  0
    0.7923   -1.0786   -3.9290 H   0  0  0  0  0  0  0  0  0  0  0  0
   -1.4905   -0.0668   -4.0661 H   0  0  0  0  0  0  0  0  0  0  0  0
   -0.4577    0.5104   -5.3721 H   0  0  0  0  0  0  0  0  0  0  0  0
   -0.7784    1.5497   -3.9777 H   0  0  0  0  0  0  0  0  0  0  0  0
    2.3531   -1.2786  -10.5283 H   0  0  0  0  0  0  0  0  0  0  0  0
   -1.0401   -8.0610   -9.0597 H   0  0  0  0  0  0  0  0  0  0  0  0
   -0.4821   -8.0419  -11.4536 H   0  0  0  0  0  0  0  0  0  0  0  0
    0.5671   -6.0871  -12.4960 H   0  0  0  0  0  0  0  0  0  0  0  0
  1  2  2  0  0  0  0
  2  3  1  0  0  0  0
  3  4  2  0  0  0  0
  3  5  1  0  0  0  0
  5  6  2  0  0  0  0
  6  7  1  0  0  0  0
  7  8  2  0  0  0  0
  8  9  1  0  0  0  0
  9 10  2  0  0  0  0
 10 11  1  0  0  0  0
 11 12  2  0  0  0  0
 12 13  1  0  0  0  0
 13 14  3  0  0  0  0
 12 15  1  0  0  0  0
 15 16  3  0  0  0  0
  8 17  1  0  0  0  0
 17 18  1  0  0  0  0
 18 19  1  0  0  0  0
 19 20  2  0  0  0  0
 20 21  1  0  0  0  0
 21 22  1  0  0  0  0
 21 23  1  0  0  0  0
  1 24  1  0  0  0  0
 24 25  1  0  0  0  0
 25 26  1  0  0  0  0
 26 27  1  0  0  0  0
 27 28  1  0  0  0  0
 28 29  1  0  0  0  0
 29 30  1  0  0  0  0
 30 31  1  0  0  0  0
 31 32  1  0  0  0  0
 32 33  2  0  0  0  0
 33 34  1  0  0  0  0
 34 35  1  0  0  0  0
 32 36  1  0  0  0  0
 36 37  1  0  0  0  0
 37 38  1  0  0  0  0
 38 39  1  0  0  0  0
 39 40  1  0  0  0  0
 40 41  1  0  0  0  0
 41 42  1  0  0  0  0
 40 43  2  0  0  0  0
 43 44  1  0  0  0  0
 44 45  1  0  0  0  0
 45 46  1  0  0  0  0
 46 47  1  0  0  0  0
 47 48  1  0  0  0  0
 48 49  1  0  0  0  0
 49 50  1  0  0  0  0
 50 51  1  0  0  0  0
 51 52  1  0  0  0  0
 52 53  1  0  0  0  0
 53 54  1  0  0  0  0
 54 55  1  0  0  0  0
 53 56  1  0  0  0  0
 56 57  1  0  0  0  0
 50 58  1  0  0  0  0
 58 59  1  0  0  0  0
 47 60  1  0  0  0  0
 60 61  1  0  0  0  0
 43 62  1  0  0  0  0
 62 63  2  0  0  0  0
 63 64  1  0  0  0  0
 64 65  2  0  0  0  0
 64 66  1  0  0  0  0
 66 67  2  0  0  0  0
 67 68  1  0  0  0  0
 67 69  1  0  0  0  0
 69 70  2  0  0  0  0
 70 71  1  0  0  0  0
 71 72  2  0  0  0  0
 72 73  1  0  0  0  0
 73 74  2  0  0  0  0
 74 75  1  0  0  0  0
 75 76  3  0  0  0  0
 74 77  1  0  0  0  0
 77 78  3  0  0  0  0
 11  2  1  0  0  0  0
 23 17  1  0  0  0  0
 55 24  2  0  0  0  0
 73 63  1  0  0  0  0
 10  5  1  0  0  0  0
 22 18  1  0  0  0  0
 54 26  2  0  0  0  0
 72 66  1  0  0  0  0
 23  7  1  0  0  0  0
 52 27  2  0  0  0  0
 51 29  2  0  0  0  0
 49 30  2  0  0  0  0
 35 31  2  0  0  0  0
 48 36  2  0  0  0  0
 46 37  2  0  0  0  0
 45 39  2  0  0  0  0
  1 79  1  0  0  0  0
  6 80  1  0  0  0  0
  9 81  1  0  0  0  0
 17 82  1  0  0  0  0
 18 83  1  0  0  0  0
 19 84  1  0  0  0  0
 20 85  1  0  0  0  0
 21 86  1  0  0  0  0
 22 87  1  0  0  0  0
 22 88  1  0  0  0  0
 23 89  1  0  0  0  0
 41 90  1  0  0  0  0
 41 91  1  0  0  0  0
 42 92  1  0  0  0  0
 42 93  1  0  0  0  0
 42 94  1  0  0  0  0
 55 95  1  0  0  0  0
 56 96  1  0  0  0  0
 56 97  1  0  0  0  0
 57 98  1  0  0  0  0
 57 99  1  0  0  0  0
 57100  1  0  0  0  0
 58101  1  0  0  0  0
 58102  1  0  0  0  0
 59103  1  0  0  0  0
 59104  1  0  0  0  0
 59105  1  0  0  0  0
 60106  1  0  0  0  0
 60107  1  0  0  0  0
 61108  1  0  0  0  0
 61109  1  0  0  0  0
 61110  1  0  0  0  0
 62111  1  0  0  0  0
 69112  1  0  0  0  0
 70113  1  0  0  0  0
 71114  1  0  0  0  0
M  END
