120

C         -6.07420        2.27060        4.73240
C         -6.97650        1.84180        5.67080
C         -6.86690        0.61750        6.47310
O         -5.92700       -0.15600        6.52120
C         -8.13410        0.49560        7.21440
C         -8.51120       -0.54070        8.06430
C         -9.77030       -0.39680        8.59610
C        -10.59100        0.70160        8.30850
C        -10.22720        1.73480        7.47770
C         -8.95220        1.60520        6.92030
C         -8.23880        2.47760        5.98840
C         -8.69320        3.69010        5.53290
C         -9.92770        4.26900        5.89310
N        -10.91310        4.80660        6.13580
C         -8.00260        4.55280        4.65760
N         -7.51090        5.31600        3.95230
C        -11.72020        0.18350        9.16330
C        -12.92610       -0.46860        8.44240
C        -12.40380       -1.00890        7.13430
C        -11.62740       -2.04910        7.40680
C        -11.61050       -2.23070        8.90450
C        -13.03670       -1.77240        9.24870
C        -10.80570       -1.04060        9.48400
C         -4.84760        1.72630        4.32580
S         -4.04760        0.31140        5.01360
C         -2.75830        0.49860        3.89030
C         -1.56990       -0.10680        3.48630
S         -0.63110       -1.51400        3.89550
C          0.43680       -1.11760        2.59680
C          1.57880       -1.66820        1.99320
C          2.36850       -2.79270        2.32200
C          3.51810       -3.09550        1.51710
N          4.18790       -4.14440        1.96740
S          3.43650       -4.70540        3.28740
N          2.22630       -3.63330        3.33430
C          3.75660       -2.33280        0.35150
C          4.65190       -2.51320       -0.71030
S          5.94580       -3.56630       -1.16790
C          6.03120       -2.73810       -2.71310
C          6.81710       -2.93910       -3.83740
C          7.89880       -3.96740       -3.89480
C          9.25820       -3.34770       -3.55920
C          6.48800       -2.03270       -4.86400
S          5.18920       -0.93390       -4.38760
C          5.10170       -1.68970       -2.84140
C          4.32580       -1.56280       -1.68800
N          3.29300       -0.77800       -1.24950
C          2.92480       -1.22740        0.00330
C          1.90910       -0.82480        0.90260
N          1.03540        0.25940        0.88840
C          0.11540        0.05620        1.90040
C         -1.06230        0.64110        2.39380
N         -1.92100        1.68010        2.11560
C         -2.95130        1.60200        3.02170
C         -4.12030        2.29340        3.27410
C         -1.90920        2.61730        1.02030
C         -1.42660        4.00060        1.45590
C          1.38960        1.61170        0.49490
C          2.83020        1.96410        0.85590
C          2.58550        0.08160       -2.17140
C          1.17290       -0.42370       -2.44910
C          7.11870       -2.03270       -6.10850
C          6.90510       -1.26270       -7.23010
C          5.88780       -0.22260       -7.38020
O          5.10110        0.18090       -6.53770
C          5.98430        0.25190       -8.77070
C          5.23180        1.19510       -9.40720
C          5.49250        1.48030      -10.76630
C          4.74350        2.44030      -11.47610
C          5.00220        2.70280      -12.79290
C          6.03090        2.00020      -13.43410
F          6.27040        2.27130      -14.73060
C          6.78820        1.06020      -12.79180
C          6.53500        0.77690      -11.43580
C          7.30050       -0.19330      -10.74610
C          7.02960       -0.45380       -9.43000
C          7.62900       -1.38740       -8.47740
C          8.69550       -2.20900       -8.74890
C          9.35120       -2.26510       -9.99580
N          9.93170       -2.36280      -10.98200
C          9.30330       -3.10140       -7.84330
N          9.85680       -3.84860       -7.16720
H         -6.34000        3.16360        4.17940
H         -7.84650       -1.36820        8.25750
H        -10.87280        2.57070        7.26660
H        -12.02660        0.82210        9.98930
H        -13.81000        0.16070        8.38270
H        -12.60030       -0.55800        6.17910
H        -11.04510       -2.64090        6.72500
H        -11.29710       -3.20650        9.26620
H        -13.80030       -2.44450        8.85990
H        -13.19580       -1.61160       10.31410
H        -10.51420       -1.20190       10.52000
H          7.66990       -4.74320       -3.16140
H          7.94750       -4.43230       -4.88050
H         10.02780       -4.11350       -3.58940
H          9.23860       -2.90860       -2.56450
H          9.51700       -2.57370       -4.27770
H         -4.46790        3.16270        2.74490
H         -1.28400        2.21710        0.21970
H         -2.93230        2.69840        0.63890
H         -2.08990        4.40510        2.21580
H         -0.42360        3.95460        1.87480
H         -1.41880        4.67580        0.60480
H          0.73200        2.27800        1.05240
H          1.20060        1.76980       -0.57060
H          3.54630        1.34600        0.32240
H          2.98970        1.82400        1.92300
H          3.02080        3.00600        0.61040
H          3.15920        0.07930       -3.10130
H          2.57310        1.10850       -1.80240
H          0.58090       -0.46470       -1.53830
H          0.68160        0.23440       -3.16060
H          1.21350       -1.42320       -2.87510
H          7.89470       -2.78100       -6.19390
H          4.44480        1.71540       -8.88200
H          3.95560        2.96850      -10.96030
H          4.43790        3.43320      -13.35080
H          7.57280        0.53860      -13.31740
H          8.08040       -0.70750      -11.28400
