113

C         -2.59100       -5.44230        5.17110
C         -1.41380       -5.90320        5.67550
C         -1.25660       -7.35170        5.97080
O         -2.14130       -8.17350        6.06000
C          0.20040       -7.57170        6.06360
C          0.86330       -8.79050        6.19490
C          2.23280       -8.68210        6.23310
C          2.90120       -7.45330        6.14330
C          2.26230       -6.24310        6.01490
C          0.86840       -6.33150        5.97890
C         -0.13280       -5.27180        5.89760
C          0.06220       -3.96060        6.24930
C          1.32010       -3.38790        6.51560
N          2.31980       -2.85690        6.71010
C         -1.00160       -3.06050        6.46720
N         -1.84510       -2.31830        6.70410
C          4.26190       -8.09410        6.25550
C          4.96110       -7.98540        7.62740
C          6.00630       -9.07680        7.58680
C          5.37650      -10.24170        7.66880
C          3.89500       -9.95730        7.76740
C          3.93090       -8.64170        8.55560
C          3.51740       -9.46410        6.35470
C         -2.84900       -4.27210        4.42410
C         -4.09690       -3.73150        4.14220
C         -5.39940       -4.25110        4.65510
C         -6.01790       -5.22820        3.65160
C         -3.99620       -2.62520        3.29280
S         -5.19610       -1.54980        2.61310
C         -3.93030       -0.68580        1.81510
C         -3.76790        0.43210        0.98570
C         -4.71720        1.35810        0.50220
C         -4.26130        2.47020       -0.27550
N         -5.24780        3.27870       -0.63090
S         -6.63230        2.68720       -0.03850
N         -6.02740        1.37670        0.69330
C         -2.89090        2.55310       -0.60360
C         -2.20960        3.45390       -1.43350
S         -2.54250        4.85450       -2.39160
C         -0.87780        4.85340       -2.91270
C         -0.12530        5.64630       -3.78460
S         -0.41990        6.98710       -4.81190
C          1.28010        7.01090       -5.32500
C          2.01370        5.97160       -4.75100
C          3.41160        5.55040       -5.05420
C          3.64810        5.29260       -6.54130
C          1.20580        5.22690       -3.88740
S          1.53900        3.82550       -2.90560
C         -0.11320        3.81760       -2.35690
C         -0.88310        3.01680       -1.50580
N         -0.71510        1.90220       -0.73010
C         -1.93940        1.58870       -0.15980
C         -2.37240        0.55860        0.71960
N         -1.71120       -0.45400        1.39930
C         -2.65210       -1.19890        2.05860
C         -2.68790       -2.31190        2.90290
S         -1.55260       -3.40820        3.59460
C         -0.32660       -0.56690        1.80390
C          0.10900        0.63060        2.64450
C          0.48380        1.10910       -0.87880
C          0.21460       -0.16850       -1.67050
C          1.58010        7.99440       -6.28760
C          2.75740        8.64960       -6.54260
C          3.88330        8.80510       -5.60280
O          4.01070        8.30590       -4.50210
C          4.78500        9.79820       -6.22210
C          5.97300       10.30540       -5.73130
C          6.64800       11.25400       -6.48330
C          6.10760       11.66640       -7.69220
F          6.77100       12.59140       -8.40450
C          4.91450       11.17430       -8.20440
C          4.24900       10.22250       -7.45040
C          3.00280        9.49730       -7.69150
C          2.26790        9.53270       -8.84730
C          1.14910        8.71470       -9.11400
N          0.25710        8.05780       -9.41570
C          2.56560       10.36320       -9.94810
N          2.75380       11.01900      -10.87090
H         -3.42800       -6.12560        5.27530
H          0.31390       -9.71650        6.25910
H          2.78310       -5.30280        5.93430
H          4.93790       -7.92670        5.41920
H          5.30390       -6.98730        7.88540
H          7.05670       -8.89700        7.45140
H          5.79560      -11.22940        7.61530
H          3.26820      -10.75660        8.15330
H          2.97540       -8.12220        8.59660
H          4.31480       -8.77740        9.56520
H          3.69400      -10.20970        5.58160
H         -5.25880       -4.74300        5.61750
H         -6.07650       -3.40620        4.79550
H         -6.97290       -5.58830        4.02460
H         -6.18220       -4.73490        2.69650
H         -5.36330       -6.08210        3.49240
H          3.61620        4.63570       -4.49190
H          4.09860        6.32250       -4.69800
H          2.96560        4.52830       -6.90740
H          3.49660        6.19500       -7.12710
H          4.66750        4.94880       -6.69640
H          0.31860       -0.71280        0.93820
H         -0.25490       -1.47320        2.41030
H         -0.48790        0.68180        3.55210
H         -0.02000        1.56350        2.10010
H          1.15330        0.52590        2.92570
H          1.19960        1.72620       -1.42690
H          0.92550        0.89820        0.09470
H         -0.11510        0.08160       -2.67610
H          1.12350       -0.75970       -1.74200
H         -0.56120       -0.76760       -1.19930
H          0.71920        8.30280       -6.87180
H          6.35860        9.96210       -4.78400
H          7.58090       11.67950       -6.14910
H          4.54780       11.54320       -9.14790
