126

C         -5.87150       -5.93580        1.76120
C         -5.53040       -6.99210        2.55610
C         -4.15720       -7.54230        2.66180
O         -3.20810       -7.32440        1.93820
C         -4.14380       -8.32230        3.91430
C         -3.04430       -8.96260        4.48220
C         -3.31520       -9.58500        5.67690
C         -4.58610       -9.57190        6.26790
C         -5.68050       -8.94880        5.71690
C         -5.42550       -8.30760        4.50060
C         -6.31780       -7.53420        3.64390
C         -7.67450       -7.40440        3.78680
C         -8.42300       -7.96230        4.84280
N         -9.08490       -8.38480        5.68050
C         -8.50140       -6.72680        2.86610
N         -9.23000       -6.21170        2.14320
C         -4.12550      -10.36680        7.46440
C         -3.88500       -9.57300        8.76620
C         -3.00530      -10.48590        9.58960
C         -1.80290      -10.50150        9.02880
C         -1.84950       -9.59900        7.81700
C         -2.84320       -8.54120        8.31430
C         -2.70970      -10.38420        6.80380
C         -5.11750       -5.46180        0.66200
C         -4.42420       -6.14600       -0.32450
C         -4.48980       -7.61940       -0.54780
C         -4.98500       -7.95620       -1.95390
C         -3.74220       -5.25620       -1.16910
S         -2.63090       -5.50300       -2.49800
C         -2.36810       -3.79660       -2.57090
C         -1.54730       -2.87580       -3.23770
C         -0.50700       -3.08110       -4.16990
C          0.32160       -1.97010       -4.53390
N          1.29680       -2.31490       -5.36020
S          1.17660       -3.90080       -5.66040
N         -0.12070       -4.21020       -4.74300
C          0.00970       -0.69160       -4.02340
C          0.63300        0.55040       -4.21750
S          2.04000        1.20400       -4.98390
C          1.60880        2.77660       -4.36470
C          2.21790        4.03660       -4.38210
S          3.67820        4.68680       -5.01110
C          3.35710        6.22500       -4.20380
C          2.12520        6.24920       -3.56650
C          1.48110        7.45910       -2.97630
C          0.13270        7.75430       -3.63340
C          1.49800        5.00040       -3.66880
S          0.02970        4.35540       -2.98850
C          0.41810        2.78400       -3.62790
C         -0.13500        1.50090       -3.54010
N         -1.19790        0.89660       -2.92360
C         -1.11660       -0.46510       -3.18180
C         -1.84580       -1.58770       -2.70530
N         -2.82590       -1.73840       -1.73820
C         -3.12180       -3.07160       -1.64360
C         -3.91040       -3.90430       -0.84300
S         -4.99550       -3.71020        0.48160
C         -3.25970       -0.84040       -0.69300
C         -2.11200       -0.47750        0.24630
C         -2.33180        1.70130       -2.52270
C         -3.54030        1.45090       -3.42090
C          4.36890        7.21300       -4.27100
C          4.74690        8.02300       -3.23930
C          4.45970        7.74440       -1.81060
O          3.69080        6.92800       -1.34730
C          5.39610        8.59300       -1.04970
C          5.54880        8.62550        0.33500
C          6.51930        9.49510        0.77030
C          7.28890       10.27280       -0.10580
C          7.14610       10.25450       -1.47290
C          6.16020        9.37770       -1.93680
C          5.73230        9.08380       -3.30010
C          6.11610        9.74860       -4.43490
C          5.57530        9.49820       -5.71400
N          5.15350        9.36390       -6.77340
C          7.05780       10.79700       -4.46510
N          7.82050       11.65070       -4.55330
C          8.08440       10.89240        1.01630
C          9.50830       10.33940        1.23890
C          9.84590       10.76790        2.64880
C          9.11390       10.03650        3.47930
C          8.26930        9.10100        2.64470
C          9.23090        8.84920        1.47620
C          7.22260       10.02950        1.99300
H         -6.73320       -5.33660        2.03390
H         -2.08210       -8.94720        3.99460
H         -6.65200       -8.94200        6.18270
H         -4.63520      -11.31370        7.63130
H         -4.78620       -9.19940        9.24440
H         -3.35200      -11.05090       10.43480
H         -0.94440      -11.08200        9.31170
H         -0.89610       -9.24870        7.43040
H         -3.19590       -7.86370        7.53880
H         -2.44690       -7.96460        9.14850
H         -2.27490      -11.34320        6.52850
H         -5.15720       -8.06850        0.18870
H         -3.49150       -8.03730       -0.39620
H         -5.96580       -7.51720       -2.12520
H         -4.29950       -7.58430       -2.71030
H         -5.06600       -9.03450       -2.06430
H          2.14060        8.31810       -3.10330
H          1.34420        7.29560       -1.90430
H         -0.28870        8.66370       -3.21300
H         -0.57130        6.94280       -3.46770
H          0.25690        7.89460       -4.70510
H         -3.72860        0.04520       -1.12110
H         -4.03130       -1.37000       -0.12870
H         -1.73750       -1.37390        0.73500
H         -2.46100        0.21200        1.01020
H         -1.28890       -0.01810       -0.29590
H         -2.02090        2.74410       -2.62200
H         -2.57100        1.54050       -1.47120
H         -3.29920        1.71140       -4.44890
H         -3.83920        0.40540       -3.39890
H         -4.37690        2.06340       -3.09580
H          4.93820        7.24210       -5.19300
H          4.93730        8.00770        0.97390
H          7.74560       10.85520       -2.13660
H          8.03240       11.97660        1.09320
H         10.22380       10.59920        0.46370
H         10.51910       11.57040        2.88690
H          9.05320       10.10590        4.54960
H          7.85590        8.23220        3.15010
H          8.77550        8.34120        0.62800
H         10.12360        8.30910        1.78720
H          6.59290       10.53880        2.72010
