113

C         -7.11050        3.21260       -0.91210
C         -6.72180        4.23230       -1.74390
C         -5.35340        4.52520       -2.17710
O         -4.33960        3.89780       -1.91470
C         -5.42840        5.74560       -2.99620
C         -4.36810        6.41290       -3.60590
C         -4.74150        7.53960       -4.29820
C         -6.07270        7.96850       -4.38220
C         -7.12820        7.31620       -3.78990
C         -6.77050        6.16840       -3.07600
C         -7.60080        5.23100       -2.32030
C         -8.96680        5.29830       -2.20920
C         -9.76930        6.29780       -2.79830
N        -10.48950        7.07390       -3.24260
C         -9.78490        4.38810       -1.50860
N        -10.52300        3.69150       -0.96890
C         -5.71680        9.17100       -5.22070
C         -5.68610       10.53240       -4.49450
C         -4.86010       11.41070       -5.40630
C         -3.59930       11.00530       -5.32400
C         -3.55200        9.84570       -4.35520
C         -4.66130       10.26850       -3.38350
C         -4.23200        8.69350       -5.12530
C         -6.36990        2.19780       -0.29470
C         -6.95060        1.23020        0.54230
C         -8.40350        1.10710        0.86660
C         -9.13840        0.31980       -0.22180
C         -6.00120        0.33080        1.00980
S         -6.12240       -1.06050        2.07050
C         -4.41880       -1.29720        1.89830
C         -3.41450       -2.14280        2.38680
C         -3.44740       -3.15530        3.37110
C         -2.21400       -3.75840        3.78460
N         -2.38290       -4.64100        4.75650
S         -3.95900       -4.71150        5.11690
N         -4.48710       -3.61760        4.04770
C         -1.02600       -3.41860        3.09990
C          0.26640       -3.95830        3.17790
S          1.13560       -5.13370        4.10090
C          2.52490       -4.85760        3.08290
C          3.81160       -5.39800        3.02010
S          4.68190       -6.57860        3.90790
C          6.11800       -6.28900        2.91800
C          5.88750       -5.36510        1.89620
C          6.84700       -5.06970        0.79400
C          6.19050       -5.05050       -0.58420
C          4.58450       -4.86410        1.97830
S          3.70120       -3.66800        1.06490
C          2.31140       -3.89540        2.08580
C          1.01580       -3.37330        2.15100
N          0.25260       -2.45920        1.47060
C         -1.01230       -2.46630        2.04230
C         -2.19370       -1.72580        1.77800
N         -2.45360       -0.62000        0.99350
C         -3.79790       -0.36380        1.05840
C         -4.69600        0.58170        0.55370
S         -4.62990        1.96660       -0.47090
C         -1.55370        0.39060        0.48370
C         -1.50570        0.41130       -1.04320
C          0.63350       -2.11750        0.11630
C         -0.00520       -3.07470       -0.88760
C          7.25250       -7.05870        3.22890
C          8.57030       -6.70520        3.07400
C          9.06630       -5.31730        3.00190
O          8.42210       -4.29080        2.94540
C         10.53840       -5.42080        3.13870
C         11.46840       -4.40070        3.15040
C         12.80160       -4.74750        3.30100
F         13.73800       -3.79040        3.31070
C         13.17810       -6.08320        3.44200
F         14.47250       -6.38760        3.58950
C         12.24330       -7.10790        3.43560
C         10.90850       -6.76820        3.28150
C          9.70280       -7.59290        3.22460
C          9.66730       -8.96270        3.22040
C         10.80620       -9.78340        3.35670
N         11.69690      -10.49810        3.47050
C          8.49770       -9.73200        3.04040
N          7.59490      -10.42070        2.87100
H         -8.16530        3.16950       -0.67830
H         -3.35800        6.04440       -3.51850
H         -8.14570        7.66040       -3.86740
H         -6.18630        9.22140       -6.20110
H         -6.66000       10.91240       -4.19880
H         -5.27250       12.17530       -6.03800
H         -2.74830       11.36320       -5.87320
H         -2.58140        9.60070       -3.93210
H         -4.95750        9.49100       -2.68170
H         -4.40540       11.17430       -2.83640
H         -3.70980        8.42840       -6.04280
H         -8.49600        0.57410        1.81510
H         -8.86760        2.08780        0.97880
H         -9.07370        0.83310       -1.17820
H         -8.70630       -0.67260       -0.32790
H        -10.18690        0.21890        0.04260
H          7.31840       -4.10210        0.99320
H          7.63740       -5.82310        0.80800
H          6.95700       -4.95760       -1.34930
H          5.50710       -4.21190       -0.68690
H          5.64030       -5.97280       -0.75820
H         -1.92210        1.36320        0.82860
H         -0.56940        0.23770        0.92900
H         -0.73310        1.09910       -1.37560
H         -2.45670        0.75650       -1.43870
H         -1.30380       -0.57500       -1.45170
H          1.72190       -2.20120        0.06570
H          0.36820       -1.09170       -0.11970
H          0.30000       -4.09780       -0.68030
H         -1.09040       -3.02220       -0.82840
H          0.30690       -2.81760       -1.89600
H          7.03990       -8.01220        3.69870
H         11.17430       -3.36870        3.04440
H         12.58220       -8.12390        3.55450
