116

C          0.23450        5.97620       -5.17300
C          0.82960        5.46820       -6.30130
C          1.31510        4.09910       -6.48520
O          1.29980        3.18760       -5.67300
C          1.83600        4.02300       -7.86010
C          2.38790        2.90810       -8.48710
C          2.78360        3.13510       -9.78330
C          2.63820        4.37950      -10.41010
C          2.09520        5.48710       -9.80260
C          1.68800        5.27930       -8.48130
C          1.07240        6.20180       -7.52730
C          0.79580        7.52340       -7.77360
C          0.20760        8.42870       -6.86660
N         -0.26490        9.23210       -6.19350
C          1.06980        8.18500       -8.98890
N          1.26180        8.79470       -9.94300
C          3.24590        3.89060      -11.70130
C          4.70510        4.30850      -11.97940
C          5.17110        3.31970      -13.02370
C          5.31070        2.14130      -12.42980
C          4.94110        2.31370      -10.97400
C          5.42810        3.75070      -10.74650
C          3.40950        2.50290      -11.00180
C         -0.05300        5.38200       -3.93990
C         -0.69940        6.06450       -2.89430
C         -1.20950        7.46740       -2.95040
C         -2.59370        7.51770       -3.60300
C         -0.86560        5.24840       -1.78360
S         -1.59220        5.52790       -0.21040
C         -1.19130        3.90290        0.22610
C         -1.28540        3.04590        1.32830
C         -1.78270        3.29000        2.62650
C         -1.67940        2.25500        3.60870
N         -2.15150        2.62550        4.78870
S         -2.68360        4.14990        4.66960
N         -2.33050        4.39470        3.10860
C         -1.14490        1.00630        3.22520
C         -1.00280       -0.17540        3.96450
S         -1.28900       -0.76240        5.56610
C         -0.72760       -2.33450        5.05650
C         -0.56990       -3.56430        5.70270
S         -0.85460       -4.13550        7.29560
C         -0.28090       -5.73420        6.82270
C          0.10920       -5.79610        5.46830
C          0.63180       -7.05190        4.83820
C          1.03330       -6.91560        3.37600
C         -0.06280       -4.56360        4.85200
S          0.21330       -3.96150        3.23140
C         -0.34310       -2.38440        3.71070
C         -0.49770       -1.14110        3.08890
N         -0.32240       -0.59790        1.84630
C         -0.69140        0.73610        1.89860
C         -0.70070        1.79710        0.94770
N         -0.23900        1.92990       -0.34850
C         -0.54340        3.18940       -0.78700
C         -0.34810        3.95140       -1.94230
S          0.34700        3.72000       -3.50230
C          0.53860        1.07700       -1.21680
C         -0.33300        0.39680       -2.27280
C          0.07560       -1.46850        0.76540
C          1.58410       -1.71900        0.76510
C         -0.20210       -6.84190        7.67540
C         -0.53080       -6.98830        9.00020
C         -1.09460       -5.95590        9.87640
O         -1.34920       -4.79880        9.59240
C         -1.30000       -6.60020       11.18620
C         -1.81620       -6.05770       12.34240
C         -1.92580       -6.86360       13.47610
C         -2.47780       -6.29510       14.74420
C         -1.50870       -8.18910       13.40320
C         -0.98680       -8.74090       12.24100
C         -0.87940       -7.94080       11.11510
C         -0.38770       -8.21090        9.76640
C          0.12000       -9.41170        9.33680
C          0.23030      -10.55940       10.14930
N          0.35080      -11.53160       10.74850
C          0.60830       -9.68920        8.04430
N          1.02570       -9.99920        7.01870
H         -0.07850        7.00960       -5.22940
H          2.47510        1.96690       -7.96700
H          1.98810        6.43460      -10.30330
H          2.60840        3.95860      -12.58070
H          4.84140        5.36210      -12.20700
H          5.29320        3.55860      -14.06380
H          5.57260        1.19920      -12.87470
H          5.29390        1.54990      -10.28600
H          6.51020        3.83650      -10.83030
H          5.10020        4.18680       -9.80470
H          2.88220        1.64550      -11.41620
H         -0.52530        8.11310       -3.50270
H         -1.28440        7.84340       -1.92800
H         -3.30160        6.91880       -3.03480
H         -2.94860        8.54370       -3.63380
H         -2.55350        7.13650       -4.62070
H          1.49910       -7.39680        5.40920
H         -0.13320       -7.83010        4.92250
H          1.40330       -7.87230        3.01590
H          1.82310       -6.17820        3.25440
H          0.18440       -6.62650        2.76110
H          1.09780        0.35950       -0.62400
H          1.26270        1.71730       -1.73120
H          0.26130       -0.31650       -2.83670
H         -1.17810       -0.12080       -1.82250
H         -0.72170        1.13820       -2.96540
H         -0.26960       -1.06210       -0.18050
H         -0.43470       -2.42560        0.91800
H          1.86320       -2.29260       -0.11430
H          1.86750       -2.28500        1.64830
H          2.14380       -0.78590        0.77230
H          0.18500       -7.72780        7.19160
H         -2.12950       -5.02440       12.36080
H         -3.43420       -5.80960       14.55750
H         -2.61530       -7.06830       15.49520
H         -1.79820       -5.54180       15.14220
H         -1.59370       -8.81400       14.28040
H         -0.67840       -9.77340       12.23330
