
  xtb     02102223103D
 energy: -236.422727873283 gnorm: 0.000957399060 xtb: 6.4.1 (unknown)
145160  0     0  0            999 V2000
   -0.6977   -1.0062    5.2852 C   0  0  0  0  0  0  0  0  0  0  0  0
    0.0738   -0.9569    6.4131 C   0  0  0  0  0  0  0  0  0  0  0  0
    1.4878   -0.5351    6.5538 C   0  0  0  0  0  0  0  0  0  0  0  0
    2.1811    0.0850    5.7732 O   0  0  0  0  0  0  0  0  0  0  0  0
    1.9246   -1.0365    7.8703 C   0  0  0  0  0  0  0  0  0  0  0  0
    3.2132   -0.9709    8.3974 C   0  0  0  0  0  0  0  0  0  0  0  0
    3.3376   -1.5385    9.6421 C   0  0  0  0  0  0  0  0  0  0  0  0
    2.2600   -2.1317   10.3145 C   0  0  0  0  0  0  0  0  0  0  0  0
    0.9848   -2.2025    9.8070 C   0  0  0  0  0  0  0  0  0  0  0  0
    0.8358   -1.6256    8.5414 C   0  0  0  0  0  0  0  0  0  0  0  0
   -0.3451   -1.5092    7.6923 C   0  0  0  0  0  0  0  0  0  0  0  0
   -1.6287   -1.7962    8.0769 C   0  0  0  0  0  0  0  0  0  0  0  0
   -1.9842   -2.3094    9.3421 C   0  0  0  0  0  0  0  0  0  0  0  0
   -2.3486   -2.7311   10.3460 N   0  0  0  0  0  0  0  0  0  0  0  0
   -2.7871   -1.5738    7.3016 C   0  0  0  0  0  0  0  0  0  0  0  0
   -3.7808   -1.4030    6.7512 N   0  0  0  0  0  0  0  0  0  0  0  0
    3.1052   -2.5037   11.5071 C   0  0  0  0  0  0  0  0  0  0  0  0
    2.9566   -1.6180   12.7624 C   0  0  0  0  0  0  0  0  0  0  0  0
    4.2084   -1.9084   13.5585 C   0  0  0  0  0  0  0  0  0  0  0  0
    5.2299   -1.3490   12.9227 C   0  0  0  0  0  0  0  0  0  0  0  0
    4.6857   -0.6701   11.6864 C   0  0  0  0  0  0  0  0  0  0  0  0
    3.3117   -0.2318   12.2091 C   0  0  0  0  0  0  0  0  0  0  0  0
    4.3065   -1.8430   10.7576 C   0  0  0  0  0  0  0  0  0  0  0  0
   -0.4557   -0.5485    3.9750 C   0  0  0  0  0  0  0  0  0  0  0  0
   -1.6120   -1.0724    2.7463 S   0  0  0  0  0  0  0  0  0  0  0  0
   -0.7328   -0.2336    1.5471 C   0  0  0  0  0  0  0  0  0  0  0  0
   -0.8110   -0.0621    0.1319 C   0  0  0  0  0  0  0  0  0  0  0  0
    0.2985    0.7315   -0.2496 C   0  0  0  0  0  0  0  0  0  0  0  0
    1.1298    1.1247    0.9593 C   0  0  0  0  0  0  0  0  0  0  0  0
    2.5451    0.5746    0.9530 C   0  0  0  0  0  0  0  0  0  0  0  0
    2.9560   -0.4033    0.0602 C   0  0  0  0  0  0  0  0  0  0  0  0
    4.2461   -0.9011    0.1147 C   0  0  0  0  0  0  0  0  0  0  0  0
    5.1480   -0.4481    1.0669 C   0  0  0  0  0  0  0  0  0  0  0  0
    6.5617   -0.9528    1.0895 C   0  0  0  0  0  0  0  0  0  0  0  0
    7.4502   -0.0837    0.1968 C   0  0  0  0  0  0  0  0  0  0  0  0
    4.7250    0.5207    1.9687 C   0  0  0  0  0  0  0  0  0  0  0  0
    3.4409    1.0248    1.9160 C   0  0  0  0  0  0  0  0  0  0  0  0
    1.1247    2.6405    1.0576 C   0  0  0  0  0  0  0  0  0  0  0  0
    2.0751    3.3814    0.3663 C   0  0  0  0  0  0  0  0  0  0  0  0
    2.0528    4.7622    0.4070 C   0  0  0  0  0  0  0  0  0  0  0  0
    1.0801    5.4396    1.1312 C   0  0  0  0  0  0  0  0  0  0  0  0
    1.0901    6.9387    1.2128 C   0  0  0  0  0  0  0  0  0  0  0  0
    1.9667    7.4035    2.3775 C   0  0  0  0  0  0  0  0  0  0  0  0
    0.1292    4.6941    1.8144 C   0  0  0  0  0  0  0  0  0  0  0  0
    0.1450    3.3118    1.7748 C   0  0  0  0  0  0  0  0  0  0  0  0
    0.3717    0.4377    2.0658 C   0  0  0  0  0  0  0  0  0  0  0  0
    0.5334    0.2620    3.4302 C   0  0  0  0  0  0  0  0  0  0  0  0
    0.5039    1.0645   -1.5675 C   0  0  0  0  0  0  0  0  0  0  0  0
   -0.4016    0.5625   -2.5002 C   0  0  0  0  0  0  0  0  0  0  0  0
   -0.4489    0.6903   -3.9205 C   0  0  0  0  0  0  0  0  0  0  0  0
   -1.5567    0.0173   -4.4393 C   0  0  0  0  0  0  0  0  0  0  0  0
   -2.3295   -0.6446   -3.3283 C   0  0  0  0  0  0  0  0  0  0  0  0
   -1.5048   -0.2401   -2.1196 C   0  0  0  0  0  0  0  0  0  0  0  0
   -1.7283   -0.5462   -0.7976 C   0  0  0  0  0  0  0  0  0  0  0  0
   -3.7355   -0.0991   -3.1487 C   0  0  0  0  0  0  0  0  0  0  0  0
   -4.6919   -0.8522   -2.4798 C   0  0  0  0  0  0  0  0  0  0  0  0
   -5.9625   -0.3491   -2.2753 C   0  0  0  0  0  0  0  0  0  0  0  0
   -6.3109    0.9162   -2.7297 C   0  0  0  0  0  0  0  0  0  0  0  0
   -7.6780    1.4792   -2.4697 C   0  0  0  0  0  0  0  0  0  0  0  0
   -7.6833    2.2853   -1.1691 C   0  0  0  0  0  0  0  0  0  0  0  0
   -5.3471    1.6687   -3.3873 C   0  0  0  0  0  0  0  0  0  0  0  0
   -4.0734    1.1715   -3.5920 C   0  0  0  0  0  0  0  0  0  0  0  0
   -2.3477   -2.1380   -3.6071 C   0  0  0  0  0  0  0  0  0  0  0  0
   -1.5032   -3.0255   -2.9576 C   0  0  0  0  0  0  0  0  0  0  0  0
   -1.5393   -4.3715   -3.2807 C   0  0  0  0  0  0  0  0  0  0  0  0
   -2.4032   -4.8360   -4.2549 C   0  0  0  0  0  0  0  0  0  0  0  0
   -3.2418   -3.9558   -4.9272 C   0  0  0  0  0  0  0  0  0  0  0  0
   -4.2116   -4.4411   -5.9651 C   0  0  0  0  0  0  0  0  0  0  0  0
   -5.5962   -4.6432   -5.3465 C   0  0  0  0  0  0  0  0  0  0  0  0
   -3.2038   -2.6110   -4.5926 C   0  0  0  0  0  0  0  0  0  0  0  0
   -1.6418    0.0740   -5.8166 C   0  0  0  0  0  0  0  0  0  0  0  0
   -0.5952    0.8018   -6.3805 C   0  0  0  0  0  0  0  0  0  0  0  0
    0.5012    1.4192   -5.1336 S   0  0  0  0  0  0  0  0  0  0  0  0
   -0.2519    1.1138   -7.7036 C   0  0  0  0  0  0  0  0  0  0  0  0
   -0.8279    0.7845   -8.9072 C   0  0  0  0  0  0  0  0  0  0  0  0
   -2.0281   -0.0362   -9.1641 C   0  0  0  0  0  0  0  0  0  0  0  0
   -2.7817   -0.5711   -8.3766 O   0  0  0  0  0  0  0  0  0  0  0  0
   -2.1619   -0.0987  -10.6369 C   0  0  0  0  0  0  0  0  0  0  0  0
   -3.1251   -0.7592  -11.3718 C   0  0  0  0  0  0  0  0  0  0  0  0
   -3.0576   -0.6905  -12.7577 C   0  0  0  0  0  0  0  0  0  0  0  0
   -4.2247   -1.4896  -13.7363 Cl  0  0  0  0  0  0  0  0  0  0  0  0
   -2.0261    0.0371  -13.3553 C   0  0  0  0  0  0  0  0  0  0  0  0
   -1.9633    0.0973  -14.6911 F   0  0  0  0  0  0  0  0  0  0  0  0
   -1.0575    0.7041  -12.6215 C   0  0  0  0  0  0  0  0  0  0  0  0
   -1.1284    0.6353  -11.2384 C   0  0  0  0  0  0  0  0  0  0  0  0
   -0.2876    1.2082  -10.1889 C   0  0  0  0  0  0  0  0  0  0  0  0
    0.8028    2.0065  -10.4226 C   0  0  0  0  0  0  0  0  0  0  0  0
    1.6460    2.5972   -9.4571 C   0  0  0  0  0  0  0  0  0  0  0  0
    2.3889    3.1238   -8.7567 N   0  0  0  0  0  0  0  0  0  0  0  0
    1.2518    2.3707  -11.7108 C   0  0  0  0  0  0  0  0  0  0  0  0
    1.6774    2.7119  -12.7207 N   0  0  0  0  0  0  0  0  0  0  0  0
   -1.6458   -1.5235    5.3823 H   0  0  0  0  0  0  0  0  0  0  0  0
    4.0154   -0.5117    7.8411 H   0  0  0  0  0  0  0  0  0  0  0  0
    0.1700   -2.6735   10.3307 H   0  0  0  0  0  0  0  0  0  0  0  0
    3.1558   -3.5656   11.7396 H   0  0  0  0  0  0  0  0  0  0  0  0
    2.0090   -1.7224   13.2834 H   0  0  0  0  0  0  0  0  0  0  0  0
    4.2291   -2.5180   14.4427 H   0  0  0  0  0  0  0  0  0  0  0  0
    6.2743   -1.3981   13.1696 H   0  0  0  0  0  0  0  0  0  0  0  0
    5.3140    0.0891   11.2285 H   0  0  0  0  0  0  0  0  0  0  0  0
    3.3904    0.5170   12.9955 H   0  0  0  0  0  0  0  0  0  0  0  0
    2.6348    0.1238   11.4344 H   0  0  0  0  0  0  0  0  0  0  0  0
    5.1580   -2.4654   10.4885 H   0  0  0  0  0  0  0  0  0  0  0  0
    2.2716   -0.7804   -0.6859 H   0  0  0  0  0  0  0  0  0  0  0  0
    4.5528   -1.6578   -0.5935 H   0  0  0  0  0  0  0  0  0  0  0  0
    6.5937   -1.9847    0.7339 H   0  0  0  0  0  0  0  0  0  0  0  0
    6.9463   -0.9305    2.1110 H   0  0  0  0  0  0  0  0  0  0  0  0
    7.0907   -0.1047   -0.8296 H   0  0  0  0  0  0  0  0  0  0  0  0
    8.4760   -0.4441    0.2132 H   0  0  0  0  0  0  0  0  0  0  0  0
    7.4384    0.9478    0.5419 H   0  0  0  0  0  0  0  0  0  0  0  0
    5.4076    0.8815    2.7242 H   0  0  0  0  0  0  0  0  0  0  0  0
    3.1311    1.7799    2.6230 H   0  0  0  0  0  0  0  0  0  0  0  0
    2.8455    2.8745   -0.1966 H   0  0  0  0  0  0  0  0  0  0  0  0
    2.8013    5.3229   -0.1346 H   0  0  0  0  0  0  0  0  0  0  0  0
    1.4779    7.3572    0.2818 H   0  0  0  0  0  0  0  0  0  0  0  0
    0.0734    7.3092    1.3572 H   0  0  0  0  0  0  0  0  0  0  0  0
    1.5863    7.0103    3.3176 H   0  0  0  0  0  0  0  0  0  0  0  0
    2.9871    7.0501    2.2473 H   0  0  0  0  0  0  0  0  0  0  0  0
    1.9795    8.4894    2.4346 H   0  0  0  0  0  0  0  0  0  0  0  0
   -0.6380    5.2004    2.3829 H   0  0  0  0  0  0  0  0  0  0  0  0
   -0.6104    2.7551    2.3103 H   0  0  0  0  0  0  0  0  0  0  0  0
    1.3240    0.6802    4.0237 H   0  0  0  0  0  0  0  0  0  0  0  0
    1.3352    1.6777   -1.8793 H   0  0  0  0  0  0  0  0  0  0  0  0
   -2.5688   -1.1460   -0.4846 H   0  0  0  0  0  0  0  0  0  0  0  0
   -4.4455   -1.8441   -2.1293 H   0  0  0  0  0  0  0  0  0  0  0  0
   -6.6962   -0.9506   -1.7576 H   0  0  0  0  0  0  0  0  0  0  0  0
   -8.4048    0.6682   -2.3935 H   0  0  0  0  0  0  0  0  0  0  0  0
   -7.9747    2.1282   -3.2961 H   0  0  0  0  0  0  0  0  0  0  0  0
   -6.9771    3.1103   -1.2321 H   0  0  0  0  0  0  0  0  0  0  0  0
   -7.3960    1.6534   -0.3316 H   0  0  0  0  0  0  0  0  0  0  0  0
   -8.6741    2.6894   -0.9759 H   0  0  0  0  0  0  0  0  0  0  0  0
   -5.5961    2.6568   -3.7473 H   0  0  0  0  0  0  0  0  0  0  0  0
   -3.3412    1.7776   -4.1057 H   0  0  0  0  0  0  0  0  0  0  0  0
   -0.8192   -2.6735   -2.1996 H   0  0  0  0  0  0  0  0  0  0  0  0
   -0.8849   -5.0605   -2.7668 H   0  0  0  0  0  0  0  0  0  0  0  0
   -2.4237   -5.8880   -4.5003 H   0  0  0  0  0  0  0  0  0  0  0  0
   -3.8626   -5.3850   -6.3879 H   0  0  0  0  0  0  0  0  0  0  0  0
   -4.2810   -3.7082   -6.7714 H   0  0  0  0  0  0  0  0  0  0  0  0
   -5.9659   -3.7074   -4.9328 H   0  0  0  0  0  0  0  0  0  0  0  0
   -5.5489   -5.3772   -4.5449 H   0  0  0  0  0  0  0  0  0  0  0  0
   -6.3008   -4.9940   -6.0969 H   0  0  0  0  0  0  0  0  0  0  0  0
   -3.8573   -1.9200   -5.1052 H   0  0  0  0  0  0  0  0  0  0  0  0
   -2.4087   -0.3795   -6.4153 H   0  0  0  0  0  0  0  0  0  0  0  0
    0.6449    1.7181   -7.7687 H   0  0  0  0  0  0  0  0  0  0  0  0
   -3.9079   -1.3132  -10.8789 H   0  0  0  0  0  0  0  0  0  0  0  0
   -0.2904    1.2459  -13.1494 H   0  0  0  0  0  0  0  0  0  0  0  0
  1  2  2  0  0  0  0
  2  3  1  0  0  0  0
  3  4  2  0  0  0  0
  3  5  1  0  0  0  0
  5  6  2  0  0  0  0
  6  7  1  0  0  0  0
  7  8  2  0  0  0  0
  8  9  1  0  0  0  0
  9 10  2  0  0  0  0
 10 11  1  0  0  0  0
 11 12  2  0  0  0  0
 12 13  1  0  0  0  0
 13 14  3  0  0  0  0
 12 15  1  0  0  0  0
 15 16  3  0  0  0  0
  8 17  1  0  0  0  0
 17 18  1  0  0  0  0
 18 19  1  0  0  0  0
 19 20  2  0  0  0  0
 20 21  1  0  0  0  0
 21 22  1  0  0  0  0
 21 23  1  0  0  0  0
  1 24  1  0  0  0  0
 24 25  1  0  0  0  0
 25 26  1  0  0  0  0
 26 27  1  0  0  0  0
 27 28  2  0  0  0  0
 28 29  1  0  0  0  0
 29 30  1  0  0  0  0
 30 31  2  0  0  0  0
 31 32  1  0  0  0  0
 32 33  2  0  0  0  0
 33 34  1  0  0  0  0
 34 35  1  0  0  0  0
 33 36  1  0  0  0  0
 36 37  2  0  0  0  0
 29 38  1  0  0  0  0
 38 39  2  0  0  0  0
 39 40  1  0  0  0  0
 40 41  2  0  0  0  0
 41 42  1  0  0  0  0
 42 43  1  0  0  0  0
 41 44  1  0  0  0  0
 44 45  2  0  0  0  0
 29 46  1  0  0  0  0
 46 47  1  0  0  0  0
 28 48  1  0  0  0  0
 48 49  2  0  0  0  0
 49 50  1  0  0  0  0
 50 51  2  0  0  0  0
 51 52  1  0  0  0  0
 52 53  1  0  0  0  0
 53 54  2  0  0  0  0
 52 55  1  0  0  0  0
 55 56  2  0  0  0  0
 56 57  1  0  0  0  0
 57 58  2  0  0  0  0
 58 59  1  0  0  0  0
 59 60  1  0  0  0  0
 58 61  1  0  0  0  0
 61 62  2  0  0  0  0
 52 63  1  0  0  0  0
 63 64  2  0  0  0  0
 64 65  1  0  0  0  0
 65 66  2  0  0  0  0
 66 67  1  0  0  0  0
 67 68  1  0  0  0  0
 68 69  1  0  0  0  0
 67 70  2  0  0  0  0
 51 71  1  0  0  0  0
 71 72  2  0  0  0  0
 72 73  1  0  0  0  0
 72 74  1  0  0  0  0
 74 75  2  0  0  0  0
 75 76  1  0  0  0  0
 76 77  2  0  0  0  0
 76 78  1  0  0  0  0
 78 79  2  0  0  0  0
 79 80  1  0  0  0  0
 80 81  1  0  0  0  0
 80 82  2  0  0  0  0
 82 83  1  0  0  0  0
 82 84  1  0  0  0  0
 84 85  2  0  0  0  0
 85 86  1  0  0  0  0
 86 87  2  0  0  0  0
 87 88  1  0  0  0  0
 88 89  3  0  0  0  0
 87 90  1  0  0  0  0
 90 91  3  0  0  0  0
 11  2  1  0  0  0  0
 23 17  1  0  0  0  0
 47 24  2  0  0  0  0
 53 49  1  0  0  0  0
 62 55  1  0  0  0  0
 70 63  1  0  0  0  0
 86 75  1  0  0  0  0
 10  5  1  0  0  0  0
 22 18  1  0  0  0  0
 46 26  2  0  0  0  0
 73 50  1  0  0  0  0
 85 78  1  0  0  0  0
 23  7  1  0  0  0  0
 54 27  1  0  0  0  0
 37 30  1  0  0  0  0
 45 38  1  0  0  0  0
  1 92  1  0  0  0  0
  6 93  1  0  0  0  0
  9 94  1  0  0  0  0
 17 95  1  0  0  0  0
 18 96  1  0  0  0  0
 19 97  1  0  0  0  0
 20 98  1  0  0  0  0
 21 99  1  0  0  0  0
 22100  1  0  0  0  0
 22101  1  0  0  0  0
 23102  1  0  0  0  0
 31103  1  0  0  0  0
 32104  1  0  0  0  0
 34105  1  0  0  0  0
 34106  1  0  0  0  0
 35107  1  0  0  0  0
 35108  1  0  0  0  0
 35109  1  0  0  0  0
 36110  1  0  0  0  0
 37111  1  0  0  0  0
 39112  1  0  0  0  0
 40113  1  0  0  0  0
 42114  1  0  0  0  0
 42115  1  0  0  0  0
 43116  1  0  0  0  0
 43117  1  0  0  0  0
 43118  1  0  0  0  0
 44119  1  0  0  0  0
 45120  1  0  0  0  0
 47121  1  0  0  0  0
 48122  1  0  0  0  0
 54123  1  0  0  0  0
 56124  1  0  0  0  0
 57125  1  0  0  0  0
 59126  1  0  0  0  0
 59127  1  0  0  0  0
 60128  1  0  0  0  0
 60129  1  0  0  0  0
 60130  1  0  0  0  0
 61131  1  0  0  0  0
 62132  1  0  0  0  0
 64133  1  0  0  0  0
 65134  1  0  0  0  0
 66135  1  0  0  0  0
 68136  1  0  0  0  0
 68137  1  0  0  0  0
 69138  1  0  0  0  0
 69139  1  0  0  0  0
 69140  1  0  0  0  0
 70141  1  0  0  0  0
 71142  1  0  0  0  0
 74143  1  0  0  0  0
 79144  1  0  0  0  0
 84145  1  0  0  0  0
M  END
