113

C         -3.05740       -3.79320        5.41220
C         -3.85770       -2.75380        5.81860
C         -3.82620       -1.38270        5.30550
O         -3.10130       -0.92870        4.43450
C         -4.84930       -0.63380        6.05280
C         -5.16790        0.71530        5.91420
C         -6.16570        1.14260        6.75670
C         -6.79810        0.29040        7.67120
C         -6.48970       -1.04130        7.82030
C         -5.47840       -1.49860        6.97010
C         -4.88260       -2.82880        6.84070
C         -5.25210       -3.93210        7.56850
C         -6.27190       -3.94290        8.54300
N         -7.08830       -4.03780        9.34520
C         -4.68710       -5.21980        7.46360
N         -4.28480       -6.29650        7.44460
C         -7.70160        1.38280        8.18680
C         -9.16020        1.36680        7.68210
C         -9.65060        2.77090        7.95300
C         -9.04970        3.58130        7.09110
C         -8.14380        2.73860        6.22250
C         -8.96540        1.44430        6.16220
C         -6.99400        2.33420        7.16920
C         -2.04610       -3.84840        4.44730
C         -1.32860       -5.02100        4.15410
C         -1.55760       -6.36340        4.76840
C         -2.70820       -7.09200        4.06850
C         -0.39160       -4.80510        3.15210
S          0.76290       -5.86620        2.36370
C          1.27340       -4.53280        1.38670
C          2.15720       -4.26460        0.33330
C          2.98880       -5.12440       -0.41790
C          3.68200       -4.59640       -1.55600
N          4.37430       -5.52180       -2.20160
S          4.17590       -6.93560       -1.43840
N          3.19580       -6.42190       -0.25690
C          3.59580       -3.21290       -1.82610
C          4.22380       -2.42630       -2.80340
S          5.26300       -2.61850       -4.17390
C          5.22790       -0.88980       -4.40600
C          5.78210       -0.01390       -5.34690
S          6.76060       -0.17630       -6.74870
C          6.62830        1.55680       -7.06250
C          5.92760        2.22940       -6.06950
C          5.81560        3.71280       -5.95360
C          6.20500        4.22090       -4.56680
C          5.44510        1.32400       -5.11460
S          4.43450        1.50930       -3.70740
C          4.45660       -0.21140       -3.45480
C          3.87550       -1.09800       -2.54090
N          3.03860       -1.03490       -1.46030
C          2.83360       -2.33020       -1.00880
C          2.01930       -2.88000        0.01670
N          1.05090       -2.34130        0.84440
C          0.59630       -3.33950        1.66340
C         -0.36320       -3.48630        2.66900
S         -1.51990       -2.48320        3.45950
C          0.28220       -1.12260        0.72050
C         -0.44580       -1.05430       -0.61960
C          2.84800        0.22750       -0.78000
C          3.55320        0.24750        0.57360
C          7.26280        2.04220       -8.23070
C          6.81650        3.04660       -9.03890
C          5.42110        3.56620       -9.07350
O          4.49160        3.25760       -8.35900
C          5.38180        4.45400      -10.24370
C          6.62450        4.45540      -10.86480
S          6.70300        5.45480      -12.27090
C          5.03680        5.88630      -12.03940
C          4.14080        6.72450      -12.72820
C          2.92110        6.73280      -12.12690
S          2.82030        5.73370      -10.71770
C          4.46650        5.27030      -10.91710
C          7.55110        3.61680      -10.16070
C          8.87740        3.46310      -10.47890
C          9.42890        4.10640      -11.60620
N          9.88590        4.62380      -12.52290
C          9.80790        2.70790       -9.74110
N         10.61390        2.12400       -9.16810
H         -3.22150       -4.73890        5.91020
H         -4.65070        1.33580        5.19910
H         -6.98190       -1.67830        8.53550
H         -7.62200        1.60330        9.24960
H         -9.76670        0.55260        8.06900
H        -10.31910        3.02880        8.75320
H         -9.11600        4.65170        7.02780
H         -7.82580        3.17520        5.27940
H         -9.90740        1.57890        5.63320
H         -8.42830        0.59710        5.73950
H         -6.43860        3.18750        7.55440
H         -0.64370       -6.94980        4.65460
H         -1.77850       -6.27680        5.83320
H         -3.63670       -6.53560        4.17260
H         -2.49100       -7.21240        3.00970
H         -2.84500       -8.07420        4.51150
H          6.46090        4.17630       -6.70180
H          4.78610        4.00430       -6.18020
H          7.20300        3.87800       -4.30280
H          5.50670        3.87620       -3.80910
H          6.20120        5.30790       -4.56260
H          0.91570       -0.25020        0.88100
H         -0.45360       -1.13670        1.52790
H         -1.00730       -0.12660       -0.68760
H          0.25030       -1.10810       -1.45350
H         -1.14160       -1.88550       -0.70510
H          3.28490        0.99510       -1.42330
H          1.78670        0.45860       -0.68450
H          3.38460        1.20230        1.06430
H          4.62370        0.11250        0.43700
H          3.19150       -0.54920        1.21920
H          8.16130        1.51080       -8.52320
H          4.38710        7.28330      -13.61160
H          2.04960        7.27860      -12.43080
