
  xtb     02022220203D
 energy: -190.520338093753 gnorm: 0.000942979975 xtb: 6.4.1 (unknown)
107120  0     0  0            999 V2000
    2.6675    5.0646   -2.9718 C   0  0  0  0  0  0  0  0  0  0  0  0
    3.5373    5.4023   -1.9577 C   0  0  0  0  0  0  0  0  0  0  0  0
    3.7302    4.6823   -0.6979 C   0  0  0  0  0  0  0  0  0  0  0  0
    3.1249    3.7009   -0.2964 O   0  0  0  0  0  0  0  0  0  0  0  0
    4.8273    5.3624    0.0102 C   0  0  0  0  0  0  0  0  0  0  0  0
    5.3715    5.0145    1.2435 C   0  0  0  0  0  0  0  0  0  0  0  0
    6.3951    5.8348    1.6533 C   0  0  0  0  0  0  0  0  0  0  0  0
    6.8470    6.9172    0.8878 C   0  0  0  0  0  0  0  0  0  0  0  0
    6.3188    7.2688   -0.3322 C   0  0  0  0  0  0  0  0  0  0  0  0
    5.2719    6.4510   -0.7650 C   0  0  0  0  0  0  0  0  0  0  0  0
    4.4693    6.5090   -1.9877 C   0  0  0  0  0  0  0  0  0  0  0  0
    4.5972    7.4716   -2.9601 C   0  0  0  0  0  0  0  0  0  0  0  0
    3.8174    7.5728   -4.1267 C   0  0  0  0  0  0  0  0  0  0  0  0
    3.2226    7.7236   -5.1004 N   0  0  0  0  0  0  0  0  0  0  0  0
    5.5348    8.5246   -2.9300 C   0  0  0  0  0  0  0  0  0  0  0  0
    6.2664    9.4083   -2.9844 N   0  0  0  0  0  0  0  0  0  0  0  0
    7.8921    7.3033    1.9043 C   0  0  0  0  0  0  0  0  0  0  0  0
    7.5971    8.5200    2.8157 C   0  0  0  0  0  0  0  0  0  0  0  0
    6.0955    8.6269    2.9150 C   0  0  0  0  0  0  0  0  0  0  0  0
    5.6642    7.6042    3.6410 C   0  0  0  0  0  0  0  0  0  0  0  0
    6.8664    6.7874    4.0458 C   0  0  0  0  0  0  0  0  0  0  0  0
    7.9160    7.9015    4.1862 C   0  0  0  0  0  0  0  0  0  0  0  0
    7.3860    6.0988    2.7593 C   0  0  0  0  0  0  0  0  0  0  0  0
    1.7053    4.0559   -3.0560 C   0  0  0  0  0  0  0  0  0  0  0  0
    0.8647    3.8193   -4.1727 C   0  0  0  0  0  0  0  0  0  0  0  0
    0.8215    4.3853   -5.3868 O   0  0  0  0  0  0  0  0  0  0  0  0
    1.9570    4.8513   -6.1094 C   0  0  0  0  0  0  0  0  0  0  0  0
    3.1255    3.8761   -6.0997 C   0  0  0  0  0  0  0  0  0  0  0  0
   -0.1057    2.8517   -3.8862 C   0  0  0  0  0  0  0  0  0  0  0  0
   -1.3841    2.1625   -4.8653 S   0  0  0  0  0  0  0  0  0  0  0  0
   -1.7962    1.1383   -3.5342 C   0  0  0  0  0  0  0  0  0  0  0  0
   -2.6718    0.0824   -3.2403 C   0  0  0  0  0  0  0  0  0  0  0  0
   -3.5636   -0.6528   -4.0539 C   0  0  0  0  0  0  0  0  0  0  0  0
   -4.1681   -1.8443   -3.5250 C   0  0  0  0  0  0  0  0  0  0  0  0
   -4.9115   -2.4731   -4.4214 N   0  0  0  0  0  0  0  0  0  0  0  0
   -4.8637   -1.6379   -5.8066 S   0  0  0  0  0  0  0  0  0  0  0  0
   -3.8880   -0.4419   -5.3195 N   0  0  0  0  0  0  0  0  0  0  0  0
   -3.9634   -2.1718   -2.1658 C   0  0  0  0  0  0  0  0  0  0  0  0
   -4.4793   -3.2021   -1.3594 C   0  0  0  0  0  0  0  0  0  0  0  0
   -5.4618   -4.6198   -1.5031 S   0  0  0  0  0  0  0  0  0  0  0  0
   -5.2809   -4.8828    0.2119 C   0  0  0  0  0  0  0  0  0  0  0  0
   -5.7715   -5.8944    1.0706 C   0  0  0  0  0  0  0  0  0  0  0  0
   -6.6177   -6.7991    0.5603 O   0  0  0  0  0  0  0  0  0  0  0  0
   -7.6015   -7.4336    1.3523 C   0  0  0  0  0  0  0  0  0  0  0  0
   -8.5286   -6.4521    2.0594 C   0  0  0  0  0  0  0  0  0  0  0  0
   -5.3322   -5.7020    2.3783 C   0  0  0  0  0  0  0  0  0  0  0  0
   -4.4136   -4.1988    2.5463 S   0  0  0  0  0  0  0  0  0  0  0  0
   -4.5120   -3.9105    0.8487 C   0  0  0  0  0  0  0  0  0  0  0  0
   -4.0437   -2.9507   -0.0543 C   0  0  0  0  0  0  0  0  0  0  0  0
   -3.2601   -1.8257   -0.0203 N   0  0  0  0  0  0  0  0  0  0  0  0
   -3.1756   -1.3463   -1.3177 C   0  0  0  0  0  0  0  0  0  0  0  0
   -2.4116   -0.3003   -1.8931 C   0  0  0  0  0  0  0  0  0  0  0  0
   -1.3729    0.4664   -1.4078 N   0  0  0  0  0  0  0  0  0  0  0  0
   -0.9996    1.3375   -2.3977 C   0  0  0  0  0  0  0  0  0  0  0  0
   -0.0218    2.3164   -2.5973 C   0  0  0  0  0  0  0  0  0  0  0  0
    1.2939    2.9864   -1.7060 S   0  0  0  0  0  0  0  0  0  0  0  0
   -0.5014    0.2284   -0.2775 C   0  0  0  0  0  0  0  0  0  0  0  0
   -0.5795    1.3463    0.7625 C   0  0  0  0  0  0  0  0  0  0  0  0
   -3.1732   -1.0826    1.2188 C   0  0  0  0  0  0  0  0  0  0  0  0
   -4.5350   -0.5099    1.6114 C   0  0  0  0  0  0  0  0  0  0  0  0
   -5.4181   -6.4977    3.5496 C   0  0  0  0  0  0  0  0  0  0  0  0
   -5.3474   -7.8533    3.5997 C   0  0  0  0  0  0  0  0  0  0  0  0
   -5.5744   -8.7584    5.0898 S   0  0  0  0  0  0  0  0  0  0  0  0
   -5.1264  -10.2954    4.2906 C   0  0  0  0  0  0  0  0  0  0  0  0
   -5.1164  -11.3594    4.8379 O   0  0  0  0  0  0  0  0  0  0  0  0
   -4.8164  -10.0424    2.9870 N   0  0  0  0  0  0  0  0  0  0  0  0
   -4.3400  -11.1089    2.1209 C   0  0  0  0  0  0  0  0  0  0  0  0
   -2.8397  -11.3168    2.2801 C   0  0  0  0  0  0  0  0  0  0  0  0
   -4.9002   -8.7366    2.5227 C   0  0  0  0  0  0  0  0  0  0  0  0
   -4.5811   -8.4167    1.3999 O   0  0  0  0  0  0  0  0  0  0  0  0
    2.7156    5.6973   -3.8446 H   0  0  0  0  0  0  0  0  0  0  0  0
    4.9945    4.1686    1.7968 H   0  0  0  0  0  0  0  0  0  0  0  0
    6.6836    8.1033   -0.9069 H   0  0  0  0  0  0  0  0  0  0  0  0
    8.9235    7.2847    1.5578 H   0  0  0  0  0  0  0  0  0  0  0  0
    8.1257    9.4286    2.5404 H   0  0  0  0  0  0  0  0  0  0  0  0
    5.5145    9.3792    2.4144 H   0  0  0  0  0  0  0  0  0  0  0  0
    4.6502    7.3308    3.8680 H   0  0  0  0  0  0  0  0  0  0  0  0
    6.7299    6.1189    4.8920 H   0  0  0  0  0  0  0  0  0  0  0  0
    8.9363    7.5289    4.2673 H   0  0  0  0  0  0  0  0  0  0  0  0
    7.7045    8.5778    5.0131 H   0  0  0  0  0  0  0  0  0  0  0  0
    8.0882    5.2954    2.9739 H   0  0  0  0  0  0  0  0  0  0  0  0
    2.2635    5.8496   -5.7757 H   0  0  0  0  0  0  0  0  0  0  0  0
    1.5670    4.9516   -7.1263 H   0  0  0  0  0  0  0  0  0  0  0  0
    2.7950    2.8949   -6.4343 H   0  0  0  0  0  0  0  0  0  0  0  0
    3.8938    4.2391   -6.7758 H   0  0  0  0  0  0  0  0  0  0  0  0
    3.5584    3.7764   -5.1065 H   0  0  0  0  0  0  0  0  0  0  0  0
   -8.1618   -8.0287    0.6263 H   0  0  0  0  0  0  0  0  0  0  0  0
   -7.1501   -8.1140    2.0847 H   0  0  0  0  0  0  0  0  0  0  0  0
   -7.9977   -5.8981    2.8302 H   0  0  0  0  0  0  0  0  0  0  0  0
   -8.9424   -5.7476    1.3415 H   0  0  0  0  0  0  0  0  0  0  0  0
   -9.3416   -7.0002    2.5261 H   0  0  0  0  0  0  0  0  0  0  0  0
   -0.7408   -0.7465    0.1493 H   0  0  0  0  0  0  0  0  0  0  0  0
    0.5264    0.1824   -0.6542 H   0  0  0  0  0  0  0  0  0  0  0  0
   -0.0599    1.0416    1.6665 H   0  0  0  0  0  0  0  0  0  0  0  0
   -1.6091    1.5939    1.0119 H   0  0  0  0  0  0  0  0  0  0  0  0
   -0.1004    2.2438    0.3824 H   0  0  0  0  0  0  0  0  0  0  0  0
   -2.4693   -0.2664    1.1125 H   0  0  0  0  0  0  0  0  0  0  0  0
   -2.8208   -1.7673    1.9963 H   0  0  0  0  0  0  0  0  0  0  0  0
   -4.4395    0.0608    2.5309 H   0  0  0  0  0  0  0  0  0  0  0  0
   -5.2577   -1.3053    1.7719 H   0  0  0  0  0  0  0  0  0  0  0  0
   -4.9072    0.1465    0.8275 H   0  0  0  0  0  0  0  0  0  0  0  0
   -5.4666   -5.9631    4.4910 H   0  0  0  0  0  0  0  0  0  0  0  0
   -4.5785  -10.8083    1.0980 H   0  0  0  0  0  0  0  0  0  0  0  0
   -4.8841  -12.0185    2.3845 H   0  0  0  0  0  0  0  0  0  0  0  0
   -2.5086  -12.1089    1.6148 H   0  0  0  0  0  0  0  0  0  0  0  0
   -2.3054  -10.4031    2.0294 H   0  0  0  0  0  0  0  0  0  0  0  0
   -2.6048  -11.5983    3.3041 H   0  0  0  0  0  0  0  0  0  0  0  0
  1  2  2  0  0  0  0
  2  3  1  0  0  0  0
  3  4  2  0  0  0  0
  3  5  1  0  0  0  0
  5  6  2  0  0  0  0
  6  7  1  0  0  0  0
  7  8  2  0  0  0  0
  8  9  1  0  0  0  0
  9 10  2  0  0  0  0
 10 11  1  0  0  0  0
 11 12  2  0  0  0  0
 12 13  1  0  0  0  0
 13 14  3  0  0  0  0
 12 15  1  0  0  0  0
 15 16  3  0  0  0  0
  8 17  1  0  0  0  0
 17 18  1  0  0  0  0
 18 19  1  0  0  0  0
 19 20  2  0  0  0  0
 20 21  1  0  0  0  0
 21 22  1  0  0  0  0
 21 23  1  0  0  0  0
  1 24  1  0  0  0  0
 24 25  2  0  0  0  0
 25 26  1  0  0  0  0
 26 27  1  0  0  0  0
 27 28  1  0  0  0  0
 25 29  1  0  0  0  0
 29 30  1  0  0  0  0
 30 31  1  0  0  0  0
 31 32  1  0  0  0  0
 32 33  1  0  0  0  0
 33 34  1  0  0  0  0
 34 35  2  0  0  0  0
 35 36  1  0  0  0  0
 36 37  1  0  0  0  0
 34 38  1  0  0  0  0
 38 39  1  0  0  0  0
 39 40  1  0  0  0  0
 40 41  1  0  0  0  0
 41 42  1  0  0  0  0
 42 43  1  0  0  0  0
 43 44  1  0  0  0  0
 44 45  1  0  0  0  0
 42 46  2  0  0  0  0
 46 47  1  0  0  0  0
 47 48  1  0  0  0  0
 48 49  1  0  0  0  0
 49 50  1  0  0  0  0
 50 51  1  0  0  0  0
 51 52  1  0  0  0  0
 52 53  1  0  0  0  0
 53 54  1  0  0  0  0
 54 55  1  0  0  0  0
 55 56  1  0  0  0  0
 53 57  1  0  0  0  0
 57 58  1  0  0  0  0
 50 59  1  0  0  0  0
 59 60  1  0  0  0  0
 46 61  1  0  0  0  0
 61 62  2  0  0  0  0
 62 63  1  0  0  0  0
 63 64  1  0  0  0  0
 64 65  2  0  0  0  0
 64 66  1  0  0  0  0
 66 67  1  0  0  0  0
 67 68  1  0  0  0  0
 66 69  1  0  0  0  0
 69 70  2  0  0  0  0
 11  2  1  0  0  0  0
 23 17  1  0  0  0  0
 56 24  1  0  0  0  0
 69 62  1  0  0  0  0
 10  5  1  0  0  0  0
 22 18  1  0  0  0  0
 55 29  2  0  0  0  0
 23  7  1  0  0  0  0
 54 31  2  0  0  0  0
 52 32  2  0  0  0  0
 37 33  2  0  0  0  0
 51 38  2  0  0  0  0
 49 39  2  0  0  0  0
 48 41  2  0  0  0  0
  1 71  1  0  0  0  0
  6 72  1  0  0  0  0
  9 73  1  0  0  0  0
 17 74  1  0  0  0  0
 18 75  1  0  0  0  0
 19 76  1  0  0  0  0
 20 77  1  0  0  0  0
 21 78  1  0  0  0  0
 22 79  1  0  0  0  0
 22 80  1  0  0  0  0
 23 81  1  0  0  0  0
 27 82  1  0  0  0  0
 27 83  1  0  0  0  0
 28 84  1  0  0  0  0
 28 85  1  0  0  0  0
 28 86  1  0  0  0  0
 44 87  1  0  0  0  0
 44 88  1  0  0  0  0
 45 89  1  0  0  0  0
 45 90  1  0  0  0  0
 45 91  1  0  0  0  0
 57 92  1  0  0  0  0
 57 93  1  0  0  0  0
 58 94  1  0  0  0  0
 58 95  1  0  0  0  0
 58 96  1  0  0  0  0
 59 97  1  0  0  0  0
 59 98  1  0  0  0  0
 60 99  1  0  0  0  0
 60100  1  0  0  0  0
 60101  1  0  0  0  0
 61102  1  0  0  0  0
 67103  1  0  0  0  0
 67104  1  0  0  0  0
 68105  1  0  0  0  0
 68106  1  0  0  0  0
 68107  1  0  0  0  0
M  END
