
  xtb     02112207543D
 energy: -175.106413574591 gnorm: 0.000391429619 xtb: 6.4.1 (unknown)
 98110  0     0  0            999 V2000
    2.4112   -3.5850    1.0306 C   0  0  0  0  0  0  0  0  0  0  0  0
    2.6946   -4.8535    0.6095 C   0  0  0  0  0  0  0  0  0  0  0  0
    3.3873   -5.7756    1.5493 C   0  0  0  0  0  0  0  0  0  0  0  0
    3.8985   -5.4803    2.6073 O   0  0  0  0  0  0  0  0  0  0  0  0
    3.2787   -7.1154    0.9405 C   0  0  0  0  0  0  0  0  0  0  0  0
    3.7038   -8.3265    1.4828 C   0  0  0  0  0  0  0  0  0  0  0  0
    3.4577   -9.4161    0.6820 C   0  0  0  0  0  0  0  0  0  0  0  0
    2.8318   -9.3124   -0.5670 C   0  0  0  0  0  0  0  0  0  0  0  0
    2.4163   -8.1236   -1.1191 C   0  0  0  0  0  0  0  0  0  0  0  0
    2.6604   -7.0027   -0.3216 C   0  0  0  0  0  0  0  0  0  0  0  0
    2.4103   -5.5870   -0.5940 C   0  0  0  0  0  0  0  0  0  0  0  0
    2.1715   -5.0506   -1.8364 C   0  0  0  0  0  0  0  0  0  0  0  0
    1.8837   -5.8019   -2.9912 C   0  0  0  0  0  0  0  0  0  0  0  0
    1.6034   -6.3523   -3.9598 N   0  0  0  0  0  0  0  0  0  0  0  0
    2.2501   -3.6741   -2.1124 C   0  0  0  0  0  0  0  0  0  0  0  0
    2.3234   -2.5578   -2.3735 N   0  0  0  0  0  0  0  0  0  0  0  0
    2.9000  -10.7988   -0.8151 C   0  0  0  0  0  0  0  0  0  0  0  0
    1.5955  -11.5967   -0.6068 C   0  0  0  0  0  0  0  0  0  0  0  0
    2.0671  -13.0243   -0.4498 C   0  0  0  0  0  0  0  0  0  0  0  0
    2.6647  -13.1242    0.7307 C   0  0  0  0  0  0  0  0  0  0  0  0
    2.6065  -11.7659    1.3917 C   0  0  0  0  0  0  0  0  0  0  0  0
    1.2591  -11.2677    0.8534 C   0  0  0  0  0  0  0  0  0  0  0  0
    3.6022  -10.9147    0.5758 C   0  0  0  0  0  0  0  0  0  0  0  0
    1.4963   -2.6364    0.5435 C   0  0  0  0  0  0  0  0  0  0  0  0
    0.3502   -2.8024   -0.2479 C   0  0  0  0  0  0  0  0  0  0  0  0
    0.0096   -4.0394   -0.6330 O   0  0  0  0  0  0  0  0  0  0  0  0
   -1.2508   -4.2711   -1.2466 C   0  0  0  0  0  0  0  0  0  0  0  0
   -2.3881   -4.2708   -0.2342 C   0  0  0  0  0  0  0  0  0  0  0  0
   -0.2933   -1.5759   -0.5002 C   0  0  0  0  0  0  0  0  0  0  0  0
   -1.6930   -1.0990   -1.4495 S   0  0  0  0  0  0  0  0  0  0  0  0
   -1.3824    0.5514   -1.0540 C   0  0  0  0  0  0  0  0  0  0  0  0
   -1.8775    1.8270   -1.3577 C   0  0  0  0  0  0  0  0  0  0  0  0
   -2.9139    2.2236   -2.2301 C   0  0  0  0  0  0  0  0  0  0  0  0
   -3.1155    3.6210   -2.4687 C   0  0  0  0  0  0  0  0  0  0  0  0
   -4.0809    3.8520   -3.3450 N   0  0  0  0  0  0  0  0  0  0  0  0
   -4.6870    2.4297   -3.8244 S   0  0  0  0  0  0  0  0  0  0  0  0
   -3.7407    1.4654   -2.9334 N   0  0  0  0  0  0  0  0  0  0  0  0
   -2.3370    4.5518   -1.7478 C   0  0  0  0  0  0  0  0  0  0  0  0
   -2.3829    5.9526   -1.7239 C   0  0  0  0  0  0  0  0  0  0  0  0
   -3.2267    7.2451   -2.4954 S   0  0  0  0  0  0  0  0  0  0  0  0
   -2.3399    8.3947   -1.5058 C   0  0  0  0  0  0  0  0  0  0  0  0
   -2.3281    9.8020   -1.4090 C   0  0  0  0  0  0  0  0  0  0  0  0
   -3.1134   10.6986   -2.0082 O   0  0  0  0  0  0  0  0  0  0  0  0
   -3.8573   10.3440   -3.1653 C   0  0  0  0  0  0  0  0  0  0  0  0
   -2.9666   10.2048   -4.3916 C   0  0  0  0  0  0  0  0  0  0  0  0
   -1.4078   10.2458   -0.4519 C   0  0  0  0  0  0  0  0  0  0  0  0
   -0.6079    8.9050    0.3594 S   0  0  0  0  0  0  0  0  0  0  0  0
   -1.4519    7.7687   -0.6218 C   0  0  0  0  0  0  0  0  0  0  0  0
   -1.4742    6.3750   -0.7517 C   0  0  0  0  0  0  0  0  0  0  0  0
   -0.8485    5.2926   -0.1938 N   0  0  0  0  0  0  0  0  0  0  0  0
   -1.3526    4.1517   -0.7986 C   0  0  0  0  0  0  0  0  0  0  0  0
   -1.0531    2.7667   -0.6733 C   0  0  0  0  0  0  0  0  0  0  0  0
   -0.0750    2.0632    0.0117 N   0  0  0  0  0  0  0  0  0  0  0  0
   -0.2693    0.7305   -0.2307 C   0  0  0  0  0  0  0  0  0  0  0  0
    0.3525   -0.4824    0.0893 C   0  0  0  0  0  0  0  0  0  0  0  0
    1.7260   -0.9607    1.0093 S   0  0  0  0  0  0  0  0  0  0  0  0
    1.1916    2.5036    0.5531 C   0  0  0  0  0  0  0  0  0  0  0  0
    2.0691    3.1350   -0.5246 C   0  0  0  0  0  0  0  0  0  0  0  0
   -0.1279    5.4517    1.0498 C   0  0  0  0  0  0  0  0  0  0  0  0
   -0.8943    4.8429    2.2214 C   0  0  0  0  0  0  0  0  0  0  0  0
   -1.0598   11.5500   -0.0463 C   0  0  0  0  0  0  0  0  0  0  0  0
   -1.2886   12.7413   -0.6752 C   0  0  0  0  0  0  0  0  0  0  0  0
   -0.8691   13.9339   -0.0443 C   0  0  0  0  0  0  0  0  0  0  0  0
   -0.5316   14.8983    0.4774 N   0  0  0  0  0  0  0  0  0  0  0  0
   -1.8243   12.9526   -1.9603 C   0  0  0  0  0  0  0  0  0  0  0  0
   -2.1743   13.2234   -3.0200 N   0  0  0  0  0  0  0  0  0  0  0  0
    2.9519   -3.2836    1.9245 H   0  0  0  0  0  0  0  0  0  0  0  0
    4.1869   -8.3629    2.4467 H   0  0  0  0  0  0  0  0  0  0  0  0
    1.9394   -8.0563   -2.0830 H   0  0  0  0  0  0  0  0  0  0  0  0
    3.4488  -11.1058   -1.7034 H   0  0  0  0  0  0  0  0  0  0  0  0
    0.8263  -11.4146   -1.3524 H   0  0  0  0  0  0  0  0  0  0  0  0
    1.9711  -13.7750   -1.2121 H   0  0  0  0  0  0  0  0  0  0  0  0
    3.1675  -13.9752    1.1514 H   0  0  0  0  0  0  0  0  0  0  0  0
    2.7576  -11.7386    2.4675 H   0  0  0  0  0  0  0  0  0  0  0  0
    1.0711  -10.2117    1.0385 H   0  0  0  0  0  0  0  0  0  0  0  0
    0.4233  -11.8577    1.2263 H   0  0  0  0  0  0  0  0  0  0  0  0
    4.6206  -11.2970    0.6135 H   0  0  0  0  0  0  0  0  0  0  0  0
   -1.4307   -3.5402   -2.0411 H   0  0  0  0  0  0  0  0  0  0  0  0
   -1.1466   -5.2608   -1.6998 H   0  0  0  0  0  0  0  0  0  0  0  0
   -3.3174   -4.5212   -0.7365 H   0  0  0  0  0  0  0  0  0  0  0  0
   -2.4953   -3.2929    0.2282 H   0  0  0  0  0  0  0  0  0  0  0  0
   -2.1942   -5.0067    0.5427 H   0  0  0  0  0  0  0  0  0  0  0  0
   -4.4322    9.4286   -2.9854 H   0  0  0  0  0  0  0  0  0  0  0  0
   -4.5454   11.1820   -3.2947 H   0  0  0  0  0  0  0  0  0  0  0  0
   -2.4167   11.1302   -4.5435 H   0  0  0  0  0  0  0  0  0  0  0  0
   -3.5817   10.0065   -5.2639 H   0  0  0  0  0  0  0  0  0  0  0  0
   -2.2603    9.3868   -4.2688 H   0  0  0  0  0  0  0  0  0  0  0  0
    1.6888    1.6121    0.9426 H   0  0  0  0  0  0  0  0  0  0  0  0
    1.0356    3.1760    1.3962 H   0  0  0  0  0  0  0  0  0  0  0  0
    3.0079    3.4673   -0.0902 H   0  0  0  0  0  0  0  0  0  0  0  0
    2.2870    2.4030   -1.2986 H   0  0  0  0  0  0  0  0  0  0  0  0
    1.5744    3.9845   -0.9902 H   0  0  0  0  0  0  0  0  0  0  0  0
   -0.0210    6.5270    1.2114 H   0  0  0  0  0  0  0  0  0  0  0  0
    0.8782    5.0409    0.9667 H   0  0  0  0  0  0  0  0  0  0  0  0
   -1.8502    5.3473    2.3416 H   0  0  0  0  0  0  0  0  0  0  0  0
   -1.0881    3.7850    2.0598 H   0  0  0  0  0  0  0  0  0  0  0  0
   -0.3239    4.9611    3.1386 H   0  0  0  0  0  0  0  0  0  0  0  0
   -0.5034   11.6032    0.8837 H   0  0  0  0  0  0  0  0  0  0  0  0
  1  2  2  0  0  0  0
  2  3  1  0  0  0  0
  3  4  2  0  0  0  0
  3  5  1  0  0  0  0
  5  6  2  0  0  0  0
  6  7  1  0  0  0  0
  7  8  2  0  0  0  0
  8  9  1  0  0  0  0
  9 10  2  0  0  0  0
 10 11  1  0  0  0  0
 11 12  2  0  0  0  0
 12 13  1  0  0  0  0
 13 14  3  0  0  0  0
 12 15  1  0  0  0  0
 15 16  3  0  0  0  0
  8 17  1  0  0  0  0
 17 18  1  0  0  0  0
 18 19  1  0  0  0  0
 19 20  2  0  0  0  0
 20 21  1  0  0  0  0
 21 22  1  0  0  0  0
 21 23  1  0  0  0  0
  1 24  1  0  0  0  0
 24 25  2  0  0  0  0
 25 26  1  0  0  0  0
 26 27  1  0  0  0  0
 27 28  1  0  0  0  0
 25 29  1  0  0  0  0
 29 30  1  0  0  0  0
 30 31  1  0  0  0  0
 31 32  1  0  0  0  0
 32 33  1  0  0  0  0
 33 34  1  0  0  0  0
 34 35  2  0  0  0  0
 35 36  1  0  0  0  0
 36 37  1  0  0  0  0
 34 38  1  0  0  0  0
 38 39  1  0  0  0  0
 39 40  1  0  0  0  0
 40 41  1  0  0  0  0
 41 42  1  0  0  0  0
 42 43  1  0  0  0  0
 43 44  1  0  0  0  0
 44 45  1  0  0  0  0
 42 46  2  0  0  0  0
 46 47  1  0  0  0  0
 47 48  1  0  0  0  0
 48 49  1  0  0  0  0
 49 50  1  0  0  0  0
 50 51  1  0  0  0  0
 51 52  1  0  0  0  0
 52 53  1  0  0  0  0
 53 54  1  0  0  0  0
 54 55  1  0  0  0  0
 55 56  1  0  0  0  0
 53 57  1  0  0  0  0
 57 58  1  0  0  0  0
 50 59  1  0  0  0  0
 59 60  1  0  0  0  0
 46 61  1  0  0  0  0
 61 62  2  0  0  0  0
 62 63  1  0  0  0  0
 63 64  3  0  0  0  0
 62 65  1  0  0  0  0
 65 66  3  0  0  0  0
 11  2  1  0  0  0  0
 23 17  1  0  0  0  0
 56 24  1  0  0  0  0
 10  5  1  0  0  0  0
 22 18  1  0  0  0  0
 55 29  2  0  0  0  0
 23  7  1  0  0  0  0
 54 31  2  0  0  0  0
 52 32  2  0  0  0  0
 37 33  2  0  0  0  0
 51 38  2  0  0  0  0
 49 39  2  0  0  0  0
 48 41  2  0  0  0  0
  1 67  1  0  0  0  0
  6 68  1  0  0  0  0
  9 69  1  0  0  0  0
 17 70  1  0  0  0  0
 18 71  1  0  0  0  0
 19 72  1  0  0  0  0
 20 73  1  0  0  0  0
 21 74  1  0  0  0  0
 22 75  1  0  0  0  0
 22 76  1  0  0  0  0
 23 77  1  0  0  0  0
 27 78  1  0  0  0  0
 27 79  1  0  0  0  0
 28 80  1  0  0  0  0
 28 81  1  0  0  0  0
 28 82  1  0  0  0  0
 44 83  1  0  0  0  0
 44 84  1  0  0  0  0
 45 85  1  0  0  0  0
 45 86  1  0  0  0  0
 45 87  1  0  0  0  0
 57 88  1  0  0  0  0
 57 89  1  0  0  0  0
 58 90  1  0  0  0  0
 58 91  1  0  0  0  0
 58 92  1  0  0  0  0
 59 93  1  0  0  0  0
 59 94  1  0  0  0  0
 60 95  1  0  0  0  0
 60 96  1  0  0  0  0
 60 97  1  0  0  0  0
 61 98  1  0  0  0  0
M  END
