
  xtb     02022217053D
 energy: -218.496822027003 gnorm: 0.000434903954 xtb: 6.4.1 (unknown)
125142  0     0  0            999 V2000
    6.8138   -2.0787   -1.3402 C   0  0  0  0  0  0  0  0  0  0  0  0
    7.9743   -2.0870   -2.0562 C   0  0  0  0  0  0  0  0  0  0  0  0
    8.9800   -3.1513   -1.7929 C   0  0  0  0  0  0  0  0  0  0  0  0
    8.8134   -4.1566   -1.1375 O   0  0  0  0  0  0  0  0  0  0  0  0
   10.2207   -2.6882   -2.4423 C   0  0  0  0  0  0  0  0  0  0  0  0
   11.4739   -3.2969   -2.3967 C   0  0  0  0  0  0  0  0  0  0  0  0
   12.4504   -2.6208   -3.0876 C   0  0  0  0  0  0  0  0  0  0  0  0
   12.2042   -1.4228   -3.7718 C   0  0  0  0  0  0  0  0  0  0  0  0
   10.9728   -0.8146   -3.8325 C   0  0  0  0  0  0  0  0  0  0  0  0
    9.9636   -1.4904   -3.1416 C   0  0  0  0  0  0  0  0  0  0  0  0
    8.5390   -1.1808   -3.0288 C   0  0  0  0  0  0  0  0  0  0  0  0
    7.8368   -0.3516   -3.8653 C   0  0  0  0  0  0  0  0  0  0  0  0
    6.4304   -0.3268   -3.9271 C   0  0  0  0  0  0  0  0  0  0  0  0
    5.2877   -0.3246   -4.0378 N   0  0  0  0  0  0  0  0  0  0  0  0
    8.4258    0.4837   -4.8349 C   0  0  0  0  0  0  0  0  0  0  0  0
    8.8543    1.1928   -5.6296 N   0  0  0  0  0  0  0  0  0  0  0  0
   13.6357   -1.2958   -4.2296 C   0  0  0  0  0  0  0  0  0  0  0  0
   14.5185   -0.2828   -3.4706 C   0  0  0  0  0  0  0  0  0  0  0  0
   15.9291   -0.7158   -3.7989 C   0  0  0  0  0  0  0  0  0  0  0  0
   16.1630   -1.8514   -3.1536 C   0  0  0  0  0  0  0  0  0  0  0  0
   14.9144   -2.2049   -2.3779 C   0  0  0  0  0  0  0  0  0  0  0  0
   14.4132   -0.7975   -2.0291 C   0  0  0  0  0  0  0  0  0  0  0  0
   13.9104   -2.6328   -3.4692 C   0  0  0  0  0  0  0  0  0  0  0  0
    5.8842   -1.0368   -1.1346 C   0  0  0  0  0  0  0  0  0  0  0  0
    6.0160    0.3501   -1.2319 C   0  0  0  0  0  0  0  0  0  0  0  0
    7.1545    1.0218   -1.5451 O   0  0  0  0  0  0  0  0  0  0  0  0
    8.2244    0.9368   -0.6107 C   0  0  0  0  0  0  0  0  0  0  0  0
    7.8961    1.6625    0.6878 C   0  0  0  0  0  0  0  0  0  0  0  0
    4.8056    1.0125   -0.9796 C   0  0  0  0  0  0  0  0  0  0  0  0
    4.3684    2.7016   -0.9797 S   0  0  0  0  0  0  0  0  0  0  0  0
    2.7411    2.2447   -0.6131 C   0  0  0  0  0  0  0  0  0  0  0  0
    1.4859    2.8426   -0.4340 C   0  0  0  0  0  0  0  0  0  0  0  0
    1.0903    4.1935   -0.5469 C   0  0  0  0  0  0  0  0  0  0  0  0
   -0.3005    4.5168   -0.4345 C   0  0  0  0  0  0  0  0  0  0  0  0
   -0.5357    5.8081   -0.6074 N   0  0  0  0  0  0  0  0  0  0  0  0
    0.8745    6.5525   -0.8840 S   0  0  0  0  0  0  0  0  0  0  0  0
    1.8398    5.2564   -0.7937 N   0  0  0  0  0  0  0  0  0  0  0  0
   -1.2161    3.4874   -0.1247 C   0  0  0  0  0  0  0  0  0  0  0  0
   -2.5952    3.5382    0.1190 C   0  0  0  0  0  0  0  0  0  0  0  0
   -3.8834    4.6918    0.1256 S   0  0  0  0  0  0  0  0  0  0  0  0
   -4.9698    3.4113    0.6229 C   0  0  0  0  0  0  0  0  0  0  0  0
   -6.3397    3.4074    0.9118 C   0  0  0  0  0  0  0  0  0  0  0  0
   -7.0142    4.5557    0.8154 O   0  0  0  0  0  0  0  0  0  0  0  0
   -8.1533    4.8605    1.6156 C   0  0  0  0  0  0  0  0  0  0  0  0
   -8.0593    6.3313    1.9959 C   0  0  0  0  0  0  0  0  0  0  0  0
   -6.7986    2.1096    1.2464 C   0  0  0  0  0  0  0  0  0  0  0  0
   -5.4623    0.9518    1.3082 S   0  0  0  0  0  0  0  0  0  0  0  0
   -4.3555    2.1642    0.7716 C   0  0  0  0  0  0  0  0  0  0  0  0
   -2.9891    2.2453    0.4833 C   0  0  0  0  0  0  0  0  0  0  0  0
   -1.9139    1.3990    0.4503 N   0  0  0  0  0  0  0  0  0  0  0  0
   -0.8050    2.1343    0.0683 C   0  0  0  0  0  0  0  0  0  0  0  0
    0.5536    1.7945   -0.1782 C   0  0  0  0  0  0  0  0  0  0  0  0
    1.2387    0.5901   -0.2177 N   0  0  0  0  0  0  0  0  0  0  0  0
    2.5521    0.8641   -0.4879 C   0  0  0  0  0  0  0  0  0  0  0  0
    3.7386    0.1534   -0.6933 C   0  0  0  0  0  0  0  0  0  0  0  0
    4.2518   -1.4917   -0.6663 S   0  0  0  0  0  0  0  0  0  0  0  0
    0.7529   -0.7601   -0.3989 C   0  0  0  0  0  0  0  0  0  0  0  0
   -0.0542   -0.8930   -1.6879 C   0  0  0  0  0  0  0  0  0  0  0  0
   -2.0157    0.1102    1.0985 C   0  0  0  0  0  0  0  0  0  0  0  0
   -1.2461    0.0882    2.4167 C   0  0  0  0  0  0  0  0  0  0  0  0
   -8.1439    1.7493    1.3509 C   0  0  0  0  0  0  0  0  0  0  0  0
   -8.7283    0.5363    1.6384 C   0  0  0  0  0  0  0  0  0  0  0  0
   -8.0346   -0.6842    2.0520 C   0  0  0  0  0  0  0  0  0  0  0  0
   -6.8320   -0.8504    2.1818 O   0  0  0  0  0  0  0  0  0  0  0  0
   -9.0782   -1.6923    2.3035 C   0  0  0  0  0  0  0  0  0  0  0  0
   -8.8920   -3.0083    2.7183 C   0  0  0  0  0  0  0  0  0  0  0  0
  -10.0592   -3.7206    2.8582 C   0  0  0  0  0  0  0  0  0  0  0  0
  -11.3182   -3.1652    2.5968 C   0  0  0  0  0  0  0  0  0  0  0  0
  -11.5147   -1.8674    2.1870 C   0  0  0  0  0  0  0  0  0  0  0  0
  -10.3411   -1.1226    2.0469 C   0  0  0  0  0  0  0  0  0  0  0  0
  -10.1496    0.2684    1.6344 C   0  0  0  0  0  0  0  0  0  0  0  0
  -11.1633    1.1348    1.3024 C   0  0  0  0  0  0  0  0  0  0  0  0
  -11.0042    2.4642    0.8688 C   0  0  0  0  0  0  0  0  0  0  0  0
  -10.9658    3.5549    0.5040 N   0  0  0  0  0  0  0  0  0  0  0  0
  -12.5367    0.8176    1.3470 C   0  0  0  0  0  0  0  0  0  0  0  0
  -13.6719    0.6447    1.3632 N   0  0  0  0  0  0  0  0  0  0  0  0
  -12.0424   -4.4428    2.9394 C   0  0  0  0  0  0  0  0  0  0  0  0
  -12.7525   -4.5242    4.3130 C   0  0  0  0  0  0  0  0  0  0  0  0
  -12.0200   -3.5768    5.2303 C   0  0  0  0  0  0  0  0  0  0  0  0
  -10.8276   -4.0996    5.4835 C   0  0  0  0  0  0  0  0  0  0  0  0
  -10.7324   -5.4102    4.7423 C   0  0  0  0  0  0  0  0  0  0  0  0
  -12.1981   -5.8680    4.8126 C   0  0  0  0  0  0  0  0  0  0  0  0
  -10.6395   -5.0607    3.2360 C   0  0  0  0  0  0  0  0  0  0  0  0
    6.5966   -3.0076   -0.8195 H   0  0  0  0  0  0  0  0  0  0  0  0
   11.6209   -4.2217   -1.8611 H   0  0  0  0  0  0  0  0  0  0  0  0
   10.7942    0.1067   -4.3620 H   0  0  0  0  0  0  0  0  0  0  0  0
   13.7866   -1.2682   -5.3070 H   0  0  0  0  0  0  0  0  0  0  0  0
   14.2723    0.7602   -3.6505 H   0  0  0  0  0  0  0  0  0  0  0  0
   16.5700   -0.1986   -4.4885 H   0  0  0  0  0  0  0  0  0  0  0  0
   17.0386   -2.4722   -3.1963 H   0  0  0  0  0  0  0  0  0  0  0  0
   15.0298   -2.9127   -1.5613 H   0  0  0  0  0  0  0  0  0  0  0  0
   15.0899   -0.2750   -1.3549 H   0  0  0  0  0  0  0  0  0  0  0  0
   13.4038   -0.7746   -1.6222 H   0  0  0  0  0  0  0  0  0  0  0  0
   14.2448   -3.4968   -4.0404 H   0  0  0  0  0  0  0  0  0  0  0  0
    8.4807   -0.1102   -0.4058 H   0  0  0  0  0  0  0  0  0  0  0  0
    9.0640    1.4161   -1.1195 H   0  0  0  0  0  0  0  0  0  0  0  0
    7.0789    1.1645    1.2062 H   0  0  0  0  0  0  0  0  0  0  0  0
    7.6009    2.6873    0.4763 H   0  0  0  0  0  0  0  0  0  0  0  0
    8.7693    1.6682    1.3338 H   0  0  0  0  0  0  0  0  0  0  0  0
   -9.0703    4.6899    1.0377 H   0  0  0  0  0  0  0  0  0  0  0  0
   -8.1650    4.2316    2.5132 H   0  0  0  0  0  0  0  0  0  0  0  0
   -7.1685    6.5143    2.5917 H   0  0  0  0  0  0  0  0  0  0  0  0
   -8.9385    6.6146    2.5668 H   0  0  0  0  0  0  0  0  0  0  0  0
   -8.0069    6.9387    1.0972 H   0  0  0  0  0  0  0  0  0  0  0  0
    1.6359   -1.4009   -0.4609 H   0  0  0  0  0  0  0  0  0  0  0  0
    0.1837   -1.0836    0.4720 H   0  0  0  0  0  0  0  0  0  0  0  0
   -0.8957   -0.2040   -1.6992 H   0  0  0  0  0  0  0  0  0  0  0  0
   -0.4278   -1.9082   -1.7889 H   0  0  0  0  0  0  0  0  0  0  0  0
    0.5781   -0.6704   -2.5441 H   0  0  0  0  0  0  0  0  0  0  0  0
   -3.0770   -0.0521    1.3007 H   0  0  0  0  0  0  0  0  0  0  0  0
   -1.6928   -0.6853    0.4276 H   0  0  0  0  0  0  0  0  0  0  0  0
   -0.1936    0.3172    2.2654 H   0  0  0  0  0  0  0  0  0  0  0  0
   -1.6596    0.8284    3.0976 H   0  0  0  0  0  0  0  0  0  0  0  0
   -1.3326   -0.8912    2.8790 H   0  0  0  0  0  0  0  0  0  0  0  0
   -8.8310    2.5501    1.1226 H   0  0  0  0  0  0  0  0  0  0  0  0
   -7.9023   -3.3972    2.9005 H   0  0  0  0  0  0  0  0  0  0  0  0
  -12.4915   -1.4594    1.9893 H   0  0  0  0  0  0  0  0  0  0  0  0
  -12.6341   -4.8834    2.1394 H   0  0  0  0  0  0  0  0  0  0  0  0
  -13.8325   -4.4120    4.2701 H   0  0  0  0  0  0  0  0  0  0  0  0
  -12.4099   -2.6263    5.5442 H   0  0  0  0  0  0  0  0  0  0  0  0
  -10.0216   -3.6727    6.0514 H   0  0  0  0  0  0  0  0  0  0  0  0
   -9.9736   -6.1055    5.0920 H   0  0  0  0  0  0  0  0  0  0  0  0
  -12.5175   -6.1047    5.8264 H   0  0  0  0  0  0  0  0  0  0  0  0
  -12.4241   -6.7033    4.1511 H   0  0  0  0  0  0  0  0  0  0  0  0
  -10.3177   -5.9079    2.6333 H   0  0  0  0  0  0  0  0  0  0  0  0
  1  2  2  0  0  0  0
  2  3  1  0  0  0  0
  3  4  2  0  0  0  0
  3  5  1  0  0  0  0
  5  6  2  0  0  0  0
  6  7  1  0  0  0  0
  7  8  2  0  0  0  0
  8  9  1  0  0  0  0
  9 10  2  0  0  0  0
 10 11  1  0  0  0  0
 11 12  2  0  0  0  0
 12 13  1  0  0  0  0
 13 14  3  0  0  0  0
 12 15  1  0  0  0  0
 15 16  3  0  0  0  0
  8 17  1  0  0  0  0
 17 18  1  0  0  0  0
 18 19  1  0  0  0  0
 19 20  2  0  0  0  0
 20 21  1  0  0  0  0
 21 22  1  0  0  0  0
 21 23  1  0  0  0  0
  1 24  1  0  0  0  0
 24 25  2  0  0  0  0
 25 26  1  0  0  0  0
 26 27  1  0  0  0  0
 27 28  1  0  0  0  0
 25 29  1  0  0  0  0
 29 30  1  0  0  0  0
 30 31  1  0  0  0  0
 31 32  1  0  0  0  0
 32 33  1  0  0  0  0
 33 34  1  0  0  0  0
 34 35  2  0  0  0  0
 35 36  1  0  0  0  0
 36 37  1  0  0  0  0
 34 38  1  0  0  0  0
 38 39  1  0  0  0  0
 39 40  1  0  0  0  0
 40 41  1  0  0  0  0
 41 42  1  0  0  0  0
 42 43  1  0  0  0  0
 43 44  1  0  0  0  0
 44 45  1  0  0  0  0
 42 46  2  0  0  0  0
 46 47  1  0  0  0  0
 47 48  1  0  0  0  0
 48 49  1  0  0  0  0
 49 50  1  0  0  0  0
 50 51  1  0  0  0  0
 51 52  1  0  0  0  0
 52 53  1  0  0  0  0
 53 54  1  0  0  0  0
 54 55  1  0  0  0  0
 55 56  1  0  0  0  0
 53 57  1  0  0  0  0
 57 58  1  0  0  0  0
 50 59  1  0  0  0  0
 59 60  1  0  0  0  0
 46 61  1  0  0  0  0
 61 62  2  0  0  0  0
 62 63  1  0  0  0  0
 63 64  2  0  0  0  0
 63 65  1  0  0  0  0
 65 66  2  0  0  0  0
 66 67  1  0  0  0  0
 67 68  2  0  0  0  0
 68 69  1  0  0  0  0
 69 70  2  0  0  0  0
 70 71  1  0  0  0  0
 71 72  2  0  0  0  0
 72 73  1  0  0  0  0
 73 74  3  0  0  0  0
 72 75  1  0  0  0  0
 75 76  3  0  0  0  0
 68 77  1  0  0  0  0
 77 78  1  0  0  0  0
 78 79  1  0  0  0  0
 79 80  2  0  0  0  0
 80 81  1  0  0  0  0
 81 82  1  0  0  0  0
 81 83  1  0  0  0  0
 11  2  1  0  0  0  0
 23 17  1  0  0  0  0
 56 24  1  0  0  0  0
 71 62  1  0  0  0  0
 83 77  1  0  0  0  0
 10  5  1  0  0  0  0
 22 18  1  0  0  0  0
 55 29  2  0  0  0  0
 70 65  1  0  0  0  0
 82 78  1  0  0  0  0
 23  7  1  0  0  0  0
 54 31  2  0  0  0  0
 83 67  1  0  0  0  0
 52 32  2  0  0  0  0
 37 33  2  0  0  0  0
 51 38  2  0  0  0  0
 49 39  2  0  0  0  0
 48 41  2  0  0  0  0
  1 84  1  0  0  0  0
  6 85  1  0  0  0  0
  9 86  1  0  0  0  0
 17 87  1  0  0  0  0
 18 88  1  0  0  0  0
 19 89  1  0  0  0  0
 20 90  1  0  0  0  0
 21 91  1  0  0  0  0
 22 92  1  0  0  0  0
 22 93  1  0  0  0  0
 23 94  1  0  0  0  0
 27 95  1  0  0  0  0
 27 96  1  0  0  0  0
 28 97  1  0  0  0  0
 28 98  1  0  0  0  0
 28 99  1  0  0  0  0
 44100  1  0  0  0  0
 44101  1  0  0  0  0
 45102  1  0  0  0  0
 45103  1  0  0  0  0
 45104  1  0  0  0  0
 57105  1  0  0  0  0
 57106  1  0  0  0  0
 58107  1  0  0  0  0
 58108  1  0  0  0  0
 58109  1  0  0  0  0
 59110  1  0  0  0  0
 59111  1  0  0  0  0
 60112  1  0  0  0  0
 60113  1  0  0  0  0
 60114  1  0  0  0  0
 61115  1  0  0  0  0
 66116  1  0  0  0  0
 69117  1  0  0  0  0
 77118  1  0  0  0  0
 78119  1  0  0  0  0
 79120  1  0  0  0  0
 80121  1  0  0  0  0
 81122  1  0  0  0  0
 82123  1  0  0  0  0
 82124  1  0  0  0  0
 83125  1  0  0  0  0
M  END
