
  xtb     02112206293D
 energy: -216.223955310099 gnorm: 0.000301302072 xtb: 6.4.1 (unknown)
127141  0     0  0            999 V2000
    3.9356    4.1247   -4.0978 C   0  0  0  0  0  0  0  0  0  0  0  0
    4.9048    4.3602   -3.1526 C   0  0  0  0  0  0  0  0  0  0  0  0
    4.9741    3.7324   -1.8343 C   0  0  0  0  0  0  0  0  0  0  0  0
    4.1702    2.9600   -1.3341 O   0  0  0  0  0  0  0  0  0  0  0  0
    6.2231    4.2051   -1.2135 C   0  0  0  0  0  0  0  0  0  0  0  0
    6.7222    3.8585    0.0392 C   0  0  0  0  0  0  0  0  0  0  0  0
    7.9238    4.4512    0.3449 C   0  0  0  0  0  0  0  0  0  0  0  0
    8.5781    5.3275   -0.5299 C   0  0  0  0  0  0  0  0  0  0  0  0
    8.0919    5.6830   -1.7662 C   0  0  0  0  0  0  0  0  0  0  0  0
    6.8726    5.0882   -2.0996 C   0  0  0  0  0  0  0  0  0  0  0  0
    6.0563    5.2208   -3.3076 C   0  0  0  0  0  0  0  0  0  0  0  0
    6.3405    6.0425   -4.3698 C   0  0  0  0  0  0  0  0  0  0  0  0
    7.4905    6.8518   -4.4681 C   0  0  0  0  0  0  0  0  0  0  0  0
    8.4024    7.5325   -4.6254 N   0  0  0  0  0  0  0  0  0  0  0  0
    5.5326    6.2271   -5.5112 C   0  0  0  0  0  0  0  0  0  0  0  0
    4.9389    6.4583   -6.4677 N   0  0  0  0  0  0  0  0  0  0  0  0
    9.7346    5.5354    0.4157 C   0  0  0  0  0  0  0  0  0  0  0  0
   11.0581    4.7907    0.1120 C   0  0  0  0  0  0  0  0  0  0  0  0
   10.6859    3.5535   -0.6666 C   0  0  0  0  0  0  0  0  0  0  0  0
   10.0663    2.7243    0.1626 C   0  0  0  0  0  0  0  0  0  0  0  0
   10.0081    3.3862    1.5171 C   0  0  0  0  0  0  0  0  0  0  0  0
   11.3297    4.1706    1.4920 C   0  0  0  0  0  0  0  0  0  0  0  0
    9.0047    4.5593    1.3915 C   0  0  0  0  0  0  0  0  0  0  0  0
    2.7978    3.3206   -4.0358 C   0  0  0  0  0  0  0  0  0  0  0  0
    1.9357    3.1946   -5.1526 C   0  0  0  0  0  0  0  0  0  0  0  0
    2.2837    3.8173   -6.2839 O   0  0  0  0  0  0  0  0  0  0  0  0
    1.3465    3.9425   -7.3424 C   0  0  0  0  0  0  0  0  0  0  0  0
    0.2876    4.9950   -7.0417 C   0  0  0  0  0  0  0  0  0  0  0  0
    0.8423    2.3702   -4.8775 C   0  0  0  0  0  0  0  0  0  0  0  0
   -0.5354    1.7893   -5.8130 S   0  0  0  0  0  0  0  0  0  0  0  0
   -1.0614    0.8867   -4.4392 C   0  0  0  0  0  0  0  0  0  0  0  0
   -2.0677   -0.0247   -4.0906 C   0  0  0  0  0  0  0  0  0  0  0  0
   -3.0708   -0.6376   -4.8727 C   0  0  0  0  0  0  0  0  0  0  0  0
   -3.8658   -1.6776   -4.2864 C   0  0  0  0  0  0  0  0  0  0  0  0
   -4.7182   -2.2104   -5.1478 N   0  0  0  0  0  0  0  0  0  0  0  0
   -4.5399   -1.4626   -6.5735 S   0  0  0  0  0  0  0  0  0  0  0  0
   -3.3658   -0.4320   -6.1466 N   0  0  0  0  0  0  0  0  0  0  0  0
   -3.7046   -1.9632   -2.9136 C   0  0  0  0  0  0  0  0  0  0  0  0
   -4.4205   -2.8165   -2.0594 C   0  0  0  0  0  0  0  0  0  0  0  0
   -5.7098   -3.9653   -2.1369 S   0  0  0  0  0  0  0  0  0  0  0  0
   -5.6271   -4.1560   -0.3949 C   0  0  0  0  0  0  0  0  0  0  0  0
   -6.3379   -4.9313    0.5579 C   0  0  0  0  0  0  0  0  0  0  0  0
   -7.3502   -5.8077    0.3511 O   0  0  0  0  0  0  0  0  0  0  0  0
   -7.7616   -6.0500   -0.9849 C   0  0  0  0  0  0  0  0  0  0  0  0
   -8.8676   -7.0908   -0.9426 C   0  0  0  0  0  0  0  0  0  0  0  0
   -5.8898   -4.7116    1.8377 C   0  0  0  0  0  0  0  0  0  0  0  0
   -4.5753   -3.5652    1.8966 S   0  0  0  0  0  0  0  0  0  0  0  0
   -4.6385   -3.3618    0.1840 C   0  0  0  0  0  0  0  0  0  0  0  0
   -3.9452   -2.5972   -0.7671 C   0  0  0  0  0  0  0  0  0  0  0  0
   -2.9529   -1.6551   -0.7885 N   0  0  0  0  0  0  0  0  0  0  0  0
   -2.7639   -1.2673   -2.1038 C   0  0  0  0  0  0  0  0  0  0  0  0
   -1.8467   -0.3791   -2.7279 C   0  0  0  0  0  0  0  0  0  0  0  0
   -0.7138    0.2794   -2.2817 N   0  0  0  0  0  0  0  0  0  0  0  0
   -0.2337    1.0317   -3.3233 C   0  0  0  0  0  0  0  0  0  0  0  0
    0.8611    1.8690   -3.5654 C   0  0  0  0  0  0  0  0  0  0  0  0
    2.2334    2.3900   -2.6580 S   0  0  0  0  0  0  0  0  0  0  0  0
    0.2003   -0.0694   -1.2144 C   0  0  0  0  0  0  0  0  0  0  0  0
    0.9385   -1.3670   -1.5348 C   0  0  0  0  0  0  0  0  0  0  0  0
   -2.5567   -0.9977    0.4365 C   0  0  0  0  0  0  0  0  0  0  0  0
   -1.5504   -1.8179    1.2410 C   0  0  0  0  0  0  0  0  0  0  0  0
   -6.4348   -5.3688    3.0703 C   0  0  0  0  0  0  0  0  0  0  0  0
   -5.3354   -5.9133    3.9267 C   0  0  0  0  0  0  0  0  0  0  0  0
   -4.6951   -5.1315    4.8022 C   0  0  0  0  0  0  0  0  0  0  0  0
   -4.9937   -3.7205    4.8961 C   0  0  0  0  0  0  0  0  0  0  0  0
   -4.0157   -2.7961    5.1878 C   0  0  0  0  0  0  0  0  0  0  0  0
   -2.6490   -3.1911    5.5444 C   0  0  0  0  0  0  0  0  0  0  0  0
   -2.3267   -4.2721    5.9932 O   0  0  0  0  0  0  0  0  0  0  0  0
   -1.6676   -2.2222    5.3486 N   0  0  0  0  0  0  0  0  0  0  0  0
   -0.2925   -2.6359    5.6085 C   0  0  0  0  0  0  0  0  0  0  0  0
    0.3512   -3.2568    4.3761 C   0  0  0  0  0  0  0  0  0  0  0  0
   -1.9117   -0.9618    4.8935 C   0  0  0  0  0  0  0  0  0  0  0  0
   -0.6727    0.0326    4.4362 S   0  0  0  0  0  0  0  0  0  0  0  0
   -3.2070   -0.5408    4.8459 N   0  0  0  0  0  0  0  0  0  0  0  0
   -4.3041   -1.3652    5.0807 C   0  0  0  0  0  0  0  0  0  0  0  0
   -5.4164   -0.8775    5.1216 O   0  0  0  0  0  0  0  0  0  0  0  0
   -3.4893    0.8639    4.5722 C   0  0  0  0  0  0  0  0  0  0  0  0
   -3.3661    1.7075    5.8338 C   0  0  0  0  0  0  0  0  0  0  0  0
   -6.3828   -3.2989    4.5323 C   0  0  0  0  0  0  0  0  0  0  0  0
   -7.2493   -4.4169    3.9590 C   0  0  0  0  0  0  0  0  0  0  0  0
    4.0424    4.6161   -5.0571 H   0  0  0  0  0  0  0  0  0  0  0  0
    6.1829    3.1810    0.6827 H   0  0  0  0  0  0  0  0  0  0  0  0
    8.6082    6.3609   -2.4250 H   0  0  0  0  0  0  0  0  0  0  0  0
    9.9016    6.5583    0.7477 H   0  0  0  0  0  0  0  0  0  0  0  0
   11.8371    5.4131   -0.3200 H   0  0  0  0  0  0  0  0  0  0  0  0
   10.8545    3.4365   -1.7211 H   0  0  0  0  0  0  0  0  0  0  0  0
    9.6132    1.7761   -0.0607 H   0  0  0  0  0  0  0  0  0  0  0  0
    9.8316    2.7296    2.3653 H   0  0  0  0  0  0  0  0  0  0  0  0
   12.2047    3.5223    1.4980 H   0  0  0  0  0  0  0  0  0  0  0  0
   11.4121    4.9073    2.2900 H   0  0  0  0  0  0  0  0  0  0  0  0
    8.6945    4.9456    2.3606 H   0  0  0  0  0  0  0  0  0  0  0  0
    0.8831    2.9750   -7.5635 H   0  0  0  0  0  0  0  0  0  0  0  0
    1.9551    4.2507   -8.1957 H   0  0  0  0  0  0  0  0  0  0  0  0
    0.7660    5.9471   -6.8258 H   0  0  0  0  0  0  0  0  0  0  0  0
   -0.3629    5.1108   -7.9032 H   0  0  0  0  0  0  0  0  0  0  0  0
   -0.3158    4.7018   -6.1859 H   0  0  0  0  0  0  0  0  0  0  0  0
   -8.1285   -5.1206   -1.4382 H   0  0  0  0  0  0  0  0  0  0  0  0
   -6.9142   -6.4168   -1.5775 H   0  0  0  0  0  0  0  0  0  0  0  0
   -9.7025   -6.7235   -0.3521 H   0  0  0  0  0  0  0  0  0  0  0  0
   -9.2086   -7.3017   -1.9515 H   0  0  0  0  0  0  0  0  0  0  0  0
   -8.4993   -8.0079   -0.4907 H   0  0  0  0  0  0  0  0  0  0  0  0
    0.9189    0.7497   -1.1354 H   0  0  0  0  0  0  0  0  0  0  0  0
   -0.3147   -0.1525   -0.2630 H   0  0  0  0  0  0  0  0  0  0  0  0
    0.2362   -2.1897   -1.6581 H   0  0  0  0  0  0  0  0  0  0  0  0
    1.5057   -1.2585   -2.4561 H   0  0  0  0  0  0  0  0  0  0  0  0
    1.6289   -1.6059   -0.7308 H   0  0  0  0  0  0  0  0  0  0  0  0
   -2.1756   -0.0052    0.1926 H   0  0  0  0  0  0  0  0  0  0  0  0
   -3.4591   -0.8600    1.0438 H   0  0  0  0  0  0  0  0  0  0  0  0
   -2.0343   -2.6956    1.6624 H   0  0  0  0  0  0  0  0  0  0  0  0
   -1.1576   -1.2141    2.0546 H   0  0  0  0  0  0  0  0  0  0  0  0
   -0.7237   -2.1519    0.6206 H   0  0  0  0  0  0  0  0  0  0  0  0
   -7.0825   -6.1768    2.7164 H   0  0  0  0  0  0  0  0  0  0  0  0
   -5.0509   -6.9466    3.7992 H   0  0  0  0  0  0  0  0  0  0  0  0
   -3.8806   -5.5174    5.3916 H   0  0  0  0  0  0  0  0  0  0  0  0
    0.2702   -1.7593    5.9324 H   0  0  0  0  0  0  0  0  0  0  0  0
   -0.3345   -3.3685    6.4164 H   0  0  0  0  0  0  0  0  0  0  0  0
    1.3501   -3.6013    4.6271 H   0  0  0  0  0  0  0  0  0  0  0  0
   -0.2362   -4.1050    4.0336 H   0  0  0  0  0  0  0  0  0  0  0  0
    0.4254   -2.5261    3.5751 H   0  0  0  0  0  0  0  0  0  0  0  0
   -2.7886    1.2090    3.8099 H   0  0  0  0  0  0  0  0  0  0  0  0
   -4.5095    0.9111    4.1884 H   0  0  0  0  0  0  0  0  0  0  0  0
   -4.0560    1.3484    6.5936 H   0  0  0  0  0  0  0  0  0  0  0  0
   -3.6054    2.7415    5.6037 H   0  0  0  0  0  0  0  0  0  0  0  0
   -2.3517    1.6640    6.2234 H   0  0  0  0  0  0  0  0  0  0  0  0
   -6.3323   -2.4615    3.8320 H   0  0  0  0  0  0  0  0  0  0  0  0
   -6.8543   -2.8886    5.4290 H   0  0  0  0  0  0  0  0  0  0  0  0
   -8.0716   -3.9834    3.3892 H   0  0  0  0  0  0  0  0  0  0  0  0
   -7.6745   -5.0112    4.7705 H   0  0  0  0  0  0  0  0  0  0  0  0
  1  2  2  0  0  0  0
  2  3  1  0  0  0  0
  3  4  2  0  0  0  0
  3  5  1  0  0  0  0
  5  6  2  0  0  0  0
  6  7  1  0  0  0  0
  7  8  2  0  0  0  0
  8  9  1  0  0  0  0
  9 10  2  0  0  0  0
 10 11  1  0  0  0  0
 11 12  2  0  0  0  0
 12 13  1  0  0  0  0
 13 14  3  0  0  0  0
 12 15  1  0  0  0  0
 15 16  3  0  0  0  0
  8 17  1  0  0  0  0
 17 18  1  0  0  0  0
 18 19  1  0  0  0  0
 19 20  2  0  0  0  0
 20 21  1  0  0  0  0
 21 22  1  0  0  0  0
 21 23  1  0  0  0  0
  1 24  1  0  0  0  0
 24 25  2  0  0  0  0
 25 26  1  0  0  0  0
 26 27  1  0  0  0  0
 27 28  1  0  0  0  0
 25 29  1  0  0  0  0
 29 30  1  0  0  0  0
 30 31  1  0  0  0  0
 31 32  1  0  0  0  0
 32 33  1  0  0  0  0
 33 34  1  0  0  0  0
 34 35  2  0  0  0  0
 35 36  1  0  0  0  0
 36 37  1  0  0  0  0
 34 38  1  0  0  0  0
 38 39  1  0  0  0  0
 39 40  1  0  0  0  0
 40 41  1  0  0  0  0
 41 42  1  0  0  0  0
 42 43  1  0  0  0  0
 43 44  1  0  0  0  0
 44 45  1  0  0  0  0
 42 46  2  0  0  0  0
 46 47  1  0  0  0  0
 47 48  1  0  0  0  0
 48 49  1  0  0  0  0
 49 50  1  0  0  0  0
 50 51  1  0  0  0  0
 51 52  1  0  0  0  0
 52 53  1  0  0  0  0
 53 54  1  0  0  0  0
 54 55  1  0  0  0  0
 55 56  1  0  0  0  0
 53 57  1  0  0  0  0
 57 58  1  0  0  0  0
 50 59  1  0  0  0  0
 59 60  1  0  0  0  0
 46 61  1  0  0  0  0
 61 62  1  0  0  0  0
 62 63  2  0  0  0  0
 63 64  1  0  0  0  0
 64 65  2  0  0  0  0
 65 66  1  0  0  0  0
 66 67  2  0  0  0  0
 66 68  1  0  0  0  0
 68 69  1  0  0  0  0
 69 70  1  0  0  0  0
 68 71  1  0  0  0  0
 71 72  2  0  0  0  0
 71 73  1  0  0  0  0
 73 74  1  0  0  0  0
 74 75  2  0  0  0  0
 73 76  1  0  0  0  0
 76 77  1  0  0  0  0
 64 78  1  0  0  0  0
 78 79  1  0  0  0  0
 11  2  1  0  0  0  0
 23 17  1  0  0  0  0
 56 24  1  0  0  0  0
 79 61  1  0  0  0  0
 10  5  1  0  0  0  0
 22 18  1  0  0  0  0
 55 29  2  0  0  0  0
 74 65  1  0  0  0  0
 23  7  1  0  0  0  0
 54 31  2  0  0  0  0
 52 32  2  0  0  0  0
 37 33  2  0  0  0  0
 51 38  2  0  0  0  0
 49 39  2  0  0  0  0
 48 41  2  0  0  0  0
  1 80  1  0  0  0  0
  6 81  1  0  0  0  0
  9 82  1  0  0  0  0
 17 83  1  0  0  0  0
 18 84  1  0  0  0  0
 19 85  1  0  0  0  0
 20 86  1  0  0  0  0
 21 87  1  0  0  0  0
 22 88  1  0  0  0  0
 22 89  1  0  0  0  0
 23 90  1  0  0  0  0
 27 91  1  0  0  0  0
 27 92  1  0  0  0  0
 28 93  1  0  0  0  0
 28 94  1  0  0  0  0
 28 95  1  0  0  0  0
 44 96  1  0  0  0  0
 44 97  1  0  0  0  0
 45 98  1  0  0  0  0
 45 99  1  0  0  0  0
 45100  1  0  0  0  0
 57101  1  0  0  0  0
 57102  1  0  0  0  0
 58103  1  0  0  0  0
 58104  1  0  0  0  0
 58105  1  0  0  0  0
 59106  1  0  0  0  0
 59107  1  0  0  0  0
 60108  1  0  0  0  0
 60109  1  0  0  0  0
 60110  1  0  0  0  0
 61111  1  0  0  0  0
 62112  1  0  0  0  0
 63113  1  0  0  0  0
 69114  1  0  0  0  0
 69115  1  0  0  0  0
 70116  1  0  0  0  0
 70117  1  0  0  0  0
 70118  1  0  0  0  0
 76119  1  0  0  0  0
 76120  1  0  0  0  0
 77121  1  0  0  0  0
 77122  1  0  0  0  0
 77123  1  0  0  0  0
 78124  1  0  0  0  0
 78125  1  0  0  0  0
 79126  1  0  0  0  0
 79127  1  0  0  0  0
M  END
