112

C          2.91720        5.85880        1.14850
C          1.78920        6.63410        1.05820
C          0.41290        6.13780        1.05400
O          0.04430        4.97350        1.01420
C         -0.45540        7.32490        1.12530
C         -1.84640        7.34870        1.18880
C         -2.38130        8.61200        1.27040
C         -1.58990        9.76770        1.29720
C         -0.21660        9.75850        1.23200
C          0.34770        8.48410        1.13710
C          1.75040        8.08070        1.04090
C          2.81660        8.93220        0.90190
C          2.71570       10.33850        0.87620
N          2.71200       11.48670        0.85170
C          4.16030        8.54170        0.72220
N          5.27320        8.31760        0.54450
C         -2.78570       10.68130        1.39560
C         -3.22230       11.43710        0.11660
C         -2.76100       10.60180       -1.05180
C         -3.50860        9.50680       -1.08640
C         -4.48930        9.58210        0.05760
C         -4.72200       11.10040        0.11510
C         -3.66810        9.39390        1.35760
C          3.05310        4.46910        1.16770
C          4.32420        3.86780        1.31950
O          5.37780        4.66680        1.52040
C          6.69190        4.15910        1.34160
C          7.01830        3.93810       -0.12920
C          4.25050        2.47260        1.27000
S          5.42770        1.17100        1.42810
C          4.15360        0.02470        1.22520
C          3.96690       -1.36300        1.22630
C          4.86710       -2.41440        1.50840
C          4.36270       -3.75340        1.58130
N          5.29680       -4.62950        1.91480
S          6.69470       -3.83640        2.11510
N          6.15940       -2.34440        1.78510
C          3.01030       -3.98890        1.24820
C          2.29930       -5.18630        1.10560
S          2.53990       -6.88080        1.32530
C          0.90790       -7.16390        0.72250
C          0.13840       -8.30450        0.49930
O          0.43200       -9.58530        0.71200
C          1.66110       -9.93000        1.33810
C          1.67330      -11.44020        1.49690
C         -1.13820       -7.98960       -0.03740
S         -1.34690       -6.25850       -0.25860
C          0.23520       -5.97920        0.37380
C          1.03370       -4.85590        0.60770
N          0.92590       -3.49780        0.47470
C          2.12440       -2.93510        0.87400
C          2.58070       -1.59320        0.98290
N          1.94920       -0.36580        0.88490
C          2.89690        0.60860        1.03950
C          2.94030        2.00820        1.07450
S          1.77640        3.28070        0.98140
C          0.54810       -0.02470        0.99960
C         -0.04810       -0.54350        2.30530
C         -0.14930       -2.94070       -0.31710
C          0.36270       -2.39380       -1.64680
C         -2.06120       -8.99230       -0.30760
C         -3.32940       -8.91400       -0.84310
C         -3.97260       -7.69260       -1.31280
O         -3.54350       -6.55090       -1.26830
C         -5.27370       -8.11060       -1.87700
C         -6.24730       -7.33440       -2.46870
C         -7.39620       -7.96080       -2.93930
Cl        -8.63130       -7.02670       -3.68590
C         -7.53810       -9.34290       -2.80360
Br        -9.09910      -10.19530       -3.44820
C         -6.55650      -10.12410       -2.20400
C         -5.41180       -9.50250       -1.73580
C         -4.21760      -10.02990       -1.07240
C         -4.02300      -11.34290       -0.72390
C         -2.89960      -11.86010       -0.04540
N         -2.02930      -12.36930        0.50550
C         -4.95060      -12.37220       -0.98730
N         -5.66390      -13.25300       -1.17050
H          3.86970        6.36710        1.23680
H         -2.41790        6.43370        1.17470
H          0.37720       10.65680        1.25780
H         -2.83510       11.30650        2.28490
H         -2.94400       12.48720        0.09560
H         -1.92650       10.85780       -1.67790
H         -3.42330        8.66450       -1.74780
H         -5.36590        8.94390       -0.01870
H         -5.23830       11.48110       -0.76480
H         -5.24070       11.42610        1.01580
H         -4.29900        9.18210        2.21890
H          6.83020        3.23650        1.91600
H          7.33230        4.93920        1.75920
H          6.38030        3.16710       -0.55490
H          8.05360        3.62700       -0.22830
H          6.86970        4.86270       -0.68180
H          1.72790       -9.43420        2.31430
H          2.50130       -9.59390        0.71810
H          2.57580      -11.74750        2.01610
H          0.80330      -11.76000        2.06350
H          1.63880      -11.91880        0.52250
H         -0.00670       -0.38360        0.13250
H          0.49220        1.06620        0.98820
H         -1.10020       -0.27840        2.36020
H          0.04810       -1.62390        2.38560
H          0.46530       -0.09300        3.15130
H         -0.68970       -2.18230        0.24920
H         -0.84870       -3.75750       -0.50970
H          1.11170       -1.61970       -1.49650
H         -0.46380       -1.97830       -2.21640
H          0.81370       -3.19460       -2.22800
H         -1.69000       -9.97730       -0.05260
H         -6.11890       -6.26800       -2.56450
H         -6.70780      -11.18820       -2.12110
