97

C         -1.81320        5.31880       -1.86590
C         -0.54810        5.52180       -2.32720
C          0.70030        4.85390       -1.87640
O          0.83050        3.83950       -1.22370
C          1.80240        5.71890       -2.34120
C          3.15880        5.54750       -2.07310
C          3.96520        6.51110       -2.62780
C          3.46010        7.57510       -3.38820
C          2.12510        7.75820       -3.65710
C          1.28760        6.78240       -3.10760
C         -0.16170        6.64060       -3.17490
C         -1.00060        7.37610       -3.96950
C         -0.58270        8.43170       -4.80660
N         -0.31260        9.30110       -5.50640
C         -2.38850        7.15740       -4.10550
N         -3.51530        7.03270       -4.29020
C          4.83010        8.15770       -3.62860
C          5.47760        7.92740       -5.01650
C          4.88420        6.65160       -5.56050
C          5.36300        5.64420       -4.84270
C          6.28820        6.22080       -3.79980
C          6.85950        7.41770       -4.57670
C          5.39280        6.97180       -2.78330
C         -2.33670        4.25440       -1.06160
C         -3.46410        4.53740       -0.25650
C         -4.02930        3.60200        0.57500
C         -3.47720        2.32220        0.59300
N         -3.82500        1.22440        1.32340
C         -4.92140        1.14120        2.25230
C         -6.20450        0.67400        1.56730
C         -3.00540        0.17230        0.96630
C         -2.08480        0.61700       -0.02140
C         -2.38370        2.00210       -0.25370
C         -1.81790        2.95640       -1.07410
C         -1.12620       -0.22900       -0.55760
C         -1.11620       -1.52610       -0.07910
C         -2.02900       -1.97000        0.91520
C         -2.99110       -1.12590        1.44750
C         -1.69830       -3.34600        1.17380
C         -2.20090       -4.29060        2.03680
C         -1.63930       -5.58290        2.06790
C         -0.56700       -5.87790        1.19430
C         -0.04850       -4.94170        0.33490
C         -0.60720       -3.66400        0.31600
N         -0.28790       -2.57700       -0.43300
C          0.79570       -2.48640       -1.37590
C          2.07440       -1.97940       -0.71150
C         -2.21800       -6.49180        2.99980
C         -1.98470       -7.79190        3.35790
C         -0.96820       -8.75980        2.89870
O         -0.22680       -8.69970        1.94320
C         -1.01720       -9.88150        3.87150
C         -0.17150      -10.97260        3.96950
Cl         1.04020      -11.27410        2.80650
C         -0.32440      -11.83200        5.06670
Cl         0.67360      -13.21270        5.21400
C         -1.25610      -11.53900        6.06140
Cl        -1.35060      -12.54430        7.44240
C         -2.10720      -10.42750        5.95800
Cl        -3.09510      -10.02810        7.30210
C         -2.03310       -9.64070        4.81530
C         -2.78100       -8.46630        4.37990
C         -4.08180       -8.18470        4.70290
C         -4.81210       -7.05700        4.26520
N         -5.48800       -6.17130        3.98510
C         -4.95820       -9.06160        5.38080
N         -5.77010       -9.74160        5.82230
H         -2.53430        6.09960       -2.08280
H          3.50440        4.71730       -1.47690
H          1.75010        8.58730       -4.23380
H          4.99010        9.16860       -3.25900
H          5.44800        8.78980       -5.67680
H          4.15580        6.61920       -6.34940
H          5.11440        4.60130       -4.91200
H          6.99780        5.52980       -3.35210
H          7.40270        8.12300       -3.94930
H          7.48380        7.11550       -5.41620
H          5.92050        7.20840       -1.86120
H         -3.87710        5.53520       -0.28430
H         -4.88050        3.85810        1.18710
H         -5.07080        2.12740        2.69870
H         -4.64700        0.44610        3.05030
H         -7.01450        0.61920        2.28930
H         -6.06120       -0.30990        1.12730
H         -6.48480        1.36750        0.77790
H         -1.00400        2.69620       -1.72730
H         -0.43010        0.12840       -1.29870
H         -3.68240       -1.47780        2.19630
H         -3.02670       -4.04650        2.68880
H         -0.14490       -6.86740        1.20510
H          0.77670       -5.20090       -0.31030
H          0.96210       -3.47630       -1.80770
H          0.49660       -1.80970       -2.18090
H          2.37740       -2.65370        0.08630
H          1.91350       -0.99130       -0.28710
H          2.87580       -1.91970       -1.44250
H         -3.00730       -6.02210        3.57650
