128

C          8.30880        4.17470       -0.13700
C          8.87120        5.02960       -1.04070
C         10.24460        4.73810       -1.53540
O         11.05290        3.99260       -1.02990
C         10.36940        5.49270       -2.79780
C         11.39900        5.41050       -3.73170
C         11.20180        6.18290       -4.85150
C         10.06700        6.98510       -5.03140
C          9.05180        7.09100       -4.10980
C          9.23120        6.30840       -2.96760
C          8.36960        6.15030       -1.79670
C          7.41950        7.04910       -1.37950
C          6.78100        6.96610       -0.12700
N          6.24860        6.93780        0.89020
C          7.02400        8.18270       -2.11560
N          6.64300        9.10510       -2.68380
C         10.51220        7.44780       -6.39570
C          9.83470        6.80290       -7.63070
C          9.37280        5.43220       -7.20230
C         10.44960        4.67700       -7.03080
C         11.65930        5.52370       -7.34030
C         11.08300        6.42500       -8.44400
C         11.77900        6.55820       -6.19340
C          6.95430        3.92170        0.14430
S          6.57560        2.79570        1.44300
C          4.91500        2.88950        1.05780
C          3.70130        2.29720        1.46330
C          2.66280        2.78090        0.66390
C          3.18360        3.77790       -0.34570
C          4.65670        3.75440       -0.01170
C          5.80250        4.32290       -0.53050
C          3.02210        3.30250       -1.80680
C          1.61120        3.37140       -2.37350
C          2.56820        5.17110       -0.12280
C          2.93690        5.77390        1.22790
C          1.45280        2.18850        1.01260
S         -0.18930        2.28760        0.43840
C         -0.63240        1.01270        1.52000
C         -1.76340        0.20190        1.75540
C         -1.44780       -0.78230        2.69590
C         -0.01970       -0.61200        3.17480
C          0.40870        0.55870        2.31940
C          1.59200        1.23360        2.04490
S          3.22250        1.10880        2.62570
C          0.92210       -1.79820        2.86000
C          0.31990       -3.19100        2.97900
C          0.04780       -0.15750        4.64950
C         -0.28980       -1.21980        5.68450
C         -2.53680       -1.63020        2.89630
S         -2.85490       -3.02690        3.88510
C         -4.42430       -3.16670        3.17220
C         -5.52810       -4.03080        3.29460
C         -6.53910       -3.59780        2.41860
C         -6.08760       -2.38630        1.63560
C         -6.06130       -2.80000        0.14590
C         -5.55970       -1.74320       -0.82710
C         -6.98320       -1.16030        1.87260
C         -7.16950       -0.84580        3.35240
C         -4.70870       -2.18750        2.21670
C         -3.64590       -1.30370        2.07970
S         -3.35950        0.11020        1.10960
C         -7.64530       -4.41620        2.42030
C         -7.51330       -5.49610        3.29710
S         -5.95860       -5.44160        4.14970
C         -8.33130       -6.59180        3.58860
C         -9.51700       -7.02630        3.03740
C        -10.26870       -6.45610        1.90550
O        -10.08230       -5.42320        1.29300
C        -11.35590       -7.42020        1.62160
C        -12.30560       -7.35730        0.62170
C        -13.22200       -8.39300        0.54100
F        -14.15980       -8.37700       -0.41530
C        -13.17430       -9.45360        1.44520
F        -14.06810      -10.44460        1.34140
C        -12.22200       -9.51260        2.45220
C        -11.30170       -8.47960        2.53920
C        -10.18990       -8.24030        3.46090
C         -9.89480       -9.03350        4.54050
C         -8.87690       -8.81440        5.49310
N         -8.08990       -8.71930        6.32480
C        -10.60540      -10.20610        4.87520
N        -11.13270      -11.17130        5.20400
H          9.01880        3.51410        0.35220
H         12.25610        4.77870       -3.55890
H          8.17940        7.70650       -4.25880
H         10.65430        8.52000       -6.51400
H          9.09130        7.42970       -8.11620
H          8.34560        5.17610       -7.01890
H         10.50170        3.66450       -6.67490
H         12.57730        4.98580       -7.56140
H         10.84290        5.87590       -9.35330
H         11.71810        7.27620       -8.68500
H         12.74960        7.04980       -6.17730
H          5.82500        4.96100       -1.39450
H          3.67730        3.92140       -2.42370
H          3.38680        2.27370       -1.86800
H          1.25030        4.39510       -2.40820
H          1.61380        2.97930       -3.38800
H          0.91920        2.77830       -1.78450
H          2.91300        5.83370       -0.91860
H          1.48280        5.08080       -0.19410
H          2.65740        5.10600        2.04000
H          2.41160        6.71590        1.36450
H          4.00450        5.97110        1.29010
H          1.78900       -1.71140        3.51760
H          1.28090       -1.67920        1.83420
H         -0.10660       -3.36790        3.96070
H         -0.45440       -3.34100        2.23090
H          1.09930       -3.93020        2.80700
H         -0.63520        0.68830        4.76680
H          1.06140        0.20880        4.83170
H         -0.28300       -0.76900        6.67440
H          0.44190       -2.02210        5.67630
H         -1.27660       -1.63940        5.51100
H         -7.07970       -3.08370       -0.12610
H         -5.43530       -3.69180        0.05620
H         -6.16360       -0.84170       -0.78230
H         -5.61520       -2.13640       -1.83950
H         -4.52560       -1.48110       -0.62520
H         -7.95540       -1.35000        1.41510
H         -6.53070       -0.29870        1.37930
H         -6.21200       -0.65030        3.83070
H         -7.79500        0.03580        3.46800
H         -7.64830       -1.67500        3.86790
H         -8.52710       -4.27810        1.82280
H         -7.92090       -7.22740        4.36420
H        -12.33560       -6.53480       -0.07490
H        -12.22990      -10.35590        3.12240
