
  xtb     02112207063D
 energy: -204.052118299529 gnorm: 0.000474256029 xtb: 6.4.1 (unknown)
112126  0     0  0            999 V2000
    1.1305    1.5233   -7.1989 C   0  0  0  0  0  0  0  0  0  0  0  0
    0.3114    2.6116   -7.1556 C   0  0  0  0  0  0  0  0  0  0  0  0
    0.5456    3.7671   -8.0578 C   0  0  0  0  0  0  0  0  0  0  0  0
    1.2764    3.8013   -9.0227 O   0  0  0  0  0  0  0  0  0  0  0  0
   -0.2573    4.8711   -7.4916 C   0  0  0  0  0  0  0  0  0  0  0  0
   -0.2968    6.1935   -7.9264 C   0  0  0  0  0  0  0  0  0  0  0  0
   -1.1306    7.0013   -7.1907 C   0  0  0  0  0  0  0  0  0  0  0  0
   -1.8702    6.5337   -6.0960 C   0  0  0  0  0  0  0  0  0  0  0  0
   -1.8508    5.2294   -5.6619 C   0  0  0  0  0  0  0  0  0  0  0  0
   -1.0129    4.3914   -6.4007 C   0  0  0  0  0  0  0  0  0  0  0  0
   -0.7859    2.9533   -6.2816 C   0  0  0  0  0  0  0  0  0  0  0  0
   -1.6417    2.0584   -5.6880 C   0  0  0  0  0  0  0  0  0  0  0  0
   -2.7270    2.4189   -4.8683 C   0  0  0  0  0  0  0  0  0  0  0  0
   -3.6050    2.6495   -4.1642 N   0  0  0  0  0  0  0  0  0  0  0  0
   -1.5763    0.6693   -5.9194 C   0  0  0  0  0  0  0  0  0  0  0  0
   -1.5895   -0.4592   -6.1342 N   0  0  0  0  0  0  0  0  0  0  0  0
   -2.4714    7.8892   -5.8214 C   0  0  0  0  0  0  0  0  0  0  0  0
   -1.8903    8.7142   -4.6464 C   0  0  0  0  0  0  0  0  0  0  0  0
   -0.4606    8.2658   -4.4718 C   0  0  0  0  0  0  0  0  0  0  0  0
    0.2330    8.7090   -5.5119 C   0  0  0  0  0  0  0  0  0  0  0  0
   -0.7156    9.4647   -6.4090 C   0  0  0  0  0  0  0  0  0  0  0  0
   -1.6676   10.0581   -5.3583 C   0  0  0  0  0  0  0  0  0  0  0  0
   -1.6532    8.4089   -7.0453 C   0  0  0  0  0  0  0  0  0  0  0  0
    1.3413    0.5348   -6.2179 C   0  0  0  0  0  0  0  0  0  0  0  0
    1.9078   -0.7212   -6.4656 C   0  0  0  0  0  0  0  0  0  0  0  0
    2.2739   -1.0175   -7.7163 O   0  0  0  0  0  0  0  0  0  0  0  0
    2.5070   -2.3720   -8.0755 C   0  0  0  0  0  0  0  0  0  0  0  0
    1.2080   -3.1588   -8.1866 C   0  0  0  0  0  0  0  0  0  0  0  0
    1.9975   -1.4953   -5.2917 C   0  0  0  0  0  0  0  0  0  0  0  0
    2.5529   -3.1223   -4.9326 S   0  0  0  0  0  0  0  0  0  0  0  0
    2.1564   -2.8769   -3.2721 C   0  0  0  0  0  0  0  0  0  0  0  0
    2.2114   -3.5673   -2.0545 C   0  0  0  0  0  0  0  0  0  0  0  0
    2.7437   -4.8376   -1.7436 C   0  0  0  0  0  0  0  0  0  0  0  0
    2.7622   -5.2603   -0.3758 C   0  0  0  0  0  0  0  0  0  0  0  0
    3.3311   -6.4454   -0.2199 N   0  0  0  0  0  0  0  0  0  0  0  0
    3.7991   -6.9842   -1.6724 S   0  0  0  0  0  0  0  0  0  0  0  0
    3.2956   -5.7249   -2.5565 N   0  0  0  0  0  0  0  0  0  0  0  0
    2.1618   -4.4340    0.5996 C   0  0  0  0  0  0  0  0  0  0  0  0
    1.9530   -4.6466    1.9673 C   0  0  0  0  0  0  0  0  0  0  0  0
    2.3120   -5.8295    3.1755 S   0  0  0  0  0  0  0  0  0  0  0  0
    1.4456   -4.8480    4.3403 C   0  0  0  0  0  0  0  0  0  0  0  0
    1.1889   -4.9914    5.6999 C   0  0  0  0  0  0  0  0  0  0  0  0
    1.6394   -6.0036    6.4797 O   0  0  0  0  0  0  0  0  0  0  0  0
    0.7484   -7.1027    6.6903 C   0  0  0  0  0  0  0  0  0  0  0  0
    0.5221   -7.9265    5.4310 C   0  0  0  0  0  0  0  0  0  0  0  0
    0.4550   -3.9013    6.2202 C   0  0  0  0  0  0  0  0  0  0  0  0
    0.0843   -2.7133    4.9818 S   0  0  0  0  0  0  0  0  0  0  0  0
    0.9091   -3.6645    3.8000 C   0  0  0  0  0  0  0  0  0  0  0  0
    1.2086   -3.5580    2.4393 C   0  0  0  0  0  0  0  0  0  0  0  0
    0.9735   -2.6742    1.4200 N   0  0  0  0  0  0  0  0  0  0  0  0
    1.5584   -3.1817    0.2731 C   0  0  0  0  0  0  0  0  0  0  0  0
    1.6734   -2.6994   -1.0595 C   0  0  0  0  0  0  0  0  0  0  0  0
    1.3378   -1.5011   -1.6700 N   0  0  0  0  0  0  0  0  0  0  0  0
    1.6330   -1.6097   -3.0011 C   0  0  0  0  0  0  0  0  0  0  0  0
    1.5454   -0.8191   -4.1521 C   0  0  0  0  0  0  0  0  0  0  0  0
    1.0004    0.7757   -4.5136 S   0  0  0  0  0  0  0  0  0  0  0  0
    1.0928   -0.1953   -1.0998 C   0  0  0  0  0  0  0  0  0  0  0  0
    2.2768    0.2762   -0.2589 C   0  0  0  0  0  0  0  0  0  0  0  0
   -0.0450   -1.6602    1.5872 C   0  0  0  0  0  0  0  0  0  0  0  0
   -1.3042   -1.9995    0.7935 C   0  0  0  0  0  0  0  0  0  0  0  0
    0.1217   -3.8328    7.5742 C   0  0  0  0  0  0  0  0  0  0  0  0
   -0.5468   -2.8595    8.2776 C   0  0  0  0  0  0  0  0  0  0  0  0
   -0.9950   -1.5741    7.7397 C   0  0  0  0  0  0  0  0  0  0  0  0
   -0.9690   -1.1992    6.5794 O   0  0  0  0  0  0  0  0  0  0  0  0
   -1.4775   -0.7964    8.8970 C   0  0  0  0  0  0  0  0  0  0  0  0
   -1.9653    0.4957    8.9338 C   0  0  0  0  0  0  0  0  0  0  0  0
   -2.3428    1.0253   10.1578 C   0  0  0  0  0  0  0  0  0  0  0  0
   -2.2219    0.2532   11.3052 C   0  0  0  0  0  0  0  0  0  0  0  0
   -2.7343    1.0057   12.9730 Br  0  0  0  0  0  0  0  0  0  0  0  0
   -1.7387   -1.0505   11.2847 C   0  0  0  0  0  0  0  0  0  0  0  0
   -1.3649   -1.5777   10.0608 C   0  0  0  0  0  0  0  0  0  0  0  0
   -0.8401   -2.8950    9.6935 C   0  0  0  0  0  0  0  0  0  0  0  0
   -0.7321   -3.9693   10.5381 C   0  0  0  0  0  0  0  0  0  0  0  0
   -0.3611   -5.2735   10.1487 C   0  0  0  0  0  0  0  0  0  0  0  0
   -0.1089   -6.3667    9.9018 N   0  0  0  0  0  0  0  0  0  0  0  0
   -1.0374   -3.9263   11.9148 C   0  0  0  0  0  0  0  0  0  0  0  0
   -1.2626   -3.9509   13.0400 N   0  0  0  0  0  0  0  0  0  0  0  0
    1.7515    1.4286   -8.0841 H   0  0  0  0  0  0  0  0  0  0  0  0
    0.2860    6.5157   -8.7751 H   0  0  0  0  0  0  0  0  0  0  0  0
   -2.4227    4.8765   -4.8191 H   0  0  0  0  0  0  0  0  0  0  0  0
   -3.5569    7.9474   -5.8712 H   0  0  0  0  0  0  0  0  0  0  0  0
   -2.5053    8.7179   -3.7503 H   0  0  0  0  0  0  0  0  0  0  0  0
   -0.1227    7.6423   -3.6648 H   0  0  0  0  0  0  0  0  0  0  0  0
    1.2657    8.5298   -5.7473 H   0  0  0  0  0  0  0  0  0  0  0  0
   -0.2615   10.1518   -7.1181 H   0  0  0  0  0  0  0  0  0  0  0  0
   -2.5770   10.4788   -5.7852 H   0  0  0  0  0  0  0  0  0  0  0  0
   -1.1840   10.7974   -4.7215 H   0  0  0  0  0  0  0  0  0  0  0  0
   -2.2058    8.8029   -7.8960 H   0  0  0  0  0  0  0  0  0  0  0  0
    3.1925   -2.8468   -7.3649 H   0  0  0  0  0  0  0  0  0  0  0  0
    2.9986   -2.3057   -9.0492 H   0  0  0  0  0  0  0  0  0  0  0  0
    0.5482   -2.6856   -8.9094 H   0  0  0  0  0  0  0  0  0  0  0  0
    1.4240   -4.1725   -8.5102 H   0  0  0  0  0  0  0  0  0  0  0  0
    0.6966   -3.1974   -7.2281 H   0  0  0  0  0  0  0  0  0  0  0  0
   -0.2082   -6.7390    7.0866 H   0  0  0  0  0  0  0  0  0  0  0  0
    1.2431   -7.6961    7.4606 H   0  0  0  0  0  0  0  0  0  0  0  0
    1.4752   -8.2294    5.0047 H   0  0  0  0  0  0  0  0  0  0  0  0
   -0.0527   -8.8135    5.6812 H   0  0  0  0  0  0  0  0  0  0  0  0
   -0.0268   -7.3543    4.6856 H   0  0  0  0  0  0  0  0  0  0  0  0
    0.1642   -0.1928   -0.5297 H   0  0  0  0  0  0  0  0  0  0  0  0
    0.9530    0.4891   -1.9400 H   0  0  0  0  0  0  0  0  0  0  0  0
    2.0585    1.2474    0.1764 H   0  0  0  0  0  0  0  0  0  0  0  0
    2.4988   -0.4271    0.5403 H   0  0  0  0  0  0  0  0  0  0  0  0
    3.1622    0.3689   -0.8836 H   0  0  0  0  0  0  0  0  0  0  0  0
   -0.2865   -1.6365    2.6524 H   0  0  0  0  0  0  0  0  0  0  0  0
    0.3447   -0.6767    1.3265 H   0  0  0  0  0  0  0  0  0  0  0  0
   -1.7301   -2.9325    1.1550 H   0  0  0  0  0  0  0  0  0  0  0  0
   -2.0431   -1.2128    0.9178 H   0  0  0  0  0  0  0  0  0  0  0  0
   -1.0873   -2.1148   -0.2660 H   0  0  0  0  0  0  0  0  0  0  0  0
    0.4925   -4.6809    8.1385 H   0  0  0  0  0  0  0  0  0  0  0  0
   -2.0462    1.0725    8.0257 H   0  0  0  0  0  0  0  0  0  0  0  0
   -2.7274    2.0310   10.2270 H   0  0  0  0  0  0  0  0  0  0  0  0
   -1.6605   -1.6116   12.2016 H   0  0  0  0  0  0  0  0  0  0  0  0
  1  2  2  0  0  0  0
  2  3  1  0  0  0  0
  3  4  2  0  0  0  0
  3  5  1  0  0  0  0
  5  6  2  0  0  0  0
  6  7  1  0  0  0  0
  7  8  2  0  0  0  0
  8  9  1  0  0  0  0
  9 10  2  0  0  0  0
 10 11  1  0  0  0  0
 11 12  2  0  0  0  0
 12 13  1  0  0  0  0
 13 14  3  0  0  0  0
 12 15  1  0  0  0  0
 15 16  3  0  0  0  0
  8 17  1  0  0  0  0
 17 18  1  0  0  0  0
 18 19  1  0  0  0  0
 19 20  2  0  0  0  0
 20 21  1  0  0  0  0
 21 22  1  0  0  0  0
 21 23  1  0  0  0  0
  1 24  1  0  0  0  0
 24 25  2  0  0  0  0
 25 26  1  0  0  0  0
 26 27  1  0  0  0  0
 27 28  1  0  0  0  0
 25 29  1  0  0  0  0
 29 30  1  0  0  0  0
 30 31  1  0  0  0  0
 31 32  1  0  0  0  0
 32 33  1  0  0  0  0
 33 34  1  0  0  0  0
 34 35  2  0  0  0  0
 35 36  1  0  0  0  0
 36 37  1  0  0  0  0
 34 38  1  0  0  0  0
 38 39  1  0  0  0  0
 39 40  1  0  0  0  0
 40 41  1  0  0  0  0
 41 42  1  0  0  0  0
 42 43  1  0  0  0  0
 43 44  1  0  0  0  0
 44 45  1  0  0  0  0
 42 46  2  0  0  0  0
 46 47  1  0  0  0  0
 47 48  1  0  0  0  0
 48 49  1  0  0  0  0
 49 50  1  0  0  0  0
 50 51  1  0  0  0  0
 51 52  1  0  0  0  0
 52 53  1  0  0  0  0
 53 54  1  0  0  0  0
 54 55  1  0  0  0  0
 55 56  1  0  0  0  0
 53 57  1  0  0  0  0
 57 58  1  0  0  0  0
 50 59  1  0  0  0  0
 59 60  1  0  0  0  0
 46 61  1  0  0  0  0
 61 62  2  0  0  0  0
 62 63  1  0  0  0  0
 63 64  2  0  0  0  0
 63 65  1  0  0  0  0
 65 66  2  0  0  0  0
 66 67  1  0  0  0  0
 67 68  2  0  0  0  0
 68 69  1  0  0  0  0
 68 70  1  0  0  0  0
 70 71  2  0  0  0  0
 71 72  1  0  0  0  0
 72 73  2  0  0  0  0
 73 74  1  0  0  0  0
 74 75  3  0  0  0  0
 73 76  1  0  0  0  0
 76 77  3  0  0  0  0
 11  2  1  0  0  0  0
 23 17  1  0  0  0  0
 56 24  1  0  0  0  0
 72 62  1  0  0  0  0
 10  5  1  0  0  0  0
 22 18  1  0  0  0  0
 55 29  2  0  0  0  0
 71 65  1  0  0  0  0
 23  7  1  0  0  0  0
 54 31  2  0  0  0  0
 52 32  2  0  0  0  0
 37 33  2  0  0  0  0
 51 38  2  0  0  0  0
 49 39  2  0  0  0  0
 48 41  2  0  0  0  0
  1 78  1  0  0  0  0
  6 79  1  0  0  0  0
  9 80  1  0  0  0  0
 17 81  1  0  0  0  0
 18 82  1  0  0  0  0
 19 83  1  0  0  0  0
 20 84  1  0  0  0  0
 21 85  1  0  0  0  0
 22 86  1  0  0  0  0
 22 87  1  0  0  0  0
 23 88  1  0  0  0  0
 27 89  1  0  0  0  0
 27 90  1  0  0  0  0
 28 91  1  0  0  0  0
 28 92  1  0  0  0  0
 28 93  1  0  0  0  0
 44 94  1  0  0  0  0
 44 95  1  0  0  0  0
 45 96  1  0  0  0  0
 45 97  1  0  0  0  0
 45 98  1  0  0  0  0
 57 99  1  0  0  0  0
 57100  1  0  0  0  0
 58101  1  0  0  0  0
 58102  1  0  0  0  0
 58103  1  0  0  0  0
 59104  1  0  0  0  0
 59105  1  0  0  0  0
 60106  1  0  0  0  0
 60107  1  0  0  0  0
 60108  1  0  0  0  0
 61109  1  0  0  0  0
 66110  1  0  0  0  0
 67111  1  0  0  0  0
 70112  1  0  0  0  0
M  END
