112

C          0.33020       -5.85040        3.70910
C          1.66920       -5.86810        4.01200
C          2.65080       -4.87310        3.58230
O          2.44590       -3.85970        2.93030
C          3.95550       -5.33000        4.08680
C          5.18850       -4.70600        3.91450
C          6.23830       -5.37110        4.50070
C          6.07250       -6.56770        5.20980
C          4.86050       -7.19170        5.39010
C          3.77890       -6.53410        4.79860
C          2.35770       -6.88300        4.78060
C          1.79890       -7.96590        5.41070
C          0.42470       -8.28300        5.44970
N         -0.66970       -8.61770        5.55410
C          2.52690       -8.92770        6.14140
N          3.04990       -9.75110        6.74770
C          7.54460       -6.68400        5.51560
C          8.37490       -7.69410        4.68590
C          7.66910       -7.84360        3.36120
C          7.82650       -6.71150        2.68840
C          8.64150       -5.77570        3.54650
C          9.54460       -6.78830        4.26880
C          7.72980       -5.35080        4.72440
C         -0.41920       -4.90540        3.00650
C         -1.81190       -5.07660        2.81780
O         -2.36640       -6.21060        3.25600
C         -3.77920       -6.33500        3.32100
C         -4.36130       -5.57430        4.50480
C         -2.38500       -3.99230        2.14620
S         -4.02050       -3.57900        1.63290
C         -3.42050       -2.09590        0.98530
C         -3.90020       -0.94250        0.35190
C         -5.21990       -0.52800        0.06770
C         -5.43110        0.78350       -0.46880
N         -6.71480        1.06300       -0.63060
S         -7.58250       -0.21720       -0.15510
N         -6.35370       -1.17770        0.27980
C         -4.30760        1.57390       -0.79740
C         -4.22290        2.82540       -1.42480
S         -5.26770        4.07110       -2.01160
C         -3.85920        4.95180       -2.54780
C         -3.72290        6.20380       -3.18120
O         -4.81120        6.95850       -3.31750
C         -4.76440        8.37110       -3.39320
C         -4.05440        9.01640       -2.20950
C         -2.37350        6.48250       -3.46250
S         -1.30100        5.24780       -2.78200
C         -2.65200        4.30260       -2.27550
C         -2.86100        3.08550       -1.62230
N         -2.10580        2.06160       -1.11660
C         -2.97290        1.11800       -0.59030
C         -2.76980       -0.11170        0.09310
N         -1.64580       -0.74450        0.59450
C         -2.04040       -1.93630        1.13770
C         -1.44140       -3.00920        1.80890
S          0.16260       -3.40340        2.31060
C         -0.33290       -0.22220        0.90230
C         -0.41300        0.95740        1.86780
C         -0.72200        1.93690       -1.51950
C         -0.53000        0.78920       -2.50750
C         -1.75690        7.49400       -4.20940
C         -2.29590        8.11020       -5.31560
C         -3.35970        7.50630       -6.13600
O         -4.02860        6.52840       -5.88310
C         -3.34210        8.27410       -7.40700
C         -4.08960        8.05350       -8.54950
Cl        -5.31820        6.86930       -8.59430
C         -3.81360        8.83180       -9.68340
Cl        -4.73660        8.62170      -11.10650
C         -2.76390        9.74770       -9.66280
Cl        -2.38530       10.61840      -11.08610
C         -2.00210        9.96060       -8.50170
Cl        -0.62890       10.98290       -8.60260
C         -2.33840        9.26420       -7.34860
C         -1.79050        9.27940       -5.99420
C         -1.13350       10.29480       -5.34590
C         -0.77920       10.19420       -3.98150
N         -0.49330       10.16810       -2.86980
C         -0.88470       11.60030       -5.81610
N         -0.70090       12.70890       -6.05060
H         -0.27340       -6.68010        4.05610
H          5.26990       -3.78240        3.36260
H          4.75280       -8.11160        5.93960
H          7.81350       -6.69290        6.57000
H          8.61610       -8.61610        5.20790
H          7.09670       -8.70880        3.08220
H          7.41160       -6.44170        1.73480
H          9.12680       -4.95110        3.03070
H         10.24280       -7.28460        3.59650
H         10.08580       -6.36240        5.11260
H          8.12110       -4.48920        5.26210
H         -4.23830       -6.00790        2.38190
H         -3.94200       -7.40820        3.44380
H         -3.89370       -5.91350        5.42590
H         -4.19390       -4.50520        4.39760
H         -5.43020       -5.75520        4.56120
H         -5.82090        8.65200       -3.40050
H         -4.31060        8.70640       -4.33430
H         -2.98200        8.83670       -2.23600
H         -4.45440        8.62470       -1.27710
H         -4.21850       10.08950       -2.23830
H          0.22180       -1.03560        1.37550
H          0.20030        0.03830       -0.01200
H         -1.02430        1.76150        1.46420
H         -0.85390        0.63570        2.80830
H          0.58460        1.33820        2.06810
H         -0.45540        2.87880       -2.00510
H         -0.07490        1.83190       -0.64900
H          0.51710        0.71240       -2.78700
H         -0.85060       -0.15790       -2.07980
H         -1.11560        0.97100       -3.40570
H         -0.72490        7.70680       -3.95510
