
  xtb     02102223383D
 energy: -176.827921390842 gnorm: 0.000390457148 xtb: 6.4.1 (unknown)
 97108  0     0  0            999 V2000
   -1.8132    5.3188   -1.8659 C   0  0  0  0  0  0  0  0  0  0  0  0
   -0.5481    5.5218   -2.3272 C   0  0  0  0  0  0  0  0  0  0  0  0
    0.7003    4.8539   -1.8764 C   0  0  0  0  0  0  0  0  0  0  0  0
    0.8305    3.8395   -1.2237 O   0  0  0  0  0  0  0  0  0  0  0  0
    1.8024    5.7189   -2.3412 C   0  0  0  0  0  0  0  0  0  0  0  0
    3.1588    5.5475   -2.0731 C   0  0  0  0  0  0  0  0  0  0  0  0
    3.9652    6.5111   -2.6278 C   0  0  0  0  0  0  0  0  0  0  0  0
    3.4601    7.5751   -3.3882 C   0  0  0  0  0  0  0  0  0  0  0  0
    2.1251    7.7582   -3.6571 C   0  0  0  0  0  0  0  0  0  0  0  0
    1.2876    6.7824   -3.1076 C   0  0  0  0  0  0  0  0  0  0  0  0
   -0.1617    6.6406   -3.1749 C   0  0  0  0  0  0  0  0  0  0  0  0
   -1.0006    7.3761   -3.9695 C   0  0  0  0  0  0  0  0  0  0  0  0
   -0.5827    8.4317   -4.8066 C   0  0  0  0  0  0  0  0  0  0  0  0
   -0.3126    9.3011   -5.5064 N   0  0  0  0  0  0  0  0  0  0  0  0
   -2.3885    7.1574   -4.1055 C   0  0  0  0  0  0  0  0  0  0  0  0
   -3.5153    7.0327   -4.2902 N   0  0  0  0  0  0  0  0  0  0  0  0
    4.8301    8.1577   -3.6286 C   0  0  0  0  0  0  0  0  0  0  0  0
    5.4776    7.9274   -5.0165 C   0  0  0  0  0  0  0  0  0  0  0  0
    4.8842    6.6516   -5.5605 C   0  0  0  0  0  0  0  0  0  0  0  0
    5.3630    5.6442   -4.8427 C   0  0  0  0  0  0  0  0  0  0  0  0
    6.2882    6.2208   -3.7998 C   0  0  0  0  0  0  0  0  0  0  0  0
    6.8595    7.4177   -4.5767 C   0  0  0  0  0  0  0  0  0  0  0  0
    5.3928    6.9718   -2.7833 C   0  0  0  0  0  0  0  0  0  0  0  0
   -2.3367    4.2544   -1.0616 C   0  0  0  0  0  0  0  0  0  0  0  0
   -3.4641    4.5374   -0.2565 C   0  0  0  0  0  0  0  0  0  0  0  0
   -4.0293    3.6020    0.5750 C   0  0  0  0  0  0  0  0  0  0  0  0
   -3.4772    2.3222    0.5930 C   0  0  0  0  0  0  0  0  0  0  0  0
   -3.8250    1.2244    1.3234 N   0  0  0  0  0  0  0  0  0  0  0  0
   -4.9214    1.1412    2.2523 C   0  0  0  0  0  0  0  0  0  0  0  0
   -6.2045    0.6740    1.5673 C   0  0  0  0  0  0  0  0  0  0  0  0
   -3.0054    0.1723    0.9663 C   0  0  0  0  0  0  0  0  0  0  0  0
   -2.0848    0.6170   -0.0214 C   0  0  0  0  0  0  0  0  0  0  0  0
   -2.3837    2.0021   -0.2537 C   0  0  0  0  0  0  0  0  0  0  0  0
   -1.8179    2.9564   -1.0741 C   0  0  0  0  0  0  0  0  0  0  0  0
   -1.1262   -0.2290   -0.5576 C   0  0  0  0  0  0  0  0  0  0  0  0
   -1.1162   -1.5261   -0.0791 C   0  0  0  0  0  0  0  0  0  0  0  0
   -2.0290   -1.9700    0.9152 C   0  0  0  0  0  0  0  0  0  0  0  0
   -2.9911   -1.1259    1.4475 C   0  0  0  0  0  0  0  0  0  0  0  0
   -1.6983   -3.3460    1.1738 C   0  0  0  0  0  0  0  0  0  0  0  0
   -2.2009   -4.2906    2.0368 C   0  0  0  0  0  0  0  0  0  0  0  0
   -1.6393   -5.5829    2.0679 C   0  0  0  0  0  0  0  0  0  0  0  0
   -0.5670   -5.8779    1.1943 C   0  0  0  0  0  0  0  0  0  0  0  0
   -0.0485   -4.9417    0.3349 C   0  0  0  0  0  0  0  0  0  0  0  0
   -0.6072   -3.6640    0.3160 C   0  0  0  0  0  0  0  0  0  0  0  0
   -0.2879   -2.5770   -0.4330 N   0  0  0  0  0  0  0  0  0  0  0  0
    0.7957   -2.4864   -1.3759 C   0  0  0  0  0  0  0  0  0  0  0  0
    2.0744   -1.9794   -0.7115 C   0  0  0  0  0  0  0  0  0  0  0  0
   -2.2180   -6.4918    2.9998 C   0  0  0  0  0  0  0  0  0  0  0  0
   -1.9847   -7.7919    3.3579 C   0  0  0  0  0  0  0  0  0  0  0  0
   -0.9682   -8.7598    2.8987 C   0  0  0  0  0  0  0  0  0  0  0  0
   -0.2268   -8.6997    1.9432 O   0  0  0  0  0  0  0  0  0  0  0  0
   -1.0172   -9.8815    3.8715 C   0  0  0  0  0  0  0  0  0  0  0  0
   -0.1715  -10.9726    3.9695 C   0  0  0  0  0  0  0  0  0  0  0  0
    1.0402  -11.2741    2.8065 Cl  0  0  0  0  0  0  0  0  0  0  0  0
   -0.3244  -11.8320    5.0667 C   0  0  0  0  0  0  0  0  0  0  0  0
    0.6736  -13.2127    5.2140 Cl  0  0  0  0  0  0  0  0  0  0  0  0
   -1.2561  -11.5390    6.0614 C   0  0  0  0  0  0  0  0  0  0  0  0
   -1.3506  -12.5443    7.4424 Cl  0  0  0  0  0  0  0  0  0  0  0  0
   -2.1072  -10.4275    5.9580 C   0  0  0  0  0  0  0  0  0  0  0  0
   -3.0951  -10.0281    7.3021 Cl  0  0  0  0  0  0  0  0  0  0  0  0
   -2.0331   -9.6407    4.8153 C   0  0  0  0  0  0  0  0  0  0  0  0
   -2.7810   -8.4663    4.3799 C   0  0  0  0  0  0  0  0  0  0  0  0
   -4.0818   -8.1847    4.7029 C   0  0  0  0  0  0  0  0  0  0  0  0
   -4.8121   -7.0570    4.2652 C   0  0  0  0  0  0  0  0  0  0  0  0
   -5.4880   -6.1713    3.9851 N   0  0  0  0  0  0  0  0  0  0  0  0
   -4.9582   -9.0616    5.3808 C   0  0  0  0  0  0  0  0  0  0  0  0
   -5.7701   -9.7416    5.8223 N   0  0  0  0  0  0  0  0  0  0  0  0
   -2.5343    6.0996   -2.0828 H   0  0  0  0  0  0  0  0  0  0  0  0
    3.5044    4.7173   -1.4769 H   0  0  0  0  0  0  0  0  0  0  0  0
    1.7501    8.5873   -4.2338 H   0  0  0  0  0  0  0  0  0  0  0  0
    4.9901    9.1686   -3.2590 H   0  0  0  0  0  0  0  0  0  0  0  0
    5.4480    8.7898   -5.6768 H   0  0  0  0  0  0  0  0  0  0  0  0
    4.1558    6.6192   -6.3494 H   0  0  0  0  0  0  0  0  0  0  0  0
    5.1144    4.6013   -4.9120 H   0  0  0  0  0  0  0  0  0  0  0  0
    6.9978    5.5298   -3.3521 H   0  0  0  0  0  0  0  0  0  0  0  0
    7.4027    8.1230   -3.9493 H   0  0  0  0  0  0  0  0  0  0  0  0
    7.4838    7.1155   -5.4162 H   0  0  0  0  0  0  0  0  0  0  0  0
    5.9205    7.2084   -1.8612 H   0  0  0  0  0  0  0  0  0  0  0  0
   -3.8771    5.5352   -0.2843 H   0  0  0  0  0  0  0  0  0  0  0  0
   -4.8805    3.8581    1.1871 H   0  0  0  0  0  0  0  0  0  0  0  0
   -5.0708    2.1274    2.6987 H   0  0  0  0  0  0  0  0  0  0  0  0
   -4.6470    0.4461    3.0503 H   0  0  0  0  0  0  0  0  0  0  0  0
   -7.0145    0.6192    2.2893 H   0  0  0  0  0  0  0  0  0  0  0  0
   -6.0612   -0.3099    1.1273 H   0  0  0  0  0  0  0  0  0  0  0  0
   -6.4848    1.3675    0.7779 H   0  0  0  0  0  0  0  0  0  0  0  0
   -1.0040    2.6962   -1.7273 H   0  0  0  0  0  0  0  0  0  0  0  0
   -0.4301    0.1284   -1.2987 H   0  0  0  0  0  0  0  0  0  0  0  0
   -3.6824   -1.4778    2.1963 H   0  0  0  0  0  0  0  0  0  0  0  0
   -3.0267   -4.0465    2.6888 H   0  0  0  0  0  0  0  0  0  0  0  0
   -0.1449   -6.8674    1.2051 H   0  0  0  0  0  0  0  0  0  0  0  0
    0.7767   -5.2009   -0.3103 H   0  0  0  0  0  0  0  0  0  0  0  0
    0.9621   -3.4763   -1.8077 H   0  0  0  0  0  0  0  0  0  0  0  0
    0.4966   -1.8097   -2.1809 H   0  0  0  0  0  0  0  0  0  0  0  0
    2.3774   -2.6537    0.0863 H   0  0  0  0  0  0  0  0  0  0  0  0
    1.9135   -0.9913   -0.2871 H   0  0  0  0  0  0  0  0  0  0  0  0
    2.8758   -1.9197   -1.4425 H   0  0  0  0  0  0  0  0  0  0  0  0
   -3.0073   -6.0221    3.5765 H   0  0  0  0  0  0  0  0  0  0  0  0
  1  2  2  0  0  0  0
  2  3  1  0  0  0  0
  3  4  2  0  0  0  0
  3  5  1  0  0  0  0
  5  6  2  0  0  0  0
  6  7  1  0  0  0  0
  7  8  2  0  0  0  0
  8  9  1  0  0  0  0
  9 10  2  0  0  0  0
 10 11  1  0  0  0  0
 11 12  2  0  0  0  0
 12 13  1  0  0  0  0
 13 14  3  0  0  0  0
 12 15  1  0  0  0  0
 15 16  3  0  0  0  0
  8 17  1  0  0  0  0
 17 18  1  0  0  0  0
 18 19  1  0  0  0  0
 19 20  2  0  0  0  0
 20 21  1  0  0  0  0
 21 22  1  0  0  0  0
 21 23  1  0  0  0  0
  1 24  1  0  0  0  0
 24 25  2  0  0  0  0
 25 26  1  0  0  0  0
 26 27  2  0  0  0  0
 27 28  1  0  0  0  0
 28 29  1  0  0  0  0
 29 30  1  0  0  0  0
 28 31  1  0  0  0  0
 31 32  2  0  0  0  0
 32 33  1  0  0  0  0
 33 34  2  0  0  0  0
 32 35  1  0  0  0  0
 35 36  2  0  0  0  0
 36 37  1  0  0  0  0
 37 38  2  0  0  0  0
 37 39  1  0  0  0  0
 39 40  2  0  0  0  0
 40 41  1  0  0  0  0
 41 42  2  0  0  0  0
 42 43  1  0  0  0  0
 43 44  2  0  0  0  0
 44 45  1  0  0  0  0
 45 46  1  0  0  0  0
 46 47  1  0  0  0  0
 41 48  1  0  0  0  0
 48 49  2  0  0  0  0
 49 50  1  0  0  0  0
 50 51  2  0  0  0  0
 50 52  1  0  0  0  0
 52 53  2  0  0  0  0
 53 54  1  0  0  0  0
 53 55  1  0  0  0  0
 55 56  1  0  0  0  0
 55 57  2  0  0  0  0
 57 58  1  0  0  0  0
 57 59  1  0  0  0  0
 59 60  1  0  0  0  0
 59 61  2  0  0  0  0
 61 62  1  0  0  0  0
 62 63  2  0  0  0  0
 63 64  1  0  0  0  0
 64 65  3  0  0  0  0
 63 66  1  0  0  0  0
 66 67  3  0  0  0  0
 11  2  1  0  0  0  0
 23 17  1  0  0  0  0
 34 24  1  0  0  0  0
 45 36  1  0  0  0  0
 62 49  1  0  0  0  0
 10  5  1  0  0  0  0
 22 18  1  0  0  0  0
 33 27  1  0  0  0  0
 44 39  1  0  0  0  0
 61 52  1  0  0  0  0
 23  7  1  0  0  0  0
 38 31  1  0  0  0  0
  1 68  1  0  0  0  0
  6 69  1  0  0  0  0
  9 70  1  0  0  0  0
 17 71  1  0  0  0  0
 18 72  1  0  0  0  0
 19 73  1  0  0  0  0
 20 74  1  0  0  0  0
 21 75  1  0  0  0  0
 22 76  1  0  0  0  0
 22 77  1  0  0  0  0
 23 78  1  0  0  0  0
 25 79  1  0  0  0  0
 26 80  1  0  0  0  0
 29 81  1  0  0  0  0
 29 82  1  0  0  0  0
 30 83  1  0  0  0  0
 30 84  1  0  0  0  0
 30 85  1  0  0  0  0
 34 86  1  0  0  0  0
 35 87  1  0  0  0  0
 38 88  1  0  0  0  0
 40 89  1  0  0  0  0
 42 90  1  0  0  0  0
 43 91  1  0  0  0  0
 46 92  1  0  0  0  0
 46 93  1  0  0  0  0
 47 94  1  0  0  0  0
 47 95  1  0  0  0  0
 47 96  1  0  0  0  0
 48 97  1  0  0  0  0
M  END
