164

C         -9.07300        0.40730       -1.39150
C         -9.79560       -0.44710       -2.17610
C         -9.27890       -1.42210       -3.16590
O         -8.19870       -1.44490       -3.71800
C        -10.35440       -2.41930       -3.33410
C        -10.28030       -3.60840       -4.05570
C        -11.42560       -4.36560       -4.00450
C        -12.56350       -3.97140       -3.28730
C        -12.65210       -2.79850       -2.57610
C        -11.49680       -2.01280       -2.61720
C        -11.20460       -0.73640       -1.97430
C        -12.11740        0.08370       -1.36540
C        -11.82530        1.36210       -0.84350
N        -11.66860        2.41700       -0.41710
C        -13.48930       -0.21520       -1.23610
N        -14.61410       -0.40010       -1.09780
C        -13.32810       -5.21640       -3.66160
C        -14.40810       -5.09820       -4.76470
C        -13.99770       -3.94280       -5.64370
C        -12.92190       -4.31450       -6.32470
C        -12.58500       -5.72780       -5.91810
C        -13.99620       -6.27890       -5.65860
C        -12.06140       -5.65420       -4.46250
C         -7.70700        0.74960       -1.45600
C         -6.78160        0.66680       -2.48200
C         -5.51930        1.07860       -2.07580
S         -3.97030        1.13520       -2.86950
C         -3.24920        1.64230       -1.38110
C         -1.90890        1.84050       -0.92250
C         -0.69350        1.75540       -1.59630
C          0.44960        1.86060       -0.84040
C          1.89390        1.72710       -1.29460
C          2.05410        0.49330       -2.15420
C          1.78910        0.55870       -3.51710
C          1.89390       -0.56960       -4.30700
C          2.26210       -1.79230       -3.76000
C          2.42890       -3.00210       -4.63310
C          3.84300       -3.04840       -5.21590
C          2.51680       -1.85430       -2.39700
C          2.40730       -0.72880       -1.60050
C          2.40500        2.98080       -1.99200
C          1.74410        4.19580       -1.88120
C          2.26540        5.33210       -2.47340
C          3.46050        5.28910       -3.17760
C          4.00240        6.51530       -3.85350
C          3.48870        6.60370       -5.29200
C          4.12100        4.07120       -3.27990
C          3.60400        2.93320       -2.69240
C          2.60070        1.67300        0.03480
C          1.72100        1.93440        1.05490
C          0.38010        2.04530        0.56030
C         -0.83290        2.19670        1.22310
C         -1.97880        2.08410        0.46840
C         -3.42350        2.13810        0.93780
C         -3.70480        3.54320        1.43860
C         -4.24650        4.51160        0.60590
C         -4.46410        5.79520        1.07210
C         -4.13670        6.14730        2.37410
C         -4.42030        7.52750        2.89220
C         -5.82340        7.59070        3.49940
C         -3.58580        5.17620        3.20080
C         -3.36950        3.89170        2.74110
C         -3.79210        1.08600        1.96650
C         -4.97780        1.22140        2.67890
C         -5.37200        0.24690        3.57460
C         -4.59740       -0.88790        3.78020
C         -5.05340       -1.96570        4.72100
C         -5.97740       -2.94750        3.99770
C         -3.42200       -1.02430        3.05490
C         -3.02340       -0.05330        2.15370
C         -4.14630        1.79550       -0.33770
C         -5.44580        1.48050       -0.72660
S         -6.98800        1.40060        0.02510
S          2.44890        1.91000        2.64070
C          3.95670        1.50050        1.90900
S          5.47550        1.07720        2.58590
C          6.09480        0.76530        0.96370
C          5.14030        1.01090       -0.01400
C          3.90940        1.41480        0.50280
C          7.37150        0.27070        0.63660
C          8.38580       -0.16730        1.44050
C          8.35970       -0.21460        2.90900
O          7.50710        0.24470        3.64800
C          9.57290       -0.93910        3.32010
C          9.93940       -1.29190        4.61740
C         11.11330       -2.00240        4.69240
C         11.86700       -2.33950        3.55980
C         11.51890       -1.99470        2.27560
C         10.32820       -1.26770        2.17570
C          9.63690       -0.75500        0.99470
C         10.11100       -0.81220       -0.28990
C          9.45710       -0.30520       -1.43270
N          8.99730        0.07750       -2.41380
C         11.34980       -1.37760       -0.66010
N         12.34210       -1.81480       -1.03740
C         12.91240       -3.06270        4.37160
C         14.24210       -2.31600        4.60770
C         14.85070       -3.02900        5.79370
C         14.13860       -2.70810        6.86630
C         13.03650       -1.77270        6.42350
C         13.75910       -1.03060        5.29180
C         12.07330       -2.68500        5.63460
H         -9.58770        0.83580       -0.53810
H         -9.38140       -3.87850       -4.58750
H        -13.52880       -2.51190       -2.01920
H        -13.64870       -5.84440       -2.83250
H        -15.43000       -5.08110       -4.39570
H        -14.48230       -2.98420       -5.63660
H        -12.32760       -3.72820       -7.00080
H        -11.94730       -6.28490       -6.59950
H        -13.99920       -7.23700       -5.14050
H        -14.59430       -6.34940       -6.56570
H        -11.55610       -6.56860       -4.15690
H         -7.02190        0.31310       -3.46600
H         -0.66220        1.57820       -2.66010
H          1.51180        1.50290       -3.96360
H          1.68600       -0.50030       -5.36530
H          2.24910       -3.90780       -4.05050
H          1.70450       -2.97120       -5.44960
H          4.03660       -2.15880       -5.81090
H          4.58050       -3.09200       -4.41760
H          3.96510       -3.92360       -5.84970
H          2.80110       -2.79630       -1.94980
H          2.60060       -0.80490       -0.54030
H          0.81630        4.26000       -1.33170
H          1.73460        6.26890       -2.37980
H          5.09360        6.48050       -3.86310
H          3.69310        7.40750       -3.30540
H          3.79920        5.72880       -5.85880
H          3.87990        7.49210       -5.78210
H          2.40190        6.65050       -5.30310
H          5.05460        4.01360       -3.82090
H          4.13030        1.99530       -2.78900
H         -0.86420        2.35190        2.29030
H         -4.50520        4.26540       -0.41370
H         -4.89380        6.53460        0.41140
H         -3.68580        7.79550        3.65440
H         -4.34800        8.25120        2.07780
H         -5.91110        6.88590        4.32320
H         -6.57090        7.33630        2.75140
H         -6.03180        8.59040        3.87330
H         -3.32190        5.42930        4.21780
H         -2.95060        3.14830        3.40370
H         -5.59220        2.09820        2.53370
H         -6.29520        0.37000        4.12230
H         -4.18960       -2.50600        5.11340
H         -5.58970       -1.52060        5.56150
H         -5.45670       -3.41140        3.16280
H         -6.85060       -2.42840        3.60890
H         -6.31080       -3.72850        4.67720
H         -2.80790       -1.90280        3.19400
H         -2.10820       -0.18630        1.59510
H          5.33940        0.86580       -1.06040
H          7.52380        0.19080       -0.43320
H          9.32320       -1.02030        5.46010
H         12.10570       -2.27080        1.41580
H         13.05150       -4.11560        4.13400
H         14.86730       -2.21060        3.72540
H         15.67480       -3.71430        5.72330
H         14.24890       -3.07200        7.87100
H         12.56460       -1.17200        7.19630
H         13.10510       -0.41780        4.67410
H         14.58560       -0.42470        5.65920
H         11.65390       -3.48620        6.24040
