
  xtb     02112208003D
 energy: -203.661515909041 gnorm: 0.000687824482 xtb: 6.4.1 (unknown)
115129  0     0  0            999 V2000
   -1.1276    5.2150   -5.0636 C   0  0  0  0  0  0  0  0  0  0  0  0
   -1.0212    4.3705   -6.1414 C   0  0  0  0  0  0  0  0  0  0  0  0
   -1.0586    2.9099   -6.0836 C   0  0  0  0  0  0  0  0  0  0  0  0
   -1.1320    2.2065   -5.0870 O   0  0  0  0  0  0  0  0  0  0  0  0
   -1.0022    2.4367   -7.4766 C   0  0  0  0  0  0  0  0  0  0  0  0
   -1.0260    1.1160   -7.9174 C   0  0  0  0  0  0  0  0  0  0  0  0
   -0.9594    0.9814   -9.2833 C   0  0  0  0  0  0  0  0  0  0  0  0
   -0.8832    2.0808  -10.1478 C   0  0  0  0  0  0  0  0  0  0  0  0
   -0.8611    3.3892   -9.7253 C   0  0  0  0  0  0  0  0  0  0  0  0
   -0.9189    3.5491   -8.3386 C   0  0  0  0  0  0  0  0  0  0  0  0
   -0.8990    4.7671   -7.5273 C   0  0  0  0  0  0  0  0  0  0  0  0
   -0.7429    6.0410   -8.0129 C   0  0  0  0  0  0  0  0  0  0  0  0
   -0.6250    6.3651   -9.3801 C   0  0  0  0  0  0  0  0  0  0  0  0
   -0.5227    6.7085  -10.4714 N   0  0  0  0  0  0  0  0  0  0  0  0
   -0.6471    7.2144   -7.2359 C   0  0  0  0  0  0  0  0  0  0  0  0
   -0.5338    8.2190   -6.6891 N   0  0  0  0  0  0  0  0  0  0  0  0
   -0.8409    1.2111  -11.3793 C   0  0  0  0  0  0  0  0  0  0  0  0
    0.5284    1.0118  -12.0748 C   0  0  0  0  0  0  0  0  0  0  0  0
    1.5807    1.1959  -11.0097 C   0  0  0  0  0  0  0  0  0  0  0  0
    1.5130    0.1555  -10.1898 C   0  0  0  0  0  0  0  0  0  0  0  0
    0.4136   -0.7509  -10.6858 C   0  0  0  0  0  0  0  0  0  0  0  0
    0.5355   -0.5201  -12.2005 C   0  0  0  0  0  0  0  0  0  0  0  0
   -0.9220   -0.0145  -10.4155 C   0  0  0  0  0  0  0  0  0  0  0  0
   -1.1985    4.9259   -3.7002 C   0  0  0  0  0  0  0  0  0  0  0  0
   -1.2864    5.9656   -2.7419 C   0  0  0  0  0  0  0  0  0  0  0  0
   -1.4145    7.2192   -3.1882 O   0  0  0  0  0  0  0  0  0  0  0  0
   -1.2303    8.3103   -2.2990 C   0  0  0  0  0  0  0  0  0  0  0  0
    0.2406    8.5371   -1.9766 C   0  0  0  0  0  0  0  0  0  0  0  0
   -1.2531    5.4731   -1.4346 C   0  0  0  0  0  0  0  0  0  0  0  0
   -1.2880    6.2030    0.1703 S   0  0  0  0  0  0  0  0  0  0  0  0
   -1.1566    4.6307    0.8725 C   0  0  0  0  0  0  0  0  0  0  0  0
   -1.0930    4.0311    2.1413 C   0  0  0  0  0  0  0  0  0  0  0  0
   -1.2362    4.5285    3.4575 C   0  0  0  0  0  0  0  0  0  0  0  0
   -1.2543    3.6025    4.5606 C   0  0  0  0  0  0  0  0  0  0  0  0
   -1.4700    4.2048    5.7186 N   0  0  0  0  0  0  0  0  0  0  0  0
   -1.6278    5.7942    5.4541 S   0  0  0  0  0  0  0  0  0  0  0  0
   -1.4297    5.7779    3.8474 N   0  0  0  0  0  0  0  0  0  0  0  0
   -0.9788    2.2364    4.3191 C   0  0  0  0  0  0  0  0  0  0  0  0
   -0.7699    1.1339    5.1640 C   0  0  0  0  0  0  0  0  0  0  0  0
   -0.8365    0.7375    6.8435 S   0  0  0  0  0  0  0  0  0  0  0  0
   -0.2996   -0.8996    6.4638 C   0  0  0  0  0  0  0  0  0  0  0  0
   -0.0365   -2.0496    7.2121 C   0  0  0  0  0  0  0  0  0  0  0  0
   -0.0796   -2.2493    8.5325 O   0  0  0  0  0  0  0  0  0  0  0  0
   -0.6720   -1.2780    9.3814 C   0  0  0  0  0  0  0  0  0  0  0  0
   -2.1931   -1.3313    9.3306 C   0  0  0  0  0  0  0  0  0  0  0  0
    0.3705   -3.1323    6.3920 C   0  0  0  0  0  0  0  0  0  0  0  0
    0.4431   -2.6878    4.6944 S   0  0  0  0  0  0  0  0  0  0  0  0
   -0.0818   -1.0936    5.0901 C   0  0  0  0  0  0  0  0  0  0  0  0
   -0.3504    0.0671    4.3597 C   0  0  0  0  0  0  0  0  0  0  0  0
   -0.3105    0.4569    3.0444 N   0  0  0  0  0  0  0  0  0  0  0  0
   -0.7243    1.7725    3.0005 C   0  0  0  0  0  0  0  0  0  0  0  0
   -0.9482    2.6373    1.9076 C   0  0  0  0  0  0  0  0  0  0  0  0
   -0.9981    2.3873    0.5514 N   0  0  0  0  0  0  0  0  0  0  0  0
   -1.1070    3.6027   -0.0771 C   0  0  0  0  0  0  0  0  0  0  0  0
   -1.1596    4.0728   -1.3923 C   0  0  0  0  0  0  0  0  0  0  0  0
   -1.1192    3.3391   -2.9528 S   0  0  0  0  0  0  0  0  0  0  0  0
   -1.4941    1.1848   -0.0896 C   0  0  0  0  0  0  0  0  0  0  0  0
   -2.9632    1.3361   -0.4825 C   0  0  0  0  0  0  0  0  0  0  0  0
    0.5883   -0.2040    2.1181 C   0  0  0  0  0  0  0  0  0  0  0  0
    2.0352   -0.1223    2.6029 C   0  0  0  0  0  0  0  0  0  0  0  0
    0.6378   -4.3851    6.9436 C   0  0  0  0  0  0  0  0  0  0  0  0
    1.0262   -5.5555    6.3360 C   0  0  0  0  0  0  0  0  0  0  0  0
    1.2964   -5.7213    4.9068 C   0  0  0  0  0  0  0  0  0  0  0  0
    1.2111   -4.8742    4.0303 O   0  0  0  0  0  0  0  0  0  0  0  0
    1.7004   -7.1238    4.7266 C   0  0  0  0  0  0  0  0  0  0  0  0
    2.0602   -7.7893    3.5721 C   0  0  0  0  0  0  0  0  0  0  0  0
    2.3996   -9.1308    3.6640 C   0  0  0  0  0  0  0  0  0  0  0  0
    2.3811   -9.7977    4.8851 C   0  0  0  0  0  0  0  0  0  0  0  0
    2.7301  -11.2497    4.9697 C   0  0  0  0  0  0  0  0  0  0  0  0
    2.0164   -9.1156    6.0477 C   0  0  0  0  0  0  0  0  0  0  0  0
    1.6757   -7.7781    5.9717 C   0  0  0  0  0  0  0  0  0  0  0  0
    1.2526   -6.8215    6.9972 C   0  0  0  0  0  0  0  0  0  0  0  0
    1.0954   -7.1097    8.3292 C   0  0  0  0  0  0  0  0  0  0  0  0
    0.6544   -6.2142    9.3256 C   0  0  0  0  0  0  0  0  0  0  0  0
    0.2942   -5.5649   10.2027 N   0  0  0  0  0  0  0  0  0  0  0  0
    1.3501   -8.3741    8.8992 C   0  0  0  0  0  0  0  0  0  0  0  0
    1.5417   -9.3741    9.4308 N   0  0  0  0  0  0  0  0  0  0  0  0
   -1.1583    6.2793   -5.2624 H   0  0  0  0  0  0  0  0  0  0  0  0
   -1.0905    0.2987   -7.2161 H   0  0  0  0  0  0  0  0  0  0  0  0
   -0.8055    4.2225  -10.4054 H   0  0  0  0  0  0  0  0  0  0  0  0
   -1.6511    1.3536  -12.0917 H   0  0  0  0  0  0  0  0  0  0  0  0
    0.6607    1.5903  -12.9850 H   0  0  0  0  0  0  0  0  0  0  0  0
    2.2075    2.0648  -10.9313 H   0  0  0  0  0  0  0  0  0  0  0  0
    2.0720   -0.0183   -9.2889 H   0  0  0  0  0  0  0  0  0  0  0  0
    0.4424   -1.7784  -10.3321 H   0  0  0  0  0  0  0  0  0  0  0  0
   -0.3068   -0.9128  -12.7685 H   0  0  0  0  0  0  0  0  0  0  0  0
    1.4677   -0.9048  -12.6116 H   0  0  0  0  0  0  0  0  0  0  0  0
   -1.7836   -0.6742  -10.5009 H   0  0  0  0  0  0  0  0  0  0  0  0
   -1.8132    8.1633   -1.3832 H   0  0  0  0  0  0  0  0  0  0  0  0
   -1.6339    9.1654   -2.8460 H   0  0  0  0  0  0  0  0  0  0  0  0
    0.8007    8.6815   -2.8972 H   0  0  0  0  0  0  0  0  0  0  0  0
    0.6548    7.6855   -1.4420 H   0  0  0  0  0  0  0  0  0  0  0  0
    0.3430    9.4214   -1.3552 H   0  0  0  0  0  0  0  0  0  0  0  0
   -0.3078   -0.2756    9.1321 H   0  0  0  0  0  0  0  0  0  0  0  0
   -0.3170   -1.5495   10.3784 H   0  0  0  0  0  0  0  0  0  0  0  0
   -2.5555   -1.0812    8.3364 H   0  0  0  0  0  0  0  0  0  0  0  0
   -2.6039   -0.6197   10.0401 H   0  0  0  0  0  0  0  0  0  0  0  0
   -2.5355   -2.3301    9.5892 H   0  0  0  0  0  0  0  0  0  0  0  0
   -1.4101    0.3505    0.6043 H   0  0  0  0  0  0  0  0  0  0  0  0
   -0.8930    0.9903   -0.9828 H   0  0  0  0  0  0  0  0  0  0  0  0
   -3.5626    1.5898    0.3896 H   0  0  0  0  0  0  0  0  0  0  0  0
   -3.0879    2.1099   -1.2340 H   0  0  0  0  0  0  0  0  0  0  0  0
   -3.3237    0.3978   -0.8940 H   0  0  0  0  0  0  0  0  0  0  0  0
    0.2876   -1.2522    2.0310 H   0  0  0  0  0  0  0  0  0  0  0  0
    0.5252    0.2814    1.1466 H   0  0  0  0  0  0  0  0  0  0  0  0
    2.6882   -0.5784    1.8646 H   0  0  0  0  0  0  0  0  0  0  0  0
    2.1611   -0.6497    3.5438 H   0  0  0  0  0  0  0  0  0  0  0  0
    2.3296    0.9166    2.7378 H   0  0  0  0  0  0  0  0  0  0  0  0
    0.5027   -4.4014    8.0182 H   0  0  0  0  0  0  0  0  0  0  0  0
    2.0728   -7.2679    2.6272 H   0  0  0  0  0  0  0  0  0  0  0  0
    2.6838   -9.6707    2.7725 H   0  0  0  0  0  0  0  0  0  0  0  0
    1.8237  -11.8399    5.1056 H   0  0  0  0  0  0  0  0  0  0  0  0
    3.2271  -11.5886    4.0645 H   0  0  0  0  0  0  0  0  0  0  0  0
    3.3767  -11.4390    5.8239 H   0  0  0  0  0  0  0  0  0  0  0  0
    2.0077   -9.6470    6.9857 H   0  0  0  0  0  0  0  0  0  0  0  0
  1  2  2  0  0  0  0
  2  3  1  0  0  0  0
  3  4  2  0  0  0  0
  3  5  1  0  0  0  0
  5  6  2  0  0  0  0
  6  7  1  0  0  0  0
  7  8  2  0  0  0  0
  8  9  1  0  0  0  0
  9 10  2  0  0  0  0
 10 11  1  0  0  0  0
 11 12  2  0  0  0  0
 12 13  1  0  0  0  0
 13 14  3  0  0  0  0
 12 15  1  0  0  0  0
 15 16  3  0  0  0  0
  8 17  1  0  0  0  0
 17 18  1  0  0  0  0
 18 19  1  0  0  0  0
 19 20  2  0  0  0  0
 20 21  1  0  0  0  0
 21 22  1  0  0  0  0
 21 23  1  0  0  0  0
  1 24  1  0  0  0  0
 24 25  2  0  0  0  0
 25 26  1  0  0  0  0
 26 27  1  0  0  0  0
 27 28  1  0  0  0  0
 25 29  1  0  0  0  0
 29 30  1  0  0  0  0
 30 31  1  0  0  0  0
 31 32  1  0  0  0  0
 32 33  1  0  0  0  0
 33 34  1  0  0  0  0
 34 35  2  0  0  0  0
 35 36  1  0  0  0  0
 36 37  1  0  0  0  0
 34 38  1  0  0  0  0
 38 39  1  0  0  0  0
 39 40  1  0  0  0  0
 40 41  1  0  0  0  0
 41 42  1  0  0  0  0
 42 43  1  0  0  0  0
 43 44  1  0  0  0  0
 44 45  1  0  0  0  0
 42 46  2  0  0  0  0
 46 47  1  0  0  0  0
 47 48  1  0  0  0  0
 48 49  1  0  0  0  0
 49 50  1  0  0  0  0
 50 51  1  0  0  0  0
 51 52  1  0  0  0  0
 52 53  1  0  0  0  0
 53 54  1  0  0  0  0
 54 55  1  0  0  0  0
 55 56  1  0  0  0  0
 53 57  1  0  0  0  0
 57 58  1  0  0  0  0
 50 59  1  0  0  0  0
 59 60  1  0  0  0  0
 46 61  1  0  0  0  0
 61 62  2  0  0  0  0
 62 63  1  0  0  0  0
 63 64  2  0  0  0  0
 63 65  1  0  0  0  0
 65 66  2  0  0  0  0
 66 67  1  0  0  0  0
 67 68  2  0  0  0  0
 68 69  1  0  0  0  0
 68 70  1  0  0  0  0
 70 71  2  0  0  0  0
 71 72  1  0  0  0  0
 72 73  2  0  0  0  0
 73 74  1  0  0  0  0
 74 75  3  0  0  0  0
 73 76  1  0  0  0  0
 76 77  3  0  0  0  0
 11  2  1  0  0  0  0
 23 17  1  0  0  0  0
 56 24  1  0  0  0  0
 72 62  1  0  0  0  0
 10  5  1  0  0  0  0
 22 18  1  0  0  0  0
 55 29  2  0  0  0  0
 71 65  1  0  0  0  0
 23  7  1  0  0  0  0
 54 31  2  0  0  0  0
 52 32  2  0  0  0  0
 37 33  2  0  0  0  0
 51 38  2  0  0  0  0
 49 39  2  0  0  0  0
 48 41  2  0  0  0  0
  1 78  1  0  0  0  0
  6 79  1  0  0  0  0
  9 80  1  0  0  0  0
 17 81  1  0  0  0  0
 18 82  1  0  0  0  0
 19 83  1  0  0  0  0
 20 84  1  0  0  0  0
 21 85  1  0  0  0  0
 22 86  1  0  0  0  0
 22 87  1  0  0  0  0
 23 88  1  0  0  0  0
 27 89  1  0  0  0  0
 27 90  1  0  0  0  0
 28 91  1  0  0  0  0
 28 92  1  0  0  0  0
 28 93  1  0  0  0  0
 44 94  1  0  0  0  0
 44 95  1  0  0  0  0
 45 96  1  0  0  0  0
 45 97  1  0  0  0  0
 45 98  1  0  0  0  0
 57 99  1  0  0  0  0
 57100  1  0  0  0  0
 58101  1  0  0  0  0
 58102  1  0  0  0  0
 58103  1  0  0  0  0
 59104  1  0  0  0  0
 59105  1  0  0  0  0
 60106  1  0  0  0  0
 60107  1  0  0  0  0
 60108  1  0  0  0  0
 61109  1  0  0  0  0
 66110  1  0  0  0  0
 67111  1  0  0  0  0
 69112  1  0  0  0  0
 69113  1  0  0  0  0
 69114  1  0  0  0  0
 70115  1  0  0  0  0
M  END
