204

C          2.24410        5.51340       -9.19630
C          3.15830        5.15860      -10.14820
C          3.94370        3.91200      -10.18450
O          3.85030        2.95040       -9.44600
C          4.89280        4.05910      -11.30120
C          5.87010        3.14670      -11.69120
C          6.62350        3.55900      -12.76350
C          6.42280        4.79200      -13.39870
C          5.46280        5.70110      -13.02310
C          4.67960        5.29880      -11.93690
C          3.58140        5.98730      -11.26220
C          3.04550        7.19020      -11.64750
C          1.96710        7.85270      -11.02520
N          1.09330        8.45990      -10.59030
C          3.49220        7.94870      -12.74970
N          3.79170        8.62170      -13.63080
C          7.53100        4.55030      -14.39260
C          7.13260        4.13620      -15.83070
C          5.79270        3.45130      -15.72420
C          5.98130        2.28370      -15.12400
C          7.45240        2.15800      -14.81350
C          8.04760        2.91450      -16.01190
C          7.75350        3.17610      -13.68580
C          1.78130        4.81550       -8.06230
C          0.90800        5.40940       -7.16650
C          0.55130        4.60180       -6.07320
C         -0.26320        4.84020       -4.94140
O         -0.88230        5.97650       -4.54170
C         -1.10320        7.08100       -5.39630
C         -2.09760        6.77460       -6.51040
C         -0.43220        3.78090       -4.06180
S         -1.42990        3.96000       -2.63570
C         -1.12810        2.30690       -2.25460
C         -1.51370        1.46270       -1.16430
C         -0.97690        0.18860       -1.43480
C         -0.29740        0.16490       -2.79300
C         -0.31760        1.64270       -3.15040
C          0.15030        2.48830       -4.19200
C          1.05780        2.30360       -5.25200
C          1.19410        3.32990       -6.17040
S          2.19560        3.18730       -7.58640
O          1.78130        1.14380       -5.42580
C          3.02320        1.08580       -4.73240
C          4.15290        1.86090       -5.39880
C         -1.16990       -0.54240       -3.82550
C         -2.42190       -1.04830       -3.50160
C         -3.20750       -1.65750       -4.46420
C         -2.77410       -1.77150       -5.77680
C         -3.60730       -2.47350       -6.81010
C         -3.22940       -3.95420       -6.88460
C         -1.52490       -1.25720       -6.09890
C         -0.73510       -0.64940       -5.14210
C          1.07290       -0.44570       -2.60720
C          1.43960       -1.66400       -3.15710
C          2.68970       -2.19930       -2.89920
C          3.59350       -1.54600       -2.07380
C          4.97180       -2.09750       -1.84990
C          5.94290       -1.52450       -2.88440
C          3.20940       -0.34120       -1.49770
C          1.96620        0.20030       -1.75790
C         -1.06520       -0.82950       -0.51280
C         -1.71120       -0.53660        0.68340
C         -1.90580       -1.32090        1.86330
C         -2.54010       -0.61100        2.85230
C         -2.92300        0.75680        2.32710
C         -2.28660        0.72720        0.94040
C         -2.19600        1.74200        0.01650
C         -2.30700        1.90930        3.08610
C         -1.20020        1.70870        3.89960
C         -0.59380        2.77220        4.54330
C         -1.06730        4.06770        4.38500
C         -0.44890        5.21220        5.13490
C         -1.11550        5.37810        6.50250
C         -2.15680        4.26920        3.54820
C         -2.76200        3.20960        2.89910
C         -4.44140        0.78860        2.20470
C         -5.05180        0.01900        1.22000
C         -6.42760       -0.02020        1.10250
C         -7.23830        0.69870        1.97090
C         -8.73200        0.68930        1.81770
C         -9.17990        1.80350        0.86950
C         -6.62650        1.46010        2.95620
C         -5.24930        1.50420        3.07530
C         -2.66860       -1.33550        4.06480
C         -3.19960       -0.87580        5.29150
O         -3.70150        0.38220        5.25860
C         -3.99070        1.09400        6.44570
C         -2.73830        1.55990        7.17780
C         -3.15760       -1.76100        6.35920
C         -2.59640       -3.06090        6.22700
C         -2.07780       -3.53270        4.99830
O         -1.55870       -4.77940        5.05790
C         -1.39860       -5.58130        3.90360
C         -2.73160       -5.96670        3.27350
C         -2.11490       -2.64530        3.93500
S         -1.45150       -2.91540        2.32350
C         -2.59150       -3.79750        7.42510
C         -3.13180       -3.12690        8.49330
S         -3.71700       -1.53670        8.00190
C         -3.29990       -3.44770        9.85740
C         -2.82510       -4.48820       10.60550
C         -1.90450       -5.57730       10.20310
O         -1.56930       -5.91930        9.08780
C         -1.45120       -6.20360       11.46030
C         -0.50060       -7.21460       11.58860
C         -0.25230       -7.58670       12.88750
C         -0.90420       -6.99890       13.98020
C         -1.85220       -6.01050       13.86680
C         -2.11900       -5.61600       12.55150
C         -3.04360       -4.60920       12.03880
C         -3.98710       -3.95220       12.78540
C         -4.16200       -4.12110       14.17500
N         -4.36120       -4.20010       15.30320
C         -4.95480       -3.05100       12.29200
N         -5.78960       -2.32340       11.98580
C         -0.15340       -7.83920       14.98290
C          1.00290       -7.14590       15.73450
C          1.83180       -8.29500       16.26140
C          2.44700       -8.85560       15.22810
C          2.04500       -8.09430       13.98550
C          1.89680       -6.68600       14.57560
C          0.57120       -8.49700       13.76500
H          1.80560        6.49980       -9.28960
H          5.99290        2.21070      -11.16890
H          5.32720        6.64720      -13.51960
H          8.34810        5.26890      -14.37930
H          7.20750        4.93230      -16.56650
H          4.86620        3.89760      -16.03460
H          5.24360        1.55930      -14.83220
H          7.81910        1.15260      -14.62380
H          9.10610        3.14430      -15.89770
H          7.88260        2.40130      -16.95800
H          8.71650        2.99690      -13.21120
H          0.56270        6.41090       -7.34330
H         -0.15410        7.45940       -5.79100
H         -1.51760        7.84130       -4.72800
H         -2.24180        7.65890       -7.12470
H         -3.05230        6.48290       -6.07970
H         -1.74370        5.96200       -7.14040
H          2.88760        1.43840       -3.70320
H          3.26590        0.02090       -4.70580
H          5.08600        1.62440       -4.89340
H          3.98460        2.93320       -5.33140
H          4.23670        1.58520       -6.44660
H         -2.79920       -0.97170       -2.49320
H         -4.17720       -2.04640       -4.18630
H         -4.66580       -2.38400       -6.55730
H         -3.44870       -2.01290       -7.78750
H         -3.82800       -4.46410       -7.63610
H         -2.17880       -4.06280       -7.14450
H         -3.39510       -4.43510       -5.92290
H         -1.16410       -1.32720       -7.11530
H          0.22840       -0.25830       -5.42270
H          0.75080       -2.20180       -3.79060
H          2.96330       -3.14550       -3.34450
H          4.95610       -3.18580       -1.93440
H          5.31830       -1.83690       -0.84780
H          5.62140       -1.78550       -3.89030
H          5.97820       -0.43990       -2.80840
H          6.94470       -1.91750       -2.72670
H          3.89100        0.17590       -0.83700
H          1.67780        1.13550       -1.29650
H         -0.63860       -1.80440       -0.69550
H         -2.60290        2.72450        0.19520
H         -0.80630        0.71280        4.03910
H          0.26460        2.59180        5.17590
H         -0.56680        6.13490        4.56340
H          0.61880        5.03090        5.27510
H         -2.18440        5.54240        6.38440
H         -0.97130        4.48510        7.10680
H         -0.69020        6.22690        7.03290
H         -2.53330        5.27110        3.39660
H         -3.60160        3.39860        2.24640
H         -4.44690       -0.55820        0.53520
H         -6.87860       -0.62390        0.32750
H         -9.05730       -0.27390        1.41920
H         -9.20500        0.83370        2.79110
H         -8.88040        2.77410        1.25870
H         -8.72390        1.67280       -0.10940
H        -10.26120        1.79400        0.75380
H         -7.23640        2.02480        3.64760
H         -4.80430        2.09930        3.85460
H         -4.63820        0.51010        7.10800
H         -4.55690        1.96330        6.10000
H         -2.13430        2.17430        6.51480
H         -3.02560        2.14300        8.04780
H         -2.14290        0.71250        7.50780
H         -0.89030       -6.47230        4.28190
H         -0.74600       -5.09740        3.16890
H         -3.25410       -5.08750        2.90420
H         -2.55870       -6.64390        2.44230
H         -3.36010       -6.46080        4.01050
H         -2.18530       -4.78970        7.49140
H         -3.86080       -2.69270       10.39710
H         -0.02350       -7.63850       10.71890
H         -2.34440       -5.57010       14.71750
H         -0.76400       -8.46750       15.62850
H          0.69140       -6.39550       16.45600
H          1.84080       -8.60620       17.28950
H          3.07260       -9.72900       15.22070
H          2.68410       -8.20800       13.11390
H          2.84690       -6.28350       14.92340
H          1.42250       -5.97160       13.90530
H          0.44190       -9.56460       13.59710
