118

C         -0.89740        5.14630        5.55070
C         -1.17750        6.29190        4.83880
C         -1.06590        6.46450        3.38940
O         -0.72350        5.63390        2.56280
C         -1.43290        7.86120        3.10380
C         -1.48020        8.47770        1.85620
C         -1.87040        9.79480        1.89870
C         -2.19210       10.44820        3.09520
C         -2.14980        9.84970        4.33250
C         -1.75130        8.51070        4.31240
C         -1.59750        7.55390        5.40920
C         -1.83080        7.84010        6.73250
C         -1.73140        6.93220        7.80230
N         -1.68040        6.25370        8.73030
C         -2.21540        9.10380        7.22640
N         -2.52020       10.09830        7.71320
C         -2.49510       11.74980        2.39660
C         -1.43280       12.87410        2.47140
C         -0.10030       12.19340        2.66280
C          0.20530       11.57540        1.52970
C         -0.91550       11.82690        0.55150
C         -1.33810       13.24080        0.98170
C         -2.13590       11.02200        1.06290
C         -0.55590        3.86200        5.12010
C         -0.34030        2.75130        5.97350
O         -0.28340        2.65890        7.30870
C          0.25210        3.65910        8.17110
C          1.56600        4.24930        7.68030
C         -0.23070        1.56020        5.24490
S         -0.00720       -0.10010        5.75640
C         -0.01020       -0.56860        4.09160
C          0.07250       -1.73240        3.31500
C          0.11780       -3.09110        3.69760
C          0.07730       -4.09720        2.67860
N          0.07010       -5.32400        3.17580
S          0.11760       -5.22020        4.79120
N          0.14560       -3.60700        4.91630
C          0.10220       -3.69470        1.32550
C          0.19620       -4.45280        0.15060
S          0.26150       -6.10660       -0.33580
C          0.46170       -5.59440       -2.00520
C          0.65800       -6.27190       -3.22320
O          0.66920       -7.58720       -3.47500
C          0.31440       -8.51040       -2.45490
C         -1.19240       -8.58350       -2.24860
C          0.82980       -5.38090       -4.29390
S          0.68010       -3.71040       -3.77610
C          0.47100       -4.20050       -2.13970
C          0.31660       -3.55150       -0.90940
N          0.26770       -2.26710       -0.43970
C          0.13160       -2.32370        0.93850
C          0.01030       -1.32890        1.94760
N         -0.14210        0.04570        1.91090
C         -0.16150        0.50110        3.20140
C         -0.30430        1.72720        3.85940
S         -0.50390        3.38260        3.41570
C         -0.59110        0.91740        0.84800
C         -1.96390        0.50030        0.32640
C          0.71000       -1.18480       -1.29110
C          2.08710       -0.67510       -0.87460
C          1.03760       -5.62330       -5.66110
C          1.47320       -6.73720       -6.32330
C          1.18740       -6.84800       -7.78110
O          0.76510       -5.97200       -8.50390
C          1.48770       -8.24870       -8.12850
C          1.31830       -8.91110       -9.32670
C          1.66430      -10.25570       -9.42110
C          1.48840      -10.98190      -10.71690
C          2.17680      -10.92130       -8.29790
C          2.54520      -12.36850       -8.38480
C          2.35300      -10.24370       -7.09380
C          2.01320       -8.90620       -7.00320
C          2.13160       -7.94580       -5.90760
C          2.92250       -8.10770       -4.79520
C          3.25950       -7.05360       -3.92860
N          3.56000       -6.20280       -3.21740
C          3.52930       -9.32270       -4.42810
N          4.01220      -10.29660       -4.05590
H         -0.99440        5.23640        6.62180
H         -1.22870        7.93350        0.95930
H         -2.40410       10.36930        5.24070
H         -3.50850       12.12860        2.51380
H         -1.66880       13.67200        3.17030
H          0.43880       12.18370        3.59190
H          1.05090       10.94600        1.32270
H         -0.68040       11.67250       -0.49830
H         -0.57300       13.98890        0.77980
H         -2.28690       13.55970        0.55230
H         -2.91510       10.92640        0.30900
H          0.41820        3.10720        9.10070
H         -0.48480        4.44270        8.38190
H          2.28220        3.45470        7.48160
H          1.43100        4.83100        6.77100
H          1.96750        4.90190        8.45000
H          0.69340       -9.46880       -2.82080
H          0.82860       -8.26520       -1.52040
H         -1.68360       -8.84020       -3.18430
H         -1.58250       -7.63150       -1.89770
H         -1.41760       -9.34500       -1.50830
H          0.14880        0.96230        0.04890
H         -0.65940        1.91970        1.27740
H         -1.95510       -0.52420       -0.03880
H         -2.26880        1.16060       -0.48070
H         -2.69910        0.56900        1.12470
H         -0.02940       -0.38460       -1.30980
H          0.76880       -1.59130       -2.30360
H          2.81970       -1.47360       -0.96500
H          2.38900        0.14500       -1.52010
H          2.08550       -0.33040        0.15700
H          0.75380       -4.80390       -6.31730
H          0.92290       -8.38040      -10.18000
H          1.08670      -10.31840      -11.47790
H          0.80820      -11.82450      -10.59550
H          2.44150      -11.37670      -11.06760
H          3.31090      -12.52270       -9.14430
H          2.92530      -12.72730       -7.43220
H          1.67970      -12.96870       -8.66400
H          2.74710      -10.77560       -6.24200
