
  xtb     02022204043D
 energy: -165.528326793689 gnorm: 0.000705195229 xtb: 6.4.1 (unknown)
 86 99  0     0  0            999 V2000
   -3.7751   -3.5668    0.8722 C   0  0  0  0  0  0  0  0  0  0  0  0
   -4.5481   -2.4716    0.7167 C   0  0  0  0  0  0  0  0  0  0  0  0
   -4.0464   -1.0648    0.8240 C   0  0  0  0  0  0  0  0  0  0  0  0
   -2.9006   -0.7001    0.9452 O   0  0  0  0  0  0  0  0  0  0  0  0
   -5.2523   -0.2221    0.8665 C   0  0  0  0  0  0  0  0  0  0  0  0
   -5.2881    1.1649    0.9991 C   0  0  0  0  0  0  0  0  0  0  0  0
   -6.5560    1.6917    1.0304 C   0  0  0  0  0  0  0  0  0  0  0  0
   -7.7094    0.8973    0.9445 C   0  0  0  0  0  0  0  0  0  0  0  0
   -7.6896   -0.4697    0.8113 C   0  0  0  0  0  0  0  0  0  0  0  0
   -6.4070   -1.0277    0.7713 C   0  0  0  0  0  0  0  0  0  0  0  0
   -6.0013   -2.4194    0.6308 C   0  0  0  0  0  0  0  0  0  0  0  0
   -6.8226   -3.4814    0.3708 C   0  0  0  0  0  0  0  0  0  0  0  0
   -6.3777   -4.8028    0.1457 C   0  0  0  0  0  0  0  0  0  0  0  0
   -6.0906   -5.8941   -0.0636 N   0  0  0  0  0  0  0  0  0  0  0  0
   -8.2269   -3.3975    0.2544 C   0  0  0  0  0  0  0  0  0  0  0  0
   -9.3704   -3.4032    0.1565 N   0  0  0  0  0  0  0  0  0  0  0  0
   -8.6313    2.0841    1.0638 C   0  0  0  0  0  0  0  0  0  0  0  0
   -9.3135    2.3314    2.4325 C   0  0  0  0  0  0  0  0  0  0  0  0
   -8.4088    1.7305    3.4796 C   0  0  0  0  0  0  0  0  0  0  0  0
   -7.3197    2.4837    3.5549 C   0  0  0  0  0  0  0  0  0  0  0  0
   -7.4681    3.6078    2.5593 C   0  0  0  0  0  0  0  0  0  0  0  0
   -8.9889    3.8224    2.6178 C   0  0  0  0  0  0  0  0  0  0  0  0
   -7.3480    2.9688    1.1534 C   0  0  0  0  0  0  0  0  0  0  0  0
   -2.3287   -3.5488    0.8637 C   0  0  0  0  0  0  0  0  0  0  0  0
   -1.5774   -2.8749   -0.0766 C   0  0  0  0  0  0  0  0  0  0  0  0
   -2.2074   -2.2754   -1.0885 F   0  0  0  0  0  0  0  0  0  0  0  0
   -0.1614   -2.8428   -0.0737 C   0  0  0  0  0  0  0  0  0  0  0  0
    0.5814   -2.1066   -1.0380 C   0  0  0  0  0  0  0  0  0  0  0  0
    2.0134   -2.0211   -0.9581 C   0  0  0  0  0  0  0  0  0  0  0  0
    2.5232   -1.2956   -1.9481 N   0  0  0  0  0  0  0  0  0  0  0  0
    1.3164   -0.7617   -2.8771 S   0  0  0  0  0  0  0  0  0  0  0  0
    0.1032   -1.4332   -2.0758 N   0  0  0  0  0  0  0  0  0  0  0  0
    2.7399   -2.6899    0.0672 C   0  0  0  0  0  0  0  0  0  0  0  0
    1.9869   -3.4548    0.9369 C   0  0  0  0  0  0  0  0  0  0  0  0
    2.6314   -4.1297    1.8932 F   0  0  0  0  0  0  0  0  0  0  0  0
    0.5738   -3.5310    0.9134 C   0  0  0  0  0  0  0  0  0  0  0  0
   -0.1676   -4.2840    1.8667 C   0  0  0  0  0  0  0  0  0  0  0  0
   -1.6038   -4.2917    1.8319 C   0  0  0  0  0  0  0  0  0  0  0  0
   -2.1246   -5.0363    2.8015 N   0  0  0  0  0  0  0  0  0  0  0  0
   -0.9234   -5.6737    3.6639 S   0  0  0  0  0  0  0  0  0  0  0  0
    0.3047   -5.0318    2.8560 N   0  0  0  0  0  0  0  0  0  0  0  0
    4.1756   -2.6397    0.1708 C   0  0  0  0  0  0  0  0  0  0  0  0
    5.0033   -1.6387   -0.1940 C   0  0  0  0  0  0  0  0  0  0  0  0
    6.4646   -1.9069   -0.3765 C   0  0  0  0  0  0  0  0  0  0  0  0
    7.0763   -2.8673    0.0253 O   0  0  0  0  0  0  0  0  0  0  0  0
    6.9593   -0.7869   -1.1966 C   0  0  0  0  0  0  0  0  0  0  0  0
    8.2290   -0.6489   -1.7568 C   0  0  0  0  0  0  0  0  0  0  0  0
    8.3918    0.4943   -2.5012 C   0  0  0  0  0  0  0  0  0  0  0  0
    7.3642    1.4296   -2.6937 C   0  0  0  0  0  0  0  0  0  0  0  0
    6.1095    1.3106   -2.1465 C   0  0  0  0  0  0  0  0  0  0  0  0
    5.9286    0.1628   -1.3691 C   0  0  0  0  0  0  0  0  0  0  0  0
    4.7623   -0.2688   -0.6095 C   0  0  0  0  0  0  0  0  0  0  0  0
    3.7472    0.5371   -0.1745 C   0  0  0  0  0  0  0  0  0  0  0  0
    2.7675    0.1193    0.7500 C   0  0  0  0  0  0  0  0  0  0  0  0
    1.9687   -0.1709    1.5211 N   0  0  0  0  0  0  0  0  0  0  0  0
    3.5898    1.8865   -0.5512 C   0  0  0  0  0  0  0  0  0  0  0  0
    3.4015    2.9815   -0.8390 N   0  0  0  0  0  0  0  0  0  0  0  0
    8.2267    2.3200   -3.5521 C   0  0  0  0  0  0  0  0  0  0  0  0
    8.7807    3.5936   -2.8786 C   0  0  0  0  0  0  0  0  0  0  0  0
    9.9406    3.9944   -3.7613 C   0  0  0  0  0  0  0  0  0  0  0  0
   10.9149    3.1136   -3.5719 C   0  0  0  0  0  0  0  0  0  0  0  0
   10.4297    2.1023   -2.5583 C   0  0  0  0  0  0  0  0  0  0  0  0
    9.5472    3.0055   -1.6869 C   0  0  0  0  0  0  0  0  0  0  0  0
    9.3740    1.2825   -3.3312 C   0  0  0  0  0  0  0  0  0  0  0  0
   -4.2174   -4.5339    1.0735 H   0  0  0  0  0  0  0  0  0  0  0  0
   -4.3758    1.7367    1.0646 H   0  0  0  0  0  0  0  0  0  0  0  0
   -8.5839   -1.0672    0.7499 H   0  0  0  0  0  0  0  0  0  0  0  0
   -9.3083    2.2477    0.2278 H   0  0  0  0  0  0  0  0  0  0  0  0
  -10.3586    2.0368    2.4747 H   0  0  0  0  0  0  0  0  0  0  0  0
   -8.6221    0.8162    4.0018 H   0  0  0  0  0  0  0  0  0  0  0  0
   -6.4409    2.3244    4.1518 H   0  0  0  0  0  0  0  0  0  0  0  0
   -6.8332    4.4756    2.7165 H   0  0  0  0  0  0  0  0  0  0  0  0
   -9.3225    4.2094    3.5794 H   0  0  0  0  0  0  0  0  0  0  0  0
   -9.3698    4.4526    1.8153 H   0  0  0  0  0  0  0  0  0  0  0  0
   -7.1834    3.7089    0.3730 H   0  0  0  0  0  0  0  0  0  0  0  0
    4.6550   -3.5389    0.5455 H   0  0  0  0  0  0  0  0  0  0  0  0
    8.9900   -1.3963   -1.5964 H   0  0  0  0  0  0  0  0  0  0  0  0
    5.3213    2.0272   -2.3087 H   0  0  0  0  0  0  0  0  0  0  0  0
    7.8692    2.4944   -4.5650 H   0  0  0  0  0  0  0  0  0  0  0  0
    8.0369    4.3572   -2.6692 H   0  0  0  0  0  0  0  0  0  0  0  0
    9.9139    4.8182   -4.4501 H   0  0  0  0  0  0  0  0  0  0  0  0
   11.8643    3.0546   -4.0709 H   0  0  0  0  0  0  0  0  0  0  0  0
   11.1893    1.5088   -2.0570 H   0  0  0  0  0  0  0  0  0  0  0  0
   10.1271    3.7601   -1.1584 H   0  0  0  0  0  0  0  0  0  0  0  0
    8.9211    2.4662   -0.9785 H   0  0  0  0  0  0  0  0  0  0  0  0
    9.7863    0.7671   -4.1966 H   0  0  0  0  0  0  0  0  0  0  0  0
  1  2  2  0  0  0  0
  2  3  1  0  0  0  0
  3  4  2  0  0  0  0
  3  5  1  0  0  0  0
  5  6  2  0  0  0  0
  6  7  1  0  0  0  0
  7  8  2  0  0  0  0
  8  9  1  0  0  0  0
  9 10  2  0  0  0  0
 10 11  1  0  0  0  0
 11 12  2  0  0  0  0
 12 13  1  0  0  0  0
 13 14  3  0  0  0  0
 12 15  1  0  0  0  0
 15 16  3  0  0  0  0
  8 17  1  0  0  0  0
 17 18  1  0  0  0  0
 18 19  1  0  0  0  0
 19 20  2  0  0  0  0
 20 21  1  0  0  0  0
 21 22  1  0  0  0  0
 21 23  1  0  0  0  0
  1 24  1  0  0  0  0
 24 25  2  0  0  0  0
 25 26  1  0  0  0  0
 25 27  1  0  0  0  0
 27 28  1  0  0  0  0
 28 29  1  0  0  0  0
 29 30  2  0  0  0  0
 30 31  1  0  0  0  0
 31 32  1  0  0  0  0
 29 33  1  0  0  0  0
 33 34  2  0  0  0  0
 34 35  1  0  0  0  0
 34 36  1  0  0  0  0
 36 37  1  0  0  0  0
 37 38  1  0  0  0  0
 38 39  2  0  0  0  0
 39 40  1  0  0  0  0
 40 41  1  0  0  0  0
 33 42  1  0  0  0  0
 42 43  2  0  0  0  0
 43 44  1  0  0  0  0
 44 45  2  0  0  0  0
 44 46  1  0  0  0  0
 46 47  2  0  0  0  0
 47 48  1  0  0  0  0
 48 49  2  0  0  0  0
 49 50  1  0  0  0  0
 50 51  2  0  0  0  0
 51 52  1  0  0  0  0
 52 53  2  0  0  0  0
 53 54  1  0  0  0  0
 54 55  3  0  0  0  0
 53 56  1  0  0  0  0
 56 57  3  0  0  0  0
 49 58  1  0  0  0  0
 58 59  1  0  0  0  0
 59 60  1  0  0  0  0
 60 61  2  0  0  0  0
 61 62  1  0  0  0  0
 62 63  1  0  0  0  0
 62 64  1  0  0  0  0
 11  2  1  0  0  0  0
 23 17  1  0  0  0  0
 38 24  1  0  0  0  0
 52 43  1  0  0  0  0
 64 58  1  0  0  0  0
 10  5  1  0  0  0  0
 22 18  1  0  0  0  0
 36 27  2  0  0  0  0
 41 37  2  0  0  0  0
 51 46  1  0  0  0  0
 63 59  1  0  0  0  0
 23  7  1  0  0  0  0
 32 28  2  0  0  0  0
 64 48  1  0  0  0  0
  1 65  1  0  0  0  0
  6 66  1  0  0  0  0
  9 67  1  0  0  0  0
 17 68  1  0  0  0  0
 18 69  1  0  0  0  0
 19 70  1  0  0  0  0
 20 71  1  0  0  0  0
 21 72  1  0  0  0  0
 22 73  1  0  0  0  0
 22 74  1  0  0  0  0
 23 75  1  0  0  0  0
 42 76  1  0  0  0  0
 47 77  1  0  0  0  0
 50 78  1  0  0  0  0
 58 79  1  0  0  0  0
 59 80  1  0  0  0  0
 60 81  1  0  0  0  0
 61 82  1  0  0  0  0
 62 83  1  0  0  0  0
 63 84  1  0  0  0  0
 63 85  1  0  0  0  0
 64 86  1  0  0  0  0
M  END
