
  xtb     02112205193D
 energy: -216.311029095591 gnorm: 0.000729622085 xtb: 6.4.1 (unknown)
115129  0     0  0            999 V2000
   -0.0161    1.2961   -6.8168 C   0  0  0  0  0  0  0  0  0  0  0  0
    1.0137    1.8961   -7.4921 C   0  0  0  0  0  0  0  0  0  0  0  0
    2.0923    2.6578   -6.8171 C   0  0  0  0  0  0  0  0  0  0  0  0
    2.1148    3.0490   -5.6685 O   0  0  0  0  0  0  0  0  0  0  0  0
    3.1863    2.7387   -7.8054 C   0  0  0  0  0  0  0  0  0  0  0  0
    4.4419    3.3087   -7.6130 C   0  0  0  0  0  0  0  0  0  0  0  0
    5.2653    3.2315   -8.7109 C   0  0  0  0  0  0  0  0  0  0  0  0
    4.8763    2.6198   -9.9102 C   0  0  0  0  0  0  0  0  0  0  0  0
    3.6430    2.0468  -10.1119 C   0  0  0  0  0  0  0  0  0  0  0  0
    2.7867    2.1249   -9.0107 C   0  0  0  0  0  0  0  0  0  0  0  0
    1.4183    1.6448   -8.8549 C   0  0  0  0  0  0  0  0  0  0  0  0
    0.6009    1.1511   -9.8394 C   0  0  0  0  0  0  0  0  0  0  0  0
   -0.7624    0.8605   -9.6271 C   0  0  0  0  0  0  0  0  0  0  0  0
   -1.8853    0.6500   -9.5087 N   0  0  0  0  0  0  0  0  0  0  0  0
    0.9964    0.9373  -11.1740 C   0  0  0  0  0  0  0  0  0  0  0  0
    1.2653    0.7380  -12.2723 N   0  0  0  0  0  0  0  0  0  0  0  0
    6.1973    2.9080  -10.5782 C   0  0  0  0  0  0  0  0  0  0  0  0
    6.2498    4.0742  -11.5958 C   0  0  0  0  0  0  0  0  0  0  0  0
    5.1583    5.0377  -11.2004 C   0  0  0  0  0  0  0  0  0  0  0  0
    5.5240    5.6205  -10.0665 C   0  0  0  0  0  0  0  0  0  0  0  0
    6.8694    5.0615   -9.6745 C   0  0  0  0  0  0  0  0  0  0  0  0
    7.4806    4.8267  -11.0651 C   0  0  0  0  0  0  0  0  0  0  0  0
    6.6288    3.5934   -9.2433 C   0  0  0  0  0  0  0  0  0  0  0  0
   -0.4437    1.6569   -5.5240 C   0  0  0  0  0  0  0  0  0  0  0  0
   -0.4999    2.8934   -4.8715 C   0  0  0  0  0  0  0  0  0  0  0  0
   -0.4230    4.1365   -5.3490 O   0  0  0  0  0  0  0  0  0  0  0  0
   -0.6065    4.4471   -6.7167 C   0  0  0  0  0  0  0  0  0  0  0  0
   -1.9461    3.9802   -7.2733 C   0  0  0  0  0  0  0  0  0  0  0  0
   -0.8062    2.7290   -3.5015 C   0  0  0  0  0  0  0  0  0  0  0  0
   -0.9342    3.8754   -2.1934 S   0  0  0  0  0  0  0  0  0  0  0  0
   -1.2734    2.5642   -1.1181 C   0  0  0  0  0  0  0  0  0  0  0  0
   -1.5293    2.3446    0.2475 C   0  0  0  0  0  0  0  0  0  0  0  0
   -1.7319    3.2203    1.3381 C   0  0  0  0  0  0  0  0  0  0  0  0
   -2.0535    2.6673    2.6257 C   0  0  0  0  0  0  0  0  0  0  0  0
   -2.2734    3.6028    3.5359 N   0  0  0  0  0  0  0  0  0  0  0  0
   -2.0886    5.0520    2.8391 S   0  0  0  0  0  0  0  0  0  0  0  0
   -1.7195    4.5437    1.3492 N   0  0  0  0  0  0  0  0  0  0  0  0
   -2.0157    1.2648    2.8007 C   0  0  0  0  0  0  0  0  0  0  0  0
   -2.0651    0.4612    3.9498 C   0  0  0  0  0  0  0  0  0  0  0  0
   -2.3311    0.6192    5.6462 S   0  0  0  0  0  0  0  0  0  0  0  0
   -2.0144   -1.0999    5.8480 C   0  0  0  0  0  0  0  0  0  0  0  0
   -1.9958   -1.9740    6.9519 C   0  0  0  0  0  0  0  0  0  0  0  0
   -2.1078   -1.7071    8.2458 O   0  0  0  0  0  0  0  0  0  0  0  0
   -2.3002   -0.3749    8.6968 C   0  0  0  0  0  0  0  0  0  0  0  0
   -0.9834    0.3846    8.8008 C   0  0  0  0  0  0  0  0  0  0  0  0
   -1.7172   -3.2978    6.5525 C   0  0  0  0  0  0  0  0  0  0  0  0
   -1.3950   -3.4099    4.8266 S   0  0  0  0  0  0  0  0  0  0  0  0
   -1.7259   -1.7326    4.6295 C   0  0  0  0  0  0  0  0  0  0  0  0
   -1.7617   -0.8458    3.5511 C   0  0  0  0  0  0  0  0  0  0  0  0
   -1.5612   -0.8930    2.1954 N   0  0  0  0  0  0  0  0  0  0  0  0
   -1.7336    0.3933    1.7131 C   0  0  0  0  0  0  0  0  0  0  0  0
   -1.6505    0.9387    0.4102 C   0  0  0  0  0  0  0  0  0  0  0  0
   -1.5560    0.3268   -0.8260 N   0  0  0  0  0  0  0  0  0  0  0  0
   -1.3040    1.3119   -1.7469 C   0  0  0  0  0  0  0  0  0  0  0  0
   -1.0365    1.4087   -3.1158 C   0  0  0  0  0  0  0  0  0  0  0  0
   -0.9160    0.3283   -4.4543 S   0  0  0  0  0  0  0  0  0  0  0  0
   -2.1905   -0.9138   -1.2182 C   0  0  0  0  0  0  0  0  0  0  0  0
   -3.4670   -0.6616   -2.0192 C   0  0  0  0  0  0  0  0  0  0  0  0
   -0.8028   -1.9866    1.6170 C   0  0  0  0  0  0  0  0  0  0  0  0
    0.5666   -1.5317    1.1241 C   0  0  0  0  0  0  0  0  0  0  0  0
   -1.5926   -4.4623    7.3151 C   0  0  0  0  0  0  0  0  0  0  0  0
   -2.2035   -4.7356    8.5177 C   0  0  0  0  0  0  0  0  0  0  0  0
   -3.4404   -4.0939    8.9933 C   0  0  0  0  0  0  0  0  0  0  0  0
   -4.0883   -3.2201    8.4570 O   0  0  0  0  0  0  0  0  0  0  0  0
   -3.8289   -4.8491   10.2109 C   0  0  0  0  0  0  0  0  0  0  0  0
   -4.9164   -4.6515   11.0338 C   0  0  0  0  0  0  0  0  0  0  0  0
   -5.0773   -5.5180   12.1127 C   0  0  0  0  0  0  0  0  0  0  0  0
   -6.2665   -5.3258   13.0122 C   0  0  0  0  0  0  0  0  0  0  0  0
   -6.1731   -5.9985   14.1669 F   0  0  0  0  0  0  0  0  0  0  0  0
   -7.4091   -5.7353   12.4277 F   0  0  0  0  0  0  0  0  0  0  0  0
   -6.4565   -4.0358   13.3360 F   0  0  0  0  0  0  0  0  0  0  0  0
   -4.1825   -6.5558   12.3410 C   0  0  0  0  0  0  0  0  0  0  0  0
   -3.0921   -6.7512   11.5040 C   0  0  0  0  0  0  0  0  0  0  0  0
   -2.9126   -5.8905   10.4333 C   0  0  0  0  0  0  0  0  0  0  0  0
   -1.8789   -5.8303    9.3973 C   0  0  0  0  0  0  0  0  0  0  0  0
   -0.7616   -6.6253    9.3394 C   0  0  0  0  0  0  0  0  0  0  0  0
   -0.4889   -7.6770   10.2372 C   0  0  0  0  0  0  0  0  0  0  0  0
   -0.2137   -8.5495   10.9310 N   0  0  0  0  0  0  0  0  0  0  0  0
    0.2766   -6.4823    8.3955 C   0  0  0  0  0  0  0  0  0  0  0  0
    1.1682   -6.4132    7.6745 N   0  0  0  0  0  0  0  0  0  0  0  0
   -0.4695    0.4048   -7.2362 H   0  0  0  0  0  0  0  0  0  0  0  0
    4.7052    3.7649   -6.6715 H   0  0  0  0  0  0  0  0  0  0  0  0
    3.3566    1.5684  -11.0341 H   0  0  0  0  0  0  0  0  0  0  0  0
    6.7624    2.0400  -10.9118 H   0  0  0  0  0  0  0  0  0  0  0  0
    6.2620    3.7641  -12.6371 H   0  0  0  0  0  0  0  0  0  0  0  0
    4.2358    5.1506  -11.7393 H   0  0  0  0  0  0  0  0  0  0  0  0
    4.9679    6.3180   -9.4678 H   0  0  0  0  0  0  0  0  0  0  0  0
    7.4465    5.6508   -8.9668 H   0  0  0  0  0  0  0  0  0  0  0  0
    8.3849    4.2198  -11.0448 H   0  0  0  0  0  0  0  0  0  0  0  0
    7.6717    5.7539  -11.6032 H   0  0  0  0  0  0  0  0  0  0  0  0
    7.4774    3.1747   -8.7057 H   0  0  0  0  0  0  0  0  0  0  0  0
   -0.5516    5.5390   -6.7311 H   0  0  0  0  0  0  0  0  0  0  0  0
    0.2149    4.0509   -7.3276 H   0  0  0  0  0  0  0  0  0  0  0  0
   -2.7528    4.2991   -6.6176 H   0  0  0  0  0  0  0  0  0  0  0  0
   -1.9839    2.8981   -7.3772 H   0  0  0  0  0  0  0  0  0  0  0  0
   -2.0962    4.4202   -8.2549 H   0  0  0  0  0  0  0  0  0  0  0  0
   -3.0091    0.1513    8.0508 H   0  0  0  0  0  0  0  0  0  0  0  0
   -2.7492   -0.4912    9.6865 H   0  0  0  0  0  0  0  0  0  0  0  0
   -0.2973   -0.1485    9.4545 H   0  0  0  0  0  0  0  0  0  0  0  0
   -0.5197    0.4961    7.8238 H   0  0  0  0  0  0  0  0  0  0  0  0
   -1.1688    1.3724    9.2113 H   0  0  0  0  0  0  0  0  0  0  0  0
   -1.4867   -1.5056   -1.8117 H   0  0  0  0  0  0  0  0  0  0  0  0
   -2.4618   -1.4555   -0.3158 H   0  0  0  0  0  0  0  0  0  0  0  0
   -3.2485   -0.1844   -2.9695 H   0  0  0  0  0  0  0  0  0  0  0  0
   -4.1452   -0.0256   -1.4543 H   0  0  0  0  0  0  0  0  0  0  0  0
   -3.9608   -1.6088   -2.2174 H   0  0  0  0  0  0  0  0  0  0  0  0
   -0.6770   -2.7257    2.4116 H   0  0  0  0  0  0  0  0  0  0  0  0
   -1.3533   -2.4734    0.8097 H   0  0  0  0  0  0  0  0  0  0  0  0
    1.1194   -1.0590    1.9327 H   0  0  0  0  0  0  0  0  0  0  0  0
    1.1299   -2.3928    0.7760 H   0  0  0  0  0  0  0  0  0  0  0  0
    0.4752   -0.8222    0.3064 H   0  0  0  0  0  0  0  0  0  0  0  0
   -0.9824   -5.2387    6.8676 H   0  0  0  0  0  0  0  0  0  0  0  0
   -5.6124   -3.8481   10.8474 H   0  0  0  0  0  0  0  0  0  0  0  0
   -4.3358   -7.2168   13.1801 H   0  0  0  0  0  0  0  0  0  0  0  0
   -2.4135   -7.5656   11.6966 H   0  0  0  0  0  0  0  0  0  0  0  0
  1  2  2  0  0  0  0
  2  3  1  0  0  0  0
  3  4  2  0  0  0  0
  3  5  1  0  0  0  0
  5  6  2  0  0  0  0
  6  7  1  0  0  0  0
  7  8  2  0  0  0  0
  8  9  1  0  0  0  0
  9 10  2  0  0  0  0
 10 11  1  0  0  0  0
 11 12  2  0  0  0  0
 12 13  1  0  0  0  0
 13 14  3  0  0  0  0
 12 15  1  0  0  0  0
 15 16  3  0  0  0  0
  8 17  1  0  0  0  0
 17 18  1  0  0  0  0
 18 19  1  0  0  0  0
 19 20  2  0  0  0  0
 20 21  1  0  0  0  0
 21 22  1  0  0  0  0
 21 23  1  0  0  0  0
  1 24  1  0  0  0  0
 24 25  2  0  0  0  0
 25 26  1  0  0  0  0
 26 27  1  0  0  0  0
 27 28  1  0  0  0  0
 25 29  1  0  0  0  0
 29 30  1  0  0  0  0
 30 31  1  0  0  0  0
 31 32  1  0  0  0  0
 32 33  1  0  0  0  0
 33 34  1  0  0  0  0
 34 35  2  0  0  0  0
 35 36  1  0  0  0  0
 36 37  1  0  0  0  0
 34 38  1  0  0  0  0
 38 39  1  0  0  0  0
 39 40  1  0  0  0  0
 40 41  1  0  0  0  0
 41 42  1  0  0  0  0
 42 43  1  0  0  0  0
 43 44  1  0  0  0  0
 44 45  1  0  0  0  0
 42 46  2  0  0  0  0
 46 47  1  0  0  0  0
 47 48  1  0  0  0  0
 48 49  1  0  0  0  0
 49 50  1  0  0  0  0
 50 51  1  0  0  0  0
 51 52  1  0  0  0  0
 52 53  1  0  0  0  0
 53 54  1  0  0  0  0
 54 55  1  0  0  0  0
 55 56  1  0  0  0  0
 53 57  1  0  0  0  0
 57 58  1  0  0  0  0
 50 59  1  0  0  0  0
 59 60  1  0  0  0  0
 46 61  1  0  0  0  0
 61 62  2  0  0  0  0
 62 63  1  0  0  0  0
 63 64  2  0  0  0  0
 63 65  1  0  0  0  0
 65 66  2  0  0  0  0
 66 67  1  0  0  0  0
 67 68  1  0  0  0  0
 68 69  1  0  0  0  0
 68 70  1  0  0  0  0
 68 71  1  0  0  0  0
 67 72  2  0  0  0  0
 72 73  1  0  0  0  0
 73 74  2  0  0  0  0
 74 75  1  0  0  0  0
 75 76  2  0  0  0  0
 76 77  1  0  0  0  0
 77 78  3  0  0  0  0
 76 79  1  0  0  0  0
 79 80  3  0  0  0  0
 11  2  1  0  0  0  0
 23 17  1  0  0  0  0
 56 24  1  0  0  0  0
 75 62  1  0  0  0  0
 10  5  1  0  0  0  0
 22 18  1  0  0  0  0
 55 29  2  0  0  0  0
 74 65  1  0  0  0  0
 23  7  1  0  0  0  0
 54 31  2  0  0  0  0
 52 32  2  0  0  0  0
 37 33  2  0  0  0  0
 51 38  2  0  0  0  0
 49 39  2  0  0  0  0
 48 41  2  0  0  0  0
  1 81  1  0  0  0  0
  6 82  1  0  0  0  0
  9 83  1  0  0  0  0
 17 84  1  0  0  0  0
 18 85  1  0  0  0  0
 19 86  1  0  0  0  0
 20 87  1  0  0  0  0
 21 88  1  0  0  0  0
 22 89  1  0  0  0  0
 22 90  1  0  0  0  0
 23 91  1  0  0  0  0
 27 92  1  0  0  0  0
 27 93  1  0  0  0  0
 28 94  1  0  0  0  0
 28 95  1  0  0  0  0
 28 96  1  0  0  0  0
 44 97  1  0  0  0  0
 44 98  1  0  0  0  0
 45 99  1  0  0  0  0
 45100  1  0  0  0  0
 45101  1  0  0  0  0
 57102  1  0  0  0  0
 57103  1  0  0  0  0
 58104  1  0  0  0  0
 58105  1  0  0  0  0
 58106  1  0  0  0  0
 59107  1  0  0  0  0
 59108  1  0  0  0  0
 60109  1  0  0  0  0
 60110  1  0  0  0  0
 60111  1  0  0  0  0
 61112  1  0  0  0  0
 66113  1  0  0  0  0
 72114  1  0  0  0  0
 73115  1  0  0  0  0
M  END
