97

C         -2.22650       -0.72390       -4.92210
C         -2.12090        0.58790       -5.27210
C         -1.22710        1.61390       -4.67580
O         -0.63870        1.59310       -3.61500
C         -1.13810        2.69200       -5.68010
C         -0.33420        3.82820       -5.60460
C         -0.43800        4.65940       -6.69300
C         -1.27980        4.38380       -7.77960
C         -2.08230        3.27140       -7.86400
C         -1.99060        2.41050       -6.76480
C         -2.67070        1.14880       -6.49790
C         -3.70510        0.62600       -7.22760
C         -4.22540        1.20800       -8.40220
N         -4.68910        1.62350       -9.36690
C         -4.42750       -0.53770       -6.88570
N         -5.08040       -1.45690       -6.66710
C         -0.86760        5.63340       -8.51790
C          0.12820        5.45000       -9.68260
C          0.70640        6.83200       -9.88570
C          1.50320        7.09150       -8.85690
C          1.47610        5.88950       -7.94050
C          1.30970        4.77120       -8.97750
C          0.06970        5.94050       -7.30620
C         -1.72910       -1.39660       -3.75860
C         -1.39660       -2.76480       -3.88730
C         -0.84310       -3.48710       -2.85890
C         -0.63370       -2.84000       -1.64210
N         -0.07360       -3.29900       -0.48710
C          0.40280       -4.63670       -0.25210
C         -0.69790       -5.53170        0.31510
C         -0.10930       -2.29280        0.45750
C         -0.71370       -1.14040       -0.11530
C         -1.03570       -1.48910       -1.47040
C         -1.58060       -0.77320       -2.51640
C         -0.87310        0.03440        0.60420
C         -0.40490        0.02360        1.90520
C          0.21820       -1.12070        2.47060
C          0.36780       -2.29910        1.75710
C          0.61490       -0.74380        3.80010
C          1.29120       -1.41520        4.79220
C          1.57630       -0.75300        5.99660
C          1.11870        0.58180        6.16260
C          0.44710        1.26300        5.18090
C          0.19590        0.60440        3.97560
N         -0.42650        1.03690        2.84920
C         -0.94440        2.36010        2.61960
C          0.10140        3.26760        1.97420
C          2.29600       -1.31310        7.08890
C          3.01220       -2.46800        7.27670
C          3.37980       -3.53490        6.31960
O          2.96020       -3.74600        5.20090
C          4.40620       -4.35100        7.00580
C          5.14270       -5.42390        6.52600
Cl         4.92450       -6.01590        4.93300
C          6.08180       -6.02370        7.36000
C          6.25870       -5.53700        8.64460
Br         7.55610       -6.35980        9.75540
C          5.52660       -4.46860        9.15050
C          4.59210       -3.88030        8.31660
C          3.67800       -2.75930        8.53680
C          3.46240       -2.16410        9.75230
C          2.52430       -1.14630       10.03300
N          1.78470       -0.33590       10.37380
C          4.13500       -2.52140       10.94090
N          4.64320       -2.75700       11.94290
H         -2.68440       -1.38280       -5.65230
H          0.29900        4.00190       -4.74860
H         -2.72300        3.07050       -8.70630
H         -1.66810        6.33370       -8.74830
H         -0.28280        4.95780      -10.55970
H          0.44210        7.47900      -10.70140
H          2.03730        7.99820       -8.64120
H          2.29340        5.79670       -7.23030
H          1.07220        3.79950       -8.54840
H          2.17880        4.67970       -9.62680
H         -0.10440        6.84700       -6.72930
H         -1.55890       -3.24520       -4.84120
H         -0.58210       -4.52500       -2.99820
H          1.24270       -4.58760        0.44560
H          0.76960       -5.04420       -1.19750
H         -0.31510       -6.53480        0.48080
H         -1.53510       -5.58570       -0.37710
H         -1.05720       -5.13380        1.26110
H         -1.90060        0.24320       -2.37010
H         -1.32640        0.90040        0.15010
H          0.84090       -3.15740        2.20580
H          1.60630       -2.43210        4.63980
H          1.32130        1.08090        7.09910
H          0.13100        2.28240        5.34180
H         -1.26590        2.77700        3.57720
H         -1.82160        2.27880        1.97210
H          0.97360        3.35570        2.61800
H         -0.31470        4.25780        1.81080
H          0.41780        2.85870        1.01770
H          2.30920       -0.64930        7.94630
H          6.66640       -6.85690        7.00400
H          5.70240       -4.12330       10.15560
