98

C          2.41120       -3.58500        1.03060
C          2.69460       -4.85350        0.60950
C          3.38730       -5.77560        1.54930
O          3.89850       -5.48030        2.60730
C          3.27870       -7.11540        0.94050
C          3.70380       -8.32650        1.48280
C          3.45770       -9.41610        0.68200
C          2.83180       -9.31240       -0.56700
C          2.41630       -8.12360       -1.11910
C          2.66040       -7.00270       -0.32160
C          2.41030       -5.58700       -0.59400
C          2.17150       -5.05060       -1.83640
C          1.88370       -5.80190       -2.99120
N          1.60340       -6.35230       -3.95980
C          2.25010       -3.67410       -2.11240
N          2.32340       -2.55780       -2.37350
C          2.90000      -10.79880       -0.81510
C          1.59550      -11.59670       -0.60680
C          2.06710      -13.02430       -0.44980
C          2.66470      -13.12420        0.73070
C          2.60650      -11.76590        1.39170
C          1.25910      -11.26770        0.85340
C          3.60220      -10.91470        0.57580
C          1.49630       -2.63640        0.54350
C          0.35020       -2.80240       -0.24790
O          0.00960       -4.03940       -0.63300
C         -1.25080       -4.27110       -1.24660
C         -2.38810       -4.27080       -0.23420
C         -0.29330       -1.57590       -0.50020
S         -1.69300       -1.09900       -1.44950
C         -1.38240        0.55140       -1.05400
C         -1.87750        1.82700       -1.35770
C         -2.91390        2.22360       -2.23010
C         -3.11550        3.62100       -2.46870
N         -4.08090        3.85200       -3.34500
S         -4.68700        2.42970       -3.82440
N         -3.74070        1.46540       -2.93340
C         -2.33700        4.55180       -1.74780
C         -2.38290        5.95260       -1.72390
S         -3.22670        7.24510       -2.49540
C         -2.33990        8.39470       -1.50580
C         -2.32810        9.80200       -1.40900
O         -3.11340       10.69860       -2.00820
C         -3.85730       10.34400       -3.16530
C         -2.96660       10.20480       -4.39160
C         -1.40780       10.24580       -0.45190
S         -0.60790        8.90500        0.35940
C         -1.45190        7.76870       -0.62180
C         -1.47420        6.37500       -0.75170
N         -0.84850        5.29260       -0.19380
C         -1.35260        4.15170       -0.79860
C         -1.05310        2.76670       -0.67330
N         -0.07500        2.06320        0.01170
C         -0.26930        0.73050       -0.23070
C          0.35250       -0.48240        0.08930
S          1.72600       -0.96070        1.00930
C          1.19160        2.50360        0.55310
C          2.06910        3.13500       -0.52460
C         -0.12790        5.45170        1.04980
C         -0.89430        4.84290        2.22140
C         -1.05980       11.55000       -0.04630
C         -1.28860       12.74130       -0.67520
C         -0.86910       13.93390       -0.04430
N         -0.53160       14.89830        0.47740
C         -1.82430       12.95260       -1.96030
N         -2.17430       13.22340       -3.02000
H          2.95190       -3.28360        1.92450
H          4.18690       -8.36290        2.44670
H          1.93940       -8.05630       -2.08300
H          3.44880      -11.10580       -1.70340
H          0.82630      -11.41460       -1.35240
H          1.97110      -13.77500       -1.21210
H          3.16750      -13.97520        1.15140
H          2.75760      -11.73860        2.46750
H          1.07110      -10.21170        1.03850
H          0.42330      -11.85770        1.22630
H          4.62060      -11.29700        0.61350
H         -1.43070       -3.54020       -2.04110
H         -1.14660       -5.26080       -1.69980
H         -3.31740       -4.52120       -0.73650
H         -2.49530       -3.29290        0.22820
H         -2.19420       -5.00670        0.54270
H         -4.43220        9.42860       -2.98540
H         -4.54540       11.18200       -3.29470
H         -2.41670       11.13020       -4.54350
H         -3.58170       10.00650       -5.26390
H         -2.26030        9.38680       -4.26880
H          1.68880        1.61210        0.94260
H          1.03560        3.17600        1.39620
H          3.00790        3.46730       -0.09020
H          2.28700        2.40300       -1.29860
H          1.57440        3.98450       -0.99020
H         -0.02100        6.52700        1.21140
H          0.87820        5.04090        0.96670
H         -1.85020        5.34730        2.34160
H         -1.08810        3.78500        2.05980
H         -0.32390        4.96110        3.13860
H         -0.50340       11.60320        0.88370
