97

C         -1.08500       -5.88460       -1.56270
C          0.23330       -6.20090       -1.52900
C          0.74280       -7.31840       -2.37060
O          0.08310       -8.17640       -2.91240
C          2.20290       -7.11620       -2.44730
C          3.11290       -7.82920       -3.22590
C          4.41100       -7.39350       -3.11100
C          4.78190       -6.31910       -2.29050
C          3.89810       -5.60980       -1.51330
C          2.57230       -6.04460       -1.60720
C          1.38210       -5.57330       -0.90440
C          1.38240       -4.86670        0.27000
C          0.23780       -4.68510        1.07540
N         -0.63660       -4.56080        1.80830
C          2.52410       -4.27100        0.83930
N          3.40760       -3.71640        1.32050
C          6.23830       -6.43040       -2.66670
C          7.16760       -7.09110       -1.62650
C          8.38120       -7.49640       -2.43150
C          8.03080       -8.51720       -3.20350
C          6.57430       -8.81890       -2.93350
C          6.50320       -8.46180       -1.44320
C          5.82590       -7.63180       -3.57660
C         -1.73740       -4.67990       -1.13350
C         -3.10260       -4.72990       -0.78730
C         -3.78310       -3.62660       -0.32940
C         -3.09280       -2.42140       -0.23090
N         -3.51770       -1.19500        0.18870
C         -4.81550       -0.90080        0.73770
C         -4.85400       -1.14790        2.24460
C         -2.45710       -0.31330        0.13830
C         -1.31660       -0.98790       -0.37700
C         -1.72940       -2.34060       -0.61880
C         -1.06310       -3.45710       -1.07640
C         -0.09250       -0.35050       -0.51290
C         -0.04550        0.97840       -0.13390
C         -1.18970        1.66020        0.36110
C         -2.41040        1.02000        0.50810
C         -0.76110        3.00400        0.64160
C         -1.40560        4.11880        1.12570
C         -0.70030        5.32830        1.25460
C          0.68190        5.34920        0.96400
C          1.34580        4.23690        0.50910
C          0.62350        3.06020        0.31480
N          1.02680        1.85140       -0.15810
C          2.37070        1.48910       -0.52640
C          3.12550        0.86690        0.64730
C         -1.43030        6.45810        1.72890
C         -1.20200        7.79960        1.58850
C         -0.28370        8.46440        0.63570
O          0.56270        7.97870       -0.08190
C         -0.65930        9.89850        0.66460
C         -0.13050       10.92800       -0.08840
C         -0.65500       12.19610        0.09930
F         -0.17300       13.22570       -0.60870
C         -1.68360       12.41080        1.01730
F         -2.17770       13.64500        1.17170
C         -2.21340       11.37660        1.77390
C         -1.69090       10.10480        1.59310
C         -2.01930        8.82450        2.21570
C         -2.89230        8.65640        3.25850
C         -3.15110        7.44030        3.92680
N         -3.41310        6.50440        4.53860
C         -3.64450        9.70260        3.83370
N         -4.28780       10.50710        4.34020
H         -1.71880       -6.63340       -2.02810
H          2.78680       -8.64600       -3.85020
H          4.19150       -4.78000       -0.89130
H          6.67790       -5.55070       -3.13310
H          7.34660       -6.49740       -0.73440
H          9.32310       -6.98090       -2.39810
H          8.62150       -9.02440       -3.94360
H          6.21430       -9.79970       -3.23200
H          7.10430       -9.13150       -0.83070
H          5.49130       -8.41510       -1.04510
H          5.99250       -7.55490       -4.64950
H         -3.61350       -5.67890       -0.85310
H         -4.82150       -3.70560       -0.04690
H         -5.05450        0.14310        0.51910
H         -5.55400       -1.52970        0.23380
H         -4.13150       -0.51170        2.75010
H         -5.84490       -0.93140        2.63440
H         -4.60880       -2.18470        2.46170
H         -0.04090       -3.37810       -1.41440
H          0.77000       -0.88040       -0.88450
H         -3.26550        1.54440        0.90360
H         -2.45480        4.07850        1.37860
H          1.23640        6.25620        1.12840
H          2.40560        4.28290        0.31260
H          2.88680        2.38720       -0.87370
H          2.32170        0.78240       -1.35950
H          4.13640        0.60760        0.34560
H          2.62370       -0.03500        0.98960
H          3.17680        1.56850        1.47660
H         -2.34490        6.19140        2.24740
H          0.66220       10.75520       -0.79870
H         -3.01060       11.59440        2.46540
