
  xtb     02112207293D
 energy: -187.217920115819 gnorm: 0.000452284634 xtb: 6.4.1 (unknown)
106118  0     0  0            999 V2000
   -0.0646   -2.3886   -6.0050 C   0  0  0  0  0  0  0  0  0  0  0  0
   -0.1050   -1.1825   -6.6593 C   0  0  0  0  0  0  0  0  0  0  0  0
    0.0364    0.1302   -6.0305 C   0  0  0  0  0  0  0  0  0  0  0  0
    0.1391    0.3749   -4.8377 O   0  0  0  0  0  0  0  0  0  0  0  0
    0.0399    1.1160   -7.1246 C   0  0  0  0  0  0  0  0  0  0  0  0
    0.1737    2.4976   -7.0128 C   0  0  0  0  0  0  0  0  0  0  0  0
    0.1409    3.1619   -8.2155 C   0  0  0  0  0  0  0  0  0  0  0  0
   -0.0183    2.5004   -9.4398 C   0  0  0  0  0  0  0  0  0  0  0  0
   -0.1544    1.1378   -9.5637 C   0  0  0  0  0  0  0  0  0  0  0  0
   -0.1187    0.4419   -8.3529 C   0  0  0  0  0  0  0  0  0  0  0  0
   -0.2372   -0.9920   -8.0870 C   0  0  0  0  0  0  0  0  0  0  0  0
   -0.4755   -1.9584   -9.0315 C   0  0  0  0  0  0  0  0  0  0  0  0
   -0.6742   -3.3312   -8.7750 C   0  0  0  0  0  0  0  0  0  0  0  0
   -0.8728   -4.4579   -8.6664 N   0  0  0  0  0  0  0  0  0  0  0  0
   -0.5886   -1.7125  -10.4153 C   0  0  0  0  0  0  0  0  0  0  0  0
   -0.6828   -1.5942  -11.5539 N   0  0  0  0  0  0  0  0  0  0  0  0
    0.0477    3.7815  -10.2325 C   0  0  0  0  0  0  0  0  0  0  0  0
    1.3686    4.1030  -10.9740 C   0  0  0  0  0  0  0  0  0  0  0  0
    2.4679    3.4028  -10.2145 C   0  0  0  0  0  0  0  0  0  0  0  0
    2.6214    4.0290   -9.0554 C   0  0  0  0  0  0  0  0  0  0  0  0
    1.6285    5.1640   -9.0103 C   0  0  0  0  0  0  0  0  0  0  0  0
    1.5885    5.5479  -10.4981 C   0  0  0  0  0  0  0  0  0  0  0  0
    0.2274    4.5191   -8.8682 C   0  0  0  0  0  0  0  0  0  0  0  0
    0.0141   -2.6685   -4.6402 C   0  0  0  0  0  0  0  0  0  0  0  0
    0.0336   -4.0052   -4.1758 C   0  0  0  0  0  0  0  0  0  0  0  0
    0.0904   -4.9828   -5.0859 O   0  0  0  0  0  0  0  0  0  0  0  0
   -0.1796   -6.3240   -4.7063 C   0  0  0  0  0  0  0  0  0  0  0  0
   -1.6668   -6.5600   -4.4795 C   0  0  0  0  0  0  0  0  0  0  0  0
    0.0207   -4.0725   -2.7800 C   0  0  0  0  0  0  0  0  0  0  0  0
    0.0068   -5.3912   -1.6109 S   0  0  0  0  0  0  0  0  0  0  0  0
   -0.0304   -4.2293   -0.3363 C   0  0  0  0  0  0  0  0  0  0  0  0
   -0.1050   -4.1945    1.0611 C   0  0  0  0  0  0  0  0  0  0  0  0
   -0.2594   -5.2433    1.9932 C   0  0  0  0  0  0  0  0  0  0  0  0
   -0.4454   -4.9136    3.3737 C   0  0  0  0  0  0  0  0  0  0  0  0
   -0.6303   -5.9835    4.1311 N   0  0  0  0  0  0  0  0  0  0  0  0
   -0.5697   -7.2962    3.1840 S   0  0  0  0  0  0  0  0  0  0  0  0
   -0.3081   -6.5475    1.7721 N   0  0  0  0  0  0  0  0  0  0  0  0
   -0.3703   -3.5588    3.7623 C   0  0  0  0  0  0  0  0  0  0  0  0
   -0.4224   -2.9769    5.0354 C   0  0  0  0  0  0  0  0  0  0  0  0
   -0.6524   -3.4504    6.6785 S   0  0  0  0  0  0  0  0  0  0  0  0
   -0.4303   -1.7775    7.1758 C   0  0  0  0  0  0  0  0  0  0  0  0
   -0.4392   -1.1067    8.4116 C   0  0  0  0  0  0  0  0  0  0  0  0
   -0.6120   -1.5880    9.6501 O   0  0  0  0  0  0  0  0  0  0  0  0
   -1.0872   -2.9134    9.8302 C   0  0  0  0  0  0  0  0  0  0  0  0
   -2.5790   -3.0320    9.5460 C   0  0  0  0  0  0  0  0  0  0  0  0
   -0.1885    0.2655    8.2593 C   0  0  0  0  0  0  0  0  0  0  0  0
    0.0591    0.7124    6.5809 S   0  0  0  0  0  0  0  0  0  0  0  0
   -0.1797   -0.9232    6.0924 C   0  0  0  0  0  0  0  0  0  0  0  0
   -0.1826   -1.6114    4.8723 C   0  0  0  0  0  0  0  0  0  0  0  0
   -0.0140   -1.3222    3.5453 N   0  0  0  0  0  0  0  0  0  0  0  0
   -0.1332   -2.5044    2.8323 C   0  0  0  0  0  0  0  0  0  0  0  0
   -0.0955   -2.8202    1.4446 C   0  0  0  0  0  0  0  0  0  0  0  0
   -0.0410   -2.0553    0.2924 N   0  0  0  0  0  0  0  0  0  0  0  0
   -0.0120   -2.9048   -0.7804 C   0  0  0  0  0  0  0  0  0  0  0  0
    0.0078   -2.8040   -2.1776 C   0  0  0  0  0  0  0  0  0  0  0  0
    0.0254   -1.5104   -3.3219 S   0  0  0  0  0  0  0  0  0  0  0  0
   -0.3172   -0.6527    0.0757 C   0  0  0  0  0  0  0  0  0  0  0  0
   -1.7453   -0.2968    0.4815 C   0  0  0  0  0  0  0  0  0  0  0  0
    0.5634   -0.0509    3.1669 C   0  0  0  0  0  0  0  0  0  0  0  0
    2.0175   -0.2086    2.7300 C   0  0  0  0  0  0  0  0  0  0  0  0
   -0.1409    1.1818    9.3223 C   0  0  0  0  0  0  0  0  0  0  0  0
    0.1164    2.5211    9.2725 C   0  0  0  0  0  0  0  0  0  0  0  0
    0.3966    3.2236    8.0901 C   0  0  0  0  0  0  0  0  0  0  0  0
    0.6245    3.8050    7.1249 N   0  0  0  0  0  0  0  0  0  0  0  0
    0.1057    3.2886   10.5360 C   0  0  0  0  0  0  0  0  0  0  0  0
   -0.1580    2.8115   11.6143 O   0  0  0  0  0  0  0  0  0  0  0  0
    0.4385    4.5687   10.3329 O   0  0  0  0  0  0  0  0  0  0  0  0
    0.4507    5.4246   11.4729 C   0  0  0  0  0  0  0  0  0  0  0  0
   -0.9389    5.9689   11.7725 C   0  0  0  0  0  0  0  0  0  0  0  0
   -0.1014   -3.2874   -6.6084 H   0  0  0  0  0  0  0  0  0  0  0  0
    0.2903    2.9670   -6.0485 H   0  0  0  0  0  0  0  0  0  0  0  0
   -0.2759    0.6459  -10.5142 H   0  0  0  0  0  0  0  0  0  0  0  0
   -0.8310    4.0191  -10.8288 H   0  0  0  0  0  0  0  0  0  0  0  0
    1.3386    3.9271  -12.0460 H   0  0  0  0  0  0  0  0  0  0  0  0
    2.9654    2.5165  -10.5626 H   0  0  0  0  0  0  0  0  0  0  0  0
    3.2729    3.7701   -8.2413 H   0  0  0  0  0  0  0  0  0  0  0  0
    1.8361    5.9554   -8.2947 H   0  0  0  0  0  0  0  0  0  0  0  0
    2.5291    5.9688  -10.8500 H   0  0  0  0  0  0  0  0  0  0  0  0
    0.7679    6.2177  -10.7516 H   0  0  0  0  0  0  0  0  0  0  0  0
   -0.5333    5.2402   -8.5747 H   0  0  0  0  0  0  0  0  0  0  0  0
    0.4001   -6.5974   -3.8181 H   0  0  0  0  0  0  0  0  0  0  0  0
    0.1714   -6.9123   -5.5572 H   0  0  0  0  0  0  0  0  0  0  0  0
   -2.0271   -5.9742   -3.6372 H   0  0  0  0  0  0  0  0  0  0  0  0
   -1.8391   -7.6114   -4.2713 H   0  0  0  0  0  0  0  0  0  0  0  0
   -2.2235   -6.2771   -5.3696 H   0  0  0  0  0  0  0  0  0  0  0  0
   -0.5168   -3.6148    9.2120 H   0  0  0  0  0  0  0  0  0  0  0  0
   -0.8846   -3.1253   10.8830 H   0  0  0  0  0  0  0  0  0  0  0  0
   -3.1321   -2.3311   10.1664 H   0  0  0  0  0  0  0  0  0  0  0  0
   -2.7919   -2.8187    8.5015 H   0  0  0  0  0  0  0  0  0  0  0  0
   -2.9103   -4.0416    9.7686 H   0  0  0  0  0  0  0  0  0  0  0  0
    0.4164   -0.0337    0.5910 H   0  0  0  0  0  0  0  0  0  0  0  0
   -0.1936   -0.4734   -0.9948 H   0  0  0  0  0  0  0  0  0  0  0  0
   -1.9179    0.7652    0.3320 H   0  0  0  0  0  0  0  0  0  0  0  0
   -2.4525   -0.8504   -0.1315 H   0  0  0  0  0  0  0  0  0  0  0  0
   -1.9345   -0.5428    1.5242 H   0  0  0  0  0  0  0  0  0  0  0  0
    0.5226    0.5863    4.0534 H   0  0  0  0  0  0  0  0  0  0  0  0
   -0.0398    0.4320    2.3991 H   0  0  0  0  0  0  0  0  0  0  0  0
    2.4216    0.7564    2.4375 H   0  0  0  0  0  0  0  0  0  0  0  0
    2.6121   -0.5955    3.5543 H   0  0  0  0  0  0  0  0  0  0  0  0
    2.1074   -0.8985    1.8938 H   0  0  0  0  0  0  0  0  0  0  0  0
   -0.3331    0.7641   10.3040 H   0  0  0  0  0  0  0  0  0  0  0  0
    1.1419    6.2293   11.2142 H   0  0  0  0  0  0  0  0  0  0  0  0
    0.8322    4.8646   12.3336 H   0  0  0  0  0  0  0  0  0  0  0  0
   -1.6084    5.1532   12.0355 H   0  0  0  0  0  0  0  0  0  0  0  0
   -1.3346    6.4849   10.9009 H   0  0  0  0  0  0  0  0  0  0  0  0
   -0.8863    6.6638   12.6056 H   0  0  0  0  0  0  0  0  0  0  0  0
  1  2  2  0  0  0  0
  2  3  1  0  0  0  0
  3  4  2  0  0  0  0
  3  5  1  0  0  0  0
  5  6  2  0  0  0  0
  6  7  1  0  0  0  0
  7  8  2  0  0  0  0
  8  9  1  0  0  0  0
  9 10  2  0  0  0  0
 10 11  1  0  0  0  0
 11 12  2  0  0  0  0
 12 13  1  0  0  0  0
 13 14  3  0  0  0  0
 12 15  1  0  0  0  0
 15 16  3  0  0  0  0
  8 17  1  0  0  0  0
 17 18  1  0  0  0  0
 18 19  1  0  0  0  0
 19 20  2  0  0  0  0
 20 21  1  0  0  0  0
 21 22  1  0  0  0  0
 21 23  1  0  0  0  0
  1 24  1  0  0  0  0
 24 25  2  0  0  0  0
 25 26  1  0  0  0  0
 26 27  1  0  0  0  0
 27 28  1  0  0  0  0
 25 29  1  0  0  0  0
 29 30  1  0  0  0  0
 30 31  1  0  0  0  0
 31 32  1  0  0  0  0
 32 33  1  0  0  0  0
 33 34  1  0  0  0  0
 34 35  2  0  0  0  0
 35 36  1  0  0  0  0
 36 37  1  0  0  0  0
 34 38  1  0  0  0  0
 38 39  1  0  0  0  0
 39 40  1  0  0  0  0
 40 41  1  0  0  0  0
 41 42  1  0  0  0  0
 42 43  1  0  0  0  0
 43 44  1  0  0  0  0
 44 45  1  0  0  0  0
 42 46  2  0  0  0  0
 46 47  1  0  0  0  0
 47 48  1  0  0  0  0
 48 49  1  0  0  0  0
 49 50  1  0  0  0  0
 50 51  1  0  0  0  0
 51 52  1  0  0  0  0
 52 53  1  0  0  0  0
 53 54  1  0  0  0  0
 54 55  1  0  0  0  0
 55 56  1  0  0  0  0
 53 57  1  0  0  0  0
 57 58  1  0  0  0  0
 50 59  1  0  0  0  0
 59 60  1  0  0  0  0
 46 61  1  0  0  0  0
 61 62  2  0  0  0  0
 62 63  1  0  0  0  0
 63 64  3  0  0  0  0
 62 65  1  0  0  0  0
 65 66  2  0  0  0  0
 65 67  1  0  0  0  0
 67 68  1  0  0  0  0
 68 69  1  0  0  0  0
 11  2  1  0  0  0  0
 23 17  1  0  0  0  0
 56 24  1  0  0  0  0
 10  5  1  0  0  0  0
 22 18  1  0  0  0  0
 55 29  2  0  0  0  0
 23  7  1  0  0  0  0
 54 31  2  0  0  0  0
 52 32  2  0  0  0  0
 37 33  2  0  0  0  0
 51 38  2  0  0  0  0
 49 39  2  0  0  0  0
 48 41  2  0  0  0  0
  1 70  1  0  0  0  0
  6 71  1  0  0  0  0
  9 72  1  0  0  0  0
 17 73  1  0  0  0  0
 18 74  1  0  0  0  0
 19 75  1  0  0  0  0
 20 76  1  0  0  0  0
 21 77  1  0  0  0  0
 22 78  1  0  0  0  0
 22 79  1  0  0  0  0
 23 80  1  0  0  0  0
 27 81  1  0  0  0  0
 27 82  1  0  0  0  0
 28 83  1  0  0  0  0
 28 84  1  0  0  0  0
 28 85  1  0  0  0  0
 44 86  1  0  0  0  0
 44 87  1  0  0  0  0
 45 88  1  0  0  0  0
 45 89  1  0  0  0  0
 45 90  1  0  0  0  0
 57 91  1  0  0  0  0
 57 92  1  0  0  0  0
 58 93  1  0  0  0  0
 58 94  1  0  0  0  0
 58 95  1  0  0  0  0
 59 96  1  0  0  0  0
 59 97  1  0  0  0  0
 60 98  1  0  0  0  0
 60 99  1  0  0  0  0
 60100  1  0  0  0  0
 61101  1  0  0  0  0
 68102  1  0  0  0  0
 68103  1  0  0  0  0
 69104  1  0  0  0  0
 69105  1  0  0  0  0
 69106  1  0  0  0  0
M  END
