94

C          4.76230       -0.07510       -1.57430
C          4.27680       -0.58460       -2.74070
C          2.88310       -0.49470       -3.24720
O          1.86970       -0.20500       -2.64670
C          2.96960       -0.77510       -4.69430
C          1.92470       -0.71060       -5.61330
C          2.29290       -1.01460       -6.90120
C          3.60700       -1.35240       -7.25310
C          4.64760       -1.41540       -6.35780
C          4.29200       -1.11470       -5.03920
C          5.10780       -1.07010       -3.83140
C          6.40620       -1.49430       -3.72580
C          7.14910       -1.53640       -2.52650
N          7.81700       -1.62620       -1.59640
C          7.17010       -1.99610       -4.79970
N          7.84780       -2.40730       -5.63050
C          3.25450       -1.53480       -8.70820
C          3.10640       -2.98230       -9.23840
C          2.71210       -3.83380       -8.05720
C          1.46820       -3.51470       -7.72530
C          0.99940       -2.44060       -8.67550
C          1.74920       -2.86040       -9.94980
C          1.79080       -1.15880       -8.31600
C          4.04490        0.39500       -0.42660
C          4.64610        1.40570        0.35780
C          4.02090        1.96010        1.44760
C          2.76350        1.47300        1.80100
N          1.93350        1.83790        2.81860
C          2.16000        2.91100        3.75070
C          1.61780        4.23810        3.22260
C          0.78440        1.07360        2.75430
C          0.90430        0.14700        1.68310
C          2.17210        0.41320        1.06340
C          2.80550       -0.12290       -0.03830
C         -0.09990       -0.76320        1.38950
C         -1.22780       -0.70980        2.18780
C         -1.35590        0.23020        3.24530
C         -0.34890        1.13390        3.54620
C         -2.65380        0.00950        3.82180
C         -3.33610        0.63440        4.84180
C         -4.62740        0.19830        5.16850
C         -5.17650       -0.89760        4.45330
C         -4.50870       -1.52740        3.43390
C         -3.23650       -1.06500        3.09650
N         -2.38160       -1.47130        2.12000
C         -2.59220       -2.56540        1.20950
C         -2.02230       -3.87120        1.76170
C         -5.46440        0.78020        6.16720
C         -5.36720        1.85890        7.00100
C         -4.27570        2.85900        7.17550
O         -3.17820        2.90900        6.65700
C         -4.80810        3.80850        8.14770
S         -4.24810        5.24280        8.88950
C         -5.72640        5.36400        9.77000
C         -6.60790        4.35650        9.51370
C         -6.07790        3.45170        8.57170
C         -6.46450        2.23000        7.89540
C         -7.65940        1.59340        8.11030
C         -8.11730        0.39780        7.52100
N         -8.58340       -0.56740        7.10550
C         -8.61530        2.11000        9.01170
N         -9.40910        2.50740        9.73890
H          5.83710        0.05810       -1.51270
H          0.92830       -0.44030       -5.30010
H          5.65560       -1.66490       -6.64460
H          3.77670       -0.88760       -9.41010
H          3.94990       -3.33650       -9.82460
H          3.37750       -4.51790       -7.56400
H          0.88630       -3.87880       -6.89890
H         -0.07600       -2.30120       -8.75030
H          1.39770       -3.80930      -10.35220
H          1.73540       -2.10170      -10.73110
H          1.35760       -0.26510       -8.76140
H          5.61840        1.77340        0.06360
H          4.49630        2.75170        2.00660
H          3.23480        2.98960        3.93390
H          1.67180        2.65610        4.69480
H          0.54710        4.16440        3.04770
H          1.80030        5.02960        3.94410
H          2.10380        4.49830        2.28500
H          2.35980       -0.94130       -0.57560
H          0.00940       -1.45840        0.57320
H         -0.46830        1.84180        4.35040
H         -2.88410        1.45230        5.37440
H         -6.16480       -1.24280        4.72090
H         -4.96420       -2.35540        2.91240
H         -2.11400       -2.31940        0.25770
H         -3.66600       -2.66850        1.03410
H         -2.19270       -4.68090        1.05750
H         -2.50000       -4.12190        2.70600
H         -0.95260       -3.77400        1.93160
H         -6.40560        0.24940        6.25720
H         -5.86230        6.18970       10.44070
H         -7.57400        4.27910        9.97600
