
  xtb     02112207123D
 energy: -210.071336785711 gnorm: 0.000873007279 xtb: 6.4.1 (unknown)
118133  0     0  0            999 V2000
   -2.3099    0.8125    6.7193 C   0  0  0  0  0  0  0  0  0  0  0  0
   -1.1914    1.4565    7.1802 C   0  0  0  0  0  0  0  0  0  0  0  0
   -0.0807    1.9406    6.3558 C   0  0  0  0  0  0  0  0  0  0  0  0
    0.0841    1.7687    5.1585 O   0  0  0  0  0  0  0  0  0  0  0  0
    0.8017    2.7006    7.2567 C   0  0  0  0  0  0  0  0  0  0  0  0
    1.9762    3.3679    6.9176 C   0  0  0  0  0  0  0  0  0  0  0  0
    2.5880    3.9962    7.9757 C   0  0  0  0  0  0  0  0  0  0  0  0
    2.0701    3.9631    9.2772 C   0  0  0  0  0  0  0  0  0  0  0  0
    0.9141    3.3056    9.6260 C   0  0  0  0  0  0  0  0  0  0  0  0
    0.2758    2.6591    8.5646 C   0  0  0  0  0  0  0  0  0  0  0  0
   -0.9388    1.8457    8.5524 C   0  0  0  0  0  0  0  0  0  0  0  0
   -1.6489    1.4583    9.6601 C   0  0  0  0  0  0  0  0  0  0  0  0
   -2.7222    0.5433    9.6590 C   0  0  0  0  0  0  0  0  0  0  0  0
   -3.5698   -0.2274    9.7486 N   0  0  0  0  0  0  0  0  0  0  0  0
   -1.3674    1.8771   10.9769 C   0  0  0  0  0  0  0  0  0  0  0  0
   -1.2044    2.1840   12.0714 N   0  0  0  0  0  0  0  0  0  0  0  0
    3.1907    4.8067    9.8308 C   0  0  0  0  0  0  0  0  0  0  0  0
    2.8956    6.2982   10.1246 C   0  0  0  0  0  0  0  0  0  0  0  0
    1.7762    6.7036    9.1982 C   0  0  0  0  0  0  0  0  0  0  0  0
    2.2633    6.7369    7.9651 C   0  0  0  0  0  0  0  0  0  0  0  0
    3.7213    6.3552    8.0353 C   0  0  0  0  0  0  0  0  0  0  0  0
    4.0900    6.9456    9.4057 C   0  0  0  0  0  0  0  0  0  0  0  0
    3.7666    4.8458    8.3801 C   0  0  0  0  0  0  0  0  0  0  0  0
   -2.6259    0.3559    5.4340 C   0  0  0  0  0  0  0  0  0  0  0  0
   -3.8362   -0.3198    5.1745 C   0  0  0  0  0  0  0  0  0  0  0  0
   -4.7920   -0.4898    6.1215 O   0  0  0  0  0  0  0  0  0  0  0  0
   -4.7074   -1.6680    6.9267 C   0  0  0  0  0  0  0  0  0  0  0  0
   -4.9887   -2.9439    6.1467 C   0  0  0  0  0  0  0  0  0  0  0  0
   -3.9444   -0.7059    3.8403 C   0  0  0  0  0  0  0  0  0  0  0  0
   -5.1834   -1.5525    2.9361 S   0  0  0  0  0  0  0  0  0  0  0  0
   -4.2038   -1.4001    1.5204 C   0  0  0  0  0  0  0  0  0  0  0  0
   -4.2655   -1.7033    0.1545 C   0  0  0  0  0  0  0  0  0  0  0  0
   -5.3117   -2.2448   -0.6244 C   0  0  0  0  0  0  0  0  0  0  0  0
   -5.1563   -2.2976   -2.0480 C   0  0  0  0  0  0  0  0  0  0  0  0
   -6.2336   -2.7657   -2.6589 N   0  0  0  0  0  0  0  0  0  0  0  0
   -7.3457   -3.1170   -1.5357 S   0  0  0  0  0  0  0  0  0  0  0  0
   -6.4969   -2.6819   -0.2289 N   0  0  0  0  0  0  0  0  0  0  0  0
   -3.9190   -1.9169   -2.6117 C   0  0  0  0  0  0  0  0  0  0  0  0
   -3.4587   -1.9767   -3.9349 C   0  0  0  0  0  0  0  0  0  0  0  0
   -4.0266   -2.4251   -5.5010 S   0  0  0  0  0  0  0  0  0  0  0  0
   -2.4220   -2.1303   -6.1554 C   0  0  0  0  0  0  0  0  0  0  0  0
   -1.8328   -2.2564   -7.4280 C   0  0  0  0  0  0  0  0  0  0  0  0
   -2.3778   -2.6260   -8.5914 O   0  0  0  0  0  0  0  0  0  0  0  0
   -3.6308   -3.2954   -8.5941 C   0  0  0  0  0  0  0  0  0  0  0  0
   -3.5039   -4.7333   -8.1090 C   0  0  0  0  0  0  0  0  0  0  0  0
   -0.4679   -1.9391   -7.4021 C   0  0  0  0  0  0  0  0  0  0  0  0
    0.0488   -1.3922   -5.8164 S   0  0  0  0  0  0  0  0  0  0  0  0
   -1.5233   -1.6832   -5.1787 C   0  0  0  0  0  0  0  0  0  0  0  0
   -2.1149   -1.5965   -3.9163 C   0  0  0  0  0  0  0  0  0  0  0  0
   -1.7273   -1.2837   -2.6391 N   0  0  0  0  0  0  0  0  0  0  0  0
   -2.8279   -1.4639   -1.8145 C   0  0  0  0  0  0  0  0  0  0  0  0
   -3.0468   -1.2429   -0.4285 C   0  0  0  0  0  0  0  0  0  0  0  0
   -2.2990   -0.6351    0.5599 N   0  0  0  0  0  0  0  0  0  0  0  0
   -2.9891   -0.7379    1.7383 C   0  0  0  0  0  0  0  0  0  0  0  0
   -2.8324   -0.3305    3.0668 C   0  0  0  0  0  0  0  0  0  0  0  0
   -1.6386    0.5076    3.9927 S   0  0  0  0  0  0  0  0  0  0  0  0
   -1.1653    0.2577    0.4738 C   0  0  0  0  0  0  0  0  0  0  0  0
    0.1094   -0.3765    1.0313 C   0  0  0  0  0  0  0  0  0  0  0  0
   -0.3118   -1.3598   -2.3406 C   0  0  0  0  0  0  0  0  0  0  0  0
    0.1584   -2.8120   -2.2717 C   0  0  0  0  0  0  0  0  0  0  0  0
    0.3860   -1.9793   -8.5192 C   0  0  0  0  0  0  0  0  0  0  0  0
    1.7497   -1.9841   -8.5468 C   0  0  0  0  0  0  0  0  0  0  0  0
    2.4771   -1.5551   -9.7675 C   0  0  0  0  0  0  0  0  0  0  0  0
    2.0030   -1.4100  -10.8741 O   0  0  0  0  0  0  0  0  0  0  0  0
    3.8616   -1.2987   -9.3184 C   0  0  0  0  0  0  0  0  0  0  0  0
    3.9913   -1.6662   -7.9794 C   0  0  0  0  0  0  0  0  0  0  0  0
    5.2083   -1.5006   -7.3068 C   0  0  0  0  0  0  0  0  0  0  0  0
    6.2703   -0.9681   -7.9903 C   0  0  0  0  0  0  0  0  0  0  0  0
    6.1762   -0.5954   -9.3490 C   0  0  0  0  0  0  0  0  0  0  0  0
    7.2765   -0.0588  -10.0483 C   0  0  0  0  0  0  0  0  0  0  0  0
    7.1624    0.2926  -11.3650 C   0  0  0  0  0  0  0  0  0  0  0  0
    5.9450    0.1247  -12.0446 C   0  0  0  0  0  0  0  0  0  0  0  0
    4.8545   -0.3908  -11.4009 C   0  0  0  0  0  0  0  0  0  0  0  0
    4.9423   -0.7617  -10.0433 C   0  0  0  0  0  0  0  0  0  0  0  0
    2.7294   -2.2396   -7.5194 C   0  0  0  0  0  0  0  0  0  0  0  0
    2.5837   -3.1003   -6.4595 C   0  0  0  0  0  0  0  0  0  0  0  0
    1.4403   -3.9032   -6.2689 C   0  0  0  0  0  0  0  0  0  0  0  0
    0.5540   -4.6156   -6.1052 N   0  0  0  0  0  0  0  0  0  0  0  0
    3.5719   -3.3466   -5.4887 C   0  0  0  0  0  0  0  0  0  0  0  0
    4.3175   -3.5588   -4.6411 N   0  0  0  0  0  0  0  0  0  0  0  0
   -3.1016    0.6199    7.4342 H   0  0  0  0  0  0  0  0  0  0  0  0
    2.3420    3.3653    5.9027 H   0  0  0  0  0  0  0  0  0  0  0  0
    0.5292    3.2908   10.6319 H   0  0  0  0  0  0  0  0  0  0  0  0
    3.7958    4.3426   10.6071 H   0  0  0  0  0  0  0  0  0  0  0  0
    2.7569    6.5320   11.1766 H   0  0  0  0  0  0  0  0  0  0  0  0
    0.7630    6.8635    9.5177 H   0  0  0  0  0  0  0  0  0  0  0  0
    1.7380    6.9298    7.0480 H   0  0  0  0  0  0  0  0  0  0  0  0
    4.3343    6.6426    7.1850 H   0  0  0  0  0  0  0  0  0  0  0  0
    4.0508    8.0337    9.4200 H   0  0  0  0  0  0  0  0  0  0  0  0
    5.0559    6.6073    9.7783 H   0  0  0  0  0  0  0  0  0  0  0  0
    4.7498    4.4111    8.2101 H   0  0  0  0  0  0  0  0  0  0  0  0
   -5.4623   -1.5098    7.6985 H   0  0  0  0  0  0  0  0  0  0  0  0
   -3.7218   -1.7229    7.4063 H   0  0  0  0  0  0  0  0  0  0  0  0
   -5.9362   -2.8610    5.6200 H   0  0  0  0  0  0  0  0  0  0  0  0
   -4.2020   -3.1374    5.4203 H   0  0  0  0  0  0  0  0  0  0  0  0
   -5.0384   -3.7814    6.8367 H   0  0  0  0  0  0  0  0  0  0  0  0
   -3.9409   -3.2712   -9.6416 H   0  0  0  0  0  0  0  0  0  0  0  0
   -4.3638   -2.7439   -7.9951 H   0  0  0  0  0  0  0  0  0  0  0  0
   -3.1686   -4.7639   -7.0753 H   0  0  0  0  0  0  0  0  0  0  0  0
   -4.4684   -5.2269   -8.1790 H   0  0  0  0  0  0  0  0  0  0  0  0
   -2.7827   -5.2692   -8.7211 H   0  0  0  0  0  0  0  0  0  0  0  0
   -1.3997    1.1431    1.0746 H   0  0  0  0  0  0  0  0  0  0  0  0
   -1.0514    0.5855   -0.5607 H   0  0  0  0  0  0  0  0  0  0  0  0
    0.9644    0.2546    0.8057 H   0  0  0  0  0  0  0  0  0  0  0  0
    0.0332   -0.4696    2.1109 H   0  0  0  0  0  0  0  0  0  0  0  0
    0.2792   -1.3674    0.6164 H   0  0  0  0  0  0  0  0  0  0  0  0
   -0.0867   -0.8626   -1.4060 H   0  0  0  0  0  0  0  0  0  0  0  0
    0.2137   -0.8400   -3.1472 H   0  0  0  0  0  0  0  0  0  0  0  0
    1.2254   -2.8423   -2.0694 H   0  0  0  0  0  0  0  0  0  0  0  0
   -0.0255   -3.3245   -3.2129 H   0  0  0  0  0  0  0  0  0  0  0  0
   -0.3658   -3.3435   -1.4799 H   0  0  0  0  0  0  0  0  0  0  0  0
   -0.1124   -1.9370   -9.4822 H   0  0  0  0  0  0  0  0  0  0  0  0
    5.3056   -1.7740   -6.2685 H   0  0  0  0  0  0  0  0  0  0  0  0
    7.2151   -0.8255   -7.4855 H   0  0  0  0  0  0  0  0  0  0  0  0
    8.2128    0.0679   -9.5238 H   0  0  0  0  0  0  0  0  0  0  0  0
    8.0108    0.7029  -11.8928 H   0  0  0  0  0  0  0  0  0  0  0  0
    5.8772    0.4083  -13.0844 H   0  0  0  0  0  0  0  0  0  0  0  0
    3.9135   -0.5234  -11.9111 H   0  0  0  0  0  0  0  0  0  0  0  0
  1  2  2  0  0  0  0
  2  3  1  0  0  0  0
  3  4  2  0  0  0  0
  3  5  1  0  0  0  0
  5  6  2  0  0  0  0
  6  7  1  0  0  0  0
  7  8  2  0  0  0  0
  8  9  1  0  0  0  0
  9 10  2  0  0  0  0
 10 11  1  0  0  0  0
 11 12  2  0  0  0  0
 12 13  1  0  0  0  0
 13 14  3  0  0  0  0
 12 15  1  0  0  0  0
 15 16  3  0  0  0  0
  8 17  1  0  0  0  0
 17 18  1  0  0  0  0
 18 19  1  0  0  0  0
 19 20  2  0  0  0  0
 20 21  1  0  0  0  0
 21 22  1  0  0  0  0
 21 23  1  0  0  0  0
  1 24  1  0  0  0  0
 24 25  2  0  0  0  0
 25 26  1  0  0  0  0
 26 27  1  0  0  0  0
 27 28  1  0  0  0  0
 25 29  1  0  0  0  0
 29 30  1  0  0  0  0
 30 31  1  0  0  0  0
 31 32  1  0  0  0  0
 32 33  1  0  0  0  0
 33 34  1  0  0  0  0
 34 35  2  0  0  0  0
 35 36  1  0  0  0  0
 36 37  1  0  0  0  0
 34 38  1  0  0  0  0
 38 39  1  0  0  0  0
 39 40  1  0  0  0  0
 40 41  1  0  0  0  0
 41 42  1  0  0  0  0
 42 43  1  0  0  0  0
 43 44  1  0  0  0  0
 44 45  1  0  0  0  0
 42 46  2  0  0  0  0
 46 47  1  0  0  0  0
 47 48  1  0  0  0  0
 48 49  1  0  0  0  0
 49 50  1  0  0  0  0
 50 51  1  0  0  0  0
 51 52  1  0  0  0  0
 52 53  1  0  0  0  0
 53 54  1  0  0  0  0
 54 55  1  0  0  0  0
 55 56  1  0  0  0  0
 53 57  1  0  0  0  0
 57 58  1  0  0  0  0
 50 59  1  0  0  0  0
 59 60  1  0  0  0  0
 46 61  1  0  0  0  0
 61 62  2  0  0  0  0
 62 63  1  0  0  0  0
 63 64  2  0  0  0  0
 63 65  1  0  0  0  0
 65 66  2  0  0  0  0
 66 67  1  0  0  0  0
 67 68  2  0  0  0  0
 68 69  1  0  0  0  0
 69 70  2  0  0  0  0
 70 71  1  0  0  0  0
 71 72  2  0  0  0  0
 72 73  1  0  0  0  0
 73 74  2  0  0  0  0
 66 75  1  0  0  0  0
 75 76  2  0  0  0  0
 76 77  1  0  0  0  0
 77 78  3  0  0  0  0
 76 79  1  0  0  0  0
 79 80  3  0  0  0  0
 11  2  1  0  0  0  0
 23 17  1  0  0  0  0
 56 24  1  0  0  0  0
 75 62  1  0  0  0  0
 10  5  1  0  0  0  0
 22 18  1  0  0  0  0
 55 29  2  0  0  0  0
 74 65  1  0  0  0  0
 23  7  1  0  0  0  0
 54 31  2  0  0  0  0
 74 69  1  0  0  0  0
 52 32  2  0  0  0  0
 37 33  2  0  0  0  0
 51 38  2  0  0  0  0
 49 39  2  0  0  0  0
 48 41  2  0  0  0  0
  1 81  1  0  0  0  0
  6 82  1  0  0  0  0
  9 83  1  0  0  0  0
 17 84  1  0  0  0  0
 18 85  1  0  0  0  0
 19 86  1  0  0  0  0
 20 87  1  0  0  0  0
 21 88  1  0  0  0  0
 22 89  1  0  0  0  0
 22 90  1  0  0  0  0
 23 91  1  0  0  0  0
 27 92  1  0  0  0  0
 27 93  1  0  0  0  0
 28 94  1  0  0  0  0
 28 95  1  0  0  0  0
 28 96  1  0  0  0  0
 44 97  1  0  0  0  0
 44 98  1  0  0  0  0
 45 99  1  0  0  0  0
 45100  1  0  0  0  0
 45101  1  0  0  0  0
 57102  1  0  0  0  0
 57103  1  0  0  0  0
 58104  1  0  0  0  0
 58105  1  0  0  0  0
 58106  1  0  0  0  0
 59107  1  0  0  0  0
 59108  1  0  0  0  0
 60109  1  0  0  0  0
 60110  1  0  0  0  0
 60111  1  0  0  0  0
 61112  1  0  0  0  0
 67113  1  0  0  0  0
 68114  1  0  0  0  0
 70115  1  0  0  0  0
 71116  1  0  0  0  0
 72117  1  0  0  0  0
 73118  1  0  0  0  0
M  END
