
  xtb     02112207153D
 energy: -213.925469254001 gnorm: 0.000581951115 xtb: 6.4.1 (unknown)
118132  0     0  0            999 V2000
    4.4688   -3.1956   -5.9438 C   0  0  0  0  0  0  0  0  0  0  0  0
    5.2928   -2.1318   -6.2333 C   0  0  0  0  0  0  0  0  0  0  0  0
    5.0969   -0.7400   -5.8219 C   0  0  0  0  0  0  0  0  0  0  0  0
    4.2190   -0.2918   -5.1022 O   0  0  0  0  0  0  0  0  0  0  0  0
    6.1653    0.0407   -6.4682 C   0  0  0  0  0  0  0  0  0  0  0  0
    6.3650    1.4173   -6.3901 C   0  0  0  0  0  0  0  0  0  0  0  0
    7.4436    1.8672   -7.1135 C   0  0  0  0  0  0  0  0  0  0  0  0
    8.2602    1.0108   -7.8632 C   0  0  0  0  0  0  0  0  0  0  0  0
    8.0731   -0.3485   -7.9493 C   0  0  0  0  0  0  0  0  0  0  0  0
    6.9832   -0.8281   -7.2170 C   0  0  0  0  0  0  0  0  0  0  0  0
    6.4737   -2.1913   -7.0685 C   0  0  0  0  0  0  0  0  0  0  0  0
    7.0515   -3.3074   -7.6233 C   0  0  0  0  0  0  0  0  0  0  0  0
    6.6032   -4.6314   -7.4639 C   0  0  0  0  0  0  0  0  0  0  0  0
    6.3026   -5.7390   -7.3813 N   0  0  0  0  0  0  0  0  0  0  0  0
    8.2045   -3.2968   -8.4356 C   0  0  0  0  0  0  0  0  0  0  0  0
    9.1341   -3.3767   -9.1053 N   0  0  0  0  0  0  0  0  0  0  0  0
    9.1465    2.1361   -8.3349 C   0  0  0  0  0  0  0  0  0  0  0  0
   10.5177    2.2722   -7.6399 C   0  0  0  0  0  0  0  0  0  0  0  0
   10.9388    3.6910   -7.9475 C   0  0  0  0  0  0  0  0  0  0  0  0
   10.1667    4.5037   -7.2378 C   0  0  0  0  0  0  0  0  0  0  0  0
    9.2110    3.6480   -6.4378 C   0  0  0  0  0  0  0  0  0  0  0  0
   10.1069    2.4317   -6.1703 C   0  0  0  0  0  0  0  0  0  0  0  0
    8.2368    3.0920   -7.4979 C   0  0  0  0  0  0  0  0  0  0  0  0
    3.3311   -3.2832   -5.1367 C   0  0  0  0  0  0  0  0  0  0  0  0
    2.5650   -4.4571   -4.9374 C   0  0  0  0  0  0  0  0  0  0  0  0
    2.6394   -5.6768   -5.4856 O   0  0  0  0  0  0  0  0  0  0  0  0
    3.0638   -5.9563   -6.8158 C   0  0  0  0  0  0  0  0  0  0  0  0
    2.4252   -5.0526   -7.8610 C   0  0  0  0  0  0  0  0  0  0  0  0
    1.5973   -4.2720   -3.9410 C   0  0  0  0  0  0  0  0  0  0  0  0
    0.3931   -5.3599   -3.2851 S   0  0  0  0  0  0  0  0  0  0  0  0
   -0.1460   -4.0735   -2.2643 C   0  0  0  0  0  0  0  0  0  0  0  0
   -1.1375   -3.8275   -1.3059 C   0  0  0  0  0  0  0  0  0  0  0  0
   -2.1895   -4.6513   -0.8496 C   0  0  0  0  0  0  0  0  0  0  0  0
   -3.1431   -4.1055    0.0676 C   0  0  0  0  0  0  0  0  0  0  0  0
   -4.1019   -4.9648    0.3762 N   0  0  0  0  0  0  0  0  0  0  0  0
   -3.8222   -6.3473   -0.4197 S   0  0  0  0  0  0  0  0  0  0  0  0
   -2.4703   -5.9000   -1.1879 N   0  0  0  0  0  0  0  0  0  0  0  0
   -2.9410   -2.7962    0.5551 C   0  0  0  0  0  0  0  0  0  0  0  0
   -3.6472   -2.0727    1.5243 C   0  0  0  0  0  0  0  0  0  0  0  0
   -5.0432   -2.2487    2.5208 S   0  0  0  0  0  0  0  0  0  0  0  0
   -4.7048   -0.6806    3.2395 C   0  0  0  0  0  0  0  0  0  0  0  0
   -5.3332    0.0880    4.2368 C   0  0  0  0  0  0  0  0  0  0  0  0
   -6.4932   -0.1313    4.8418 O   0  0  0  0  0  0  0  0  0  0  0  0
   -7.1524   -1.3761    4.6604 C   0  0  0  0  0  0  0  0  0  0  0  0
   -8.3287   -1.4101    5.6204 C   0  0  0  0  0  0  0  0  0  0  0  0
   -4.6342    1.2841    4.4840 C   0  0  0  0  0  0  0  0  0  0  0  0
   -3.2573    1.4685    3.4031 S   0  0  0  0  0  0  0  0  0  0  0  0
   -3.5596   -0.0762    2.7020 C   0  0  0  0  0  0  0  0  0  0  0  0
   -2.9602   -0.8709    1.7191 C   0  0  0  0  0  0  0  0  0  0  0  0
   -1.8753   -0.8136    0.8862 N   0  0  0  0  0  0  0  0  0  0  0  0
   -1.8389   -1.9875    0.1501 C   0  0  0  0  0  0  0  0  0  0  0  0
   -0.9757   -2.4781   -0.8696 C   0  0  0  0  0  0  0  0  0  0  0  0
    0.0758   -1.9225   -1.5786 N   0  0  0  0  0  0  0  0  0  0  0  0
    0.5691   -2.8807   -2.4224 C   0  0  0  0  0  0  0  0  0  0  0  0
    1.5761   -2.9888   -3.3893 C   0  0  0  0  0  0  0  0  0  0  0  0
    2.7494   -1.9544   -4.1197 S   0  0  0  0  0  0  0  0  0  0  0  0
    0.4516   -0.5416   -1.7871 C   0  0  0  0  0  0  0  0  0  0  0  0
   -0.6854    0.2562   -2.4208 C   0  0  0  0  0  0  0  0  0  0  0  0
   -0.8492    0.1763    1.1277 C   0  0  0  0  0  0  0  0  0  0  0  0
    0.3862   -0.4478    1.7720 C   0  0  0  0  0  0  0  0  0  0  0  0
   -4.9243    2.3253    5.3740 C   0  0  0  0  0  0  0  0  0  0  0  0
   -5.6187    2.2263    6.5563 C   0  0  0  0  0  0  0  0  0  0  0  0
   -5.7736    0.9861    7.3392 C   0  0  0  0  0  0  0  0  0  0  0  0
   -5.3501   -0.1213    7.0793 O   0  0  0  0  0  0  0  0  0  0  0  0
   -6.4333    1.3958    8.6007 C   0  0  0  0  0  0  0  0  0  0  0  0
   -6.8075    0.6086    9.6677 C   0  0  0  0  0  0  0  0  0  0  0  0
   -7.4039    1.2318   10.7649 C   0  0  0  0  0  0  0  0  0  0  0  0
   -7.8459    0.4619   11.9559 C   0  0  0  0  0  0  0  0  0  0  0  0
   -8.3345    0.9573   12.9411 O   0  0  0  0  0  0  0  0  0  0  0  0
   -7.6423   -0.8552   11.8184 O   0  0  0  0  0  0  0  0  0  0  0  0
   -8.0349   -1.6593   12.9204 C   0  0  0  0  0  0  0  0  0  0  0  0
   -7.5947    2.6132   10.7698 C   0  0  0  0  0  0  0  0  0  0  0  0
   -7.2110    3.4034    9.6974 C   0  0  0  0  0  0  0  0  0  0  0  0
   -6.6273    2.7887    8.5997 C   0  0  0  0  0  0  0  0  0  0  0  0
   -6.1343    3.3283    7.3321 C   0  0  0  0  0  0  0  0  0  0  0  0
   -6.2334    4.6374    6.9314 C   0  0  0  0  0  0  0  0  0  0  0  0
   -5.8428    5.1240    5.6670 C   0  0  0  0  0  0  0  0  0  0  0  0
   -5.5649    5.5911    4.6548 N   0  0  0  0  0  0  0  0  0  0  0  0
   -6.7642    5.6740    7.7255 C   0  0  0  0  0  0  0  0  0  0  0  0
   -7.1798    6.5652    8.3187 N   0  0  0  0  0  0  0  0  0  0  0  0
    4.7558   -4.1320   -6.3965 H   0  0  0  0  0  0  0  0  0  0  0  0
    5.7063    2.0403   -5.8055 H   0  0  0  0  0  0  0  0  0  0  0  0
    8.7083   -0.9892   -8.5368 H   0  0  0  0  0  0  0  0  0  0  0  0
    9.1996    2.2780   -9.4126 H   0  0  0  0  0  0  0  0  0  0  0  0
   11.2292    1.4868   -7.8794 H   0  0  0  0  0  0  0  0  0  0  0  0
   11.6921    3.9502   -8.6680 H   0  0  0  0  0  0  0  0  0  0  0  0
   10.1462    5.5777   -7.2471 H   0  0  0  0  0  0  0  0  0  0  0  0
    8.7339    4.1173   -5.5816 H   0  0  0  0  0  0  0  0  0  0  0  0
    9.5786    1.5724   -5.7614 H   0  0  0  0  0  0  0  0  0  0  0  0
   10.9534    2.6767   -5.5310 H   0  0  0  0  0  0  0  0  0  0  0  0
    7.6834    3.8717   -8.0180 H   0  0  0  0  0  0  0  0  0  0  0  0
    4.1573   -5.9568   -6.8968 H   0  0  0  0  0  0  0  0  0  0  0  0
    2.7251   -6.9861   -6.9612 H   0  0  0  0  0  0  0  0  0  0  0  0
    2.7034   -5.4057   -8.8497 H   0  0  0  0  0  0  0  0  0  0  0  0
    1.3416   -5.0819   -7.7672 H   0  0  0  0  0  0  0  0  0  0  0  0
    2.7544   -4.0209   -7.7574 H   0  0  0  0  0  0  0  0  0  0  0  0
   -7.4931   -1.4665    3.6207 H   0  0  0  0  0  0  0  0  0  0  0  0
   -6.4594   -2.1955    4.8800 H   0  0  0  0  0  0  0  0  0  0  0  0
   -9.0045   -0.5841    5.4155 H   0  0  0  0  0  0  0  0  0  0  0  0
   -7.9670   -1.3204    6.6409 H   0  0  0  0  0  0  0  0  0  0  0  0
   -8.8647   -2.3478    5.5099 H   0  0  0  0  0  0  0  0  0  0  0  0
    0.7927   -0.0911   -0.8554 H   0  0  0  0  0  0  0  0  0  0  0  0
    1.3047   -0.5523   -2.4696 H   0  0  0  0  0  0  0  0  0  0  0  0
   -1.5850    0.2193   -1.8103 H   0  0  0  0  0  0  0  0  0  0  0  0
   -0.3848    1.2927   -2.5457 H   0  0  0  0  0  0  0  0  0  0  0  0
   -0.9231   -0.1536   -3.3995 H   0  0  0  0  0  0  0  0  0  0  0  0
   -0.6021    0.7044    0.2076 H   0  0  0  0  0  0  0  0  0  0  0  0
   -1.2809    0.9099    1.8128 H   0  0  0  0  0  0  0  0  0  0  0  0
    0.1258   -0.8732    2.7382 H   0  0  0  0  0  0  0  0  0  0  0  0
    1.1484    0.3116    1.9236 H   0  0  0  0  0  0  0  0  0  0  0  0
    0.7964   -1.2414    1.1517 H   0  0  0  0  0  0  0  0  0  0  0  0
   -4.5162    3.2912    5.0993 H   0  0  0  0  0  0  0  0  0  0  0  0
   -6.6445   -0.4573    9.6520 H   0  0  0  0  0  0  0  0  0  0  0  0
   -7.8085   -2.6858   12.6438 H   0  0  0  0  0  0  0  0  0  0  0  0
   -9.1025   -1.5396   13.1160 H   0  0  0  0  0  0  0  0  0  0  0  0
   -7.4810   -1.3712   13.8163 H   0  0  0  0  0  0  0  0  0  0  0  0
   -8.0525    3.0593   11.6400 H   0  0  0  0  0  0  0  0  0  0  0  0
   -7.3653    4.4693    9.7334 H   0  0  0  0  0  0  0  0  0  0  0  0
  1  2  2  0  0  0  0
  2  3  1  0  0  0  0
  3  4  2  0  0  0  0
  3  5  1  0  0  0  0
  5  6  2  0  0  0  0
  6  7  1  0  0  0  0
  7  8  2  0  0  0  0
  8  9  1  0  0  0  0
  9 10  2  0  0  0  0
 10 11  1  0  0  0  0
 11 12  2  0  0  0  0
 12 13  1  0  0  0  0
 13 14  3  0  0  0  0
 12 15  1  0  0  0  0
 15 16  3  0  0  0  0
  8 17  1  0  0  0  0
 17 18  1  0  0  0  0
 18 19  1  0  0  0  0
 19 20  2  0  0  0  0
 20 21  1  0  0  0  0
 21 22  1  0  0  0  0
 21 23  1  0  0  0  0
  1 24  1  0  0  0  0
 24 25  2  0  0  0  0
 25 26  1  0  0  0  0
 26 27  1  0  0  0  0
 27 28  1  0  0  0  0
 25 29  1  0  0  0  0
 29 30  1  0  0  0  0
 30 31  1  0  0  0  0
 31 32  1  0  0  0  0
 32 33  1  0  0  0  0
 33 34  1  0  0  0  0
 34 35  2  0  0  0  0
 35 36  1  0  0  0  0
 36 37  1  0  0  0  0
 34 38  1  0  0  0  0
 38 39  1  0  0  0  0
 39 40  1  0  0  0  0
 40 41  1  0  0  0  0
 41 42  1  0  0  0  0
 42 43  1  0  0  0  0
 43 44  1  0  0  0  0
 44 45  1  0  0  0  0
 42 46  2  0  0  0  0
 46 47  1  0  0  0  0
 47 48  1  0  0  0  0
 48 49  1  0  0  0  0
 49 50  1  0  0  0  0
 50 51  1  0  0  0  0
 51 52  1  0  0  0  0
 52 53  1  0  0  0  0
 53 54  1  0  0  0  0
 54 55  1  0  0  0  0
 55 56  1  0  0  0  0
 53 57  1  0  0  0  0
 57 58  1  0  0  0  0
 50 59  1  0  0  0  0
 59 60  1  0  0  0  0
 46 61  1  0  0  0  0
 61 62  2  0  0  0  0
 62 63  1  0  0  0  0
 63 64  2  0  0  0  0
 63 65  1  0  0  0  0
 65 66  2  0  0  0  0
 66 67  1  0  0  0  0
 67 68  1  0  0  0  0
 68 69  2  0  0  0  0
 68 70  1  0  0  0  0
 70 71  1  0  0  0  0
 67 72  2  0  0  0  0
 72 73  1  0  0  0  0
 73 74  2  0  0  0  0
 74 75  1  0  0  0  0
 75 76  2  0  0  0  0
 76 77  1  0  0  0  0
 77 78  3  0  0  0  0
 76 79  1  0  0  0  0
 79 80  3  0  0  0  0
 11  2  1  0  0  0  0
 23 17  1  0  0  0  0
 56 24  1  0  0  0  0
 75 62  1  0  0  0  0
 10  5  1  0  0  0  0
 22 18  1  0  0  0  0
 55 29  2  0  0  0  0
 74 65  1  0  0  0  0
 23  7  1  0  0  0  0
 54 31  2  0  0  0  0
 52 32  2  0  0  0  0
 37 33  2  0  0  0  0
 51 38  2  0  0  0  0
 49 39  2  0  0  0  0
 48 41  2  0  0  0  0
  1 81  1  0  0  0  0
  6 82  1  0  0  0  0
  9 83  1  0  0  0  0
 17 84  1  0  0  0  0
 18 85  1  0  0  0  0
 19 86  1  0  0  0  0
 20 87  1  0  0  0  0
 21 88  1  0  0  0  0
 22 89  1  0  0  0  0
 22 90  1  0  0  0  0
 23 91  1  0  0  0  0
 27 92  1  0  0  0  0
 27 93  1  0  0  0  0
 28 94  1  0  0  0  0
 28 95  1  0  0  0  0
 28 96  1  0  0  0  0
 44 97  1  0  0  0  0
 44 98  1  0  0  0  0
 45 99  1  0  0  0  0
 45100  1  0  0  0  0
 45101  1  0  0  0  0
 57102  1  0  0  0  0
 57103  1  0  0  0  0
 58104  1  0  0  0  0
 58105  1  0  0  0  0
 58106  1  0  0  0  0
 59107  1  0  0  0  0
 59108  1  0  0  0  0
 60109  1  0  0  0  0
 60110  1  0  0  0  0
 60111  1  0  0  0  0
 61112  1  0  0  0  0
 66113  1  0  0  0  0
 71114  1  0  0  0  0
 71115  1  0  0  0  0
 71116  1  0  0  0  0
 72117  1  0  0  0  0
 73118  1  0  0  0  0
M  END
