108

C          3.17020       -0.90300        6.30590
C          2.75420       -2.19530        6.17200
C          3.66860       -3.30870        6.52670
O          4.70030       -3.22520        7.15770
C          3.08000       -4.50930        5.90030
C          3.63300       -5.78590        5.83460
C          2.86250       -6.69620        5.15110
C          1.62680       -6.36770        4.57730
C          1.06260       -5.11600        4.64310
C          1.83410       -4.17500        5.32810
C          1.55190       -2.77230        5.61770
C          0.31200       -2.18390        5.60590
C          0.06710       -0.92630        6.19340
N         -0.16070        0.07180        6.71400
C         -0.85160       -2.77800        5.08420
N         -1.82680       -3.19370        4.64190
C          1.41880       -7.75870        4.03350
C          1.66800       -7.98570        2.52190
C          2.66520       -6.93930        2.09030
C          3.83590       -7.24830        2.63160
C          3.65170       -8.50960        3.43850
C          2.58290       -9.21880        2.59160
C          2.79600       -8.12460        4.67120
C          2.66560        0.23210        5.62760
C          2.69220        1.58980        5.95190
O          3.06870        2.21480        7.06900
C          3.55620        1.51880        8.20230
C          5.07320        1.36880        8.17120
C          2.12030        2.38110        4.92850
S          1.85400        4.10080        4.79630
C          1.10400        3.83380        3.26100
C          0.44010        4.55590        2.25730
C          0.09910        5.92430        2.18440
C         -0.70690        6.37880        1.09040
N         -0.99130        7.66920        1.17290
S         -0.29970        8.26080        2.51140
N          0.38880        6.89420        3.03760
C         -1.05480        5.46300        0.07330
C         -1.74880        5.65340       -1.12990
S         -2.58110        6.90710       -1.98400
C         -2.87910        5.77010       -3.28310
C         -3.54050        5.90800       -4.51230
O         -4.09000        7.10490       -4.76450
C         -4.43650        7.58610       -6.05410
C         -3.25310        7.63630       -7.01150
C         -3.53170        4.69600       -5.24000
S         -2.64950        3.42610       -4.37010
C         -2.35480        4.49510       -3.05350
C         -1.71120        4.43310       -1.81340
N         -1.04840        3.49540       -1.07000
C         -0.63960        4.09780        0.10630
C          0.03890        3.61930        1.26070
N          0.44220        2.35680        1.66730
C          1.07190        2.49020        2.87420
C          1.65900        1.65830        3.83190
S          1.92600       -0.03130        4.03900
C         -0.01160        1.04470        1.26020
C         -1.51500        0.88350        1.46820
C         -0.62220        2.26720       -1.70310
C          0.88500        2.25880       -1.94500
C         -4.15340        4.42590       -6.46070
C         -4.19520        3.27710       -7.21260
C         -4.95680        3.26490       -8.47100
O         -5.58410        4.18400       -8.95400
C         -4.79320        1.89520       -9.02760
C         -5.30270        1.34410      -10.18530
C         -4.98980        0.01920      -10.47530
Cl        -5.60810       -0.69940      -11.90930
C         -4.18080       -0.72990       -9.61590
Cl        -3.81020       -2.36460       -9.99880
C         -3.66930       -0.16910       -8.45000
C         -3.98390        1.14440       -8.16770
C         -3.57670        1.97750       -7.00390
O         -2.86050        1.61330       -6.08830
H          4.06570       -0.78440        6.90510
H          4.58560       -6.00240        6.29220
H          0.11390       -4.86850        4.19540
H          0.53540       -8.28320        4.39200
H          0.76500       -8.06500        1.92250
H          2.41170       -6.07670        1.50210
H          4.75580       -6.69520        2.58570
H          4.55560       -9.06590        3.67220
H          2.12590      -10.07030        3.09370
H          2.95390       -9.52370        1.61420
H          2.81280       -8.89130        5.44330
H          3.26660        2.14630        9.05040
H          3.05460        0.54940        8.29590
H          5.40250        0.81150        9.04340
H          5.54060        2.35020        8.18040
H          5.40120        0.84640        7.27510
H         -5.27360        7.01860       -6.47540
H         -4.79040        8.60020       -5.84740
H         -3.56950        8.08360       -7.94910
H         -2.45660        8.23940       -6.58210
H         -2.86400        6.64170       -7.21600
H          0.51610        0.32600        1.89220
H          0.28040        0.83790        0.23140
H         -1.75760        1.00090        2.52190
H         -1.82900       -0.10750        1.15220
H         -2.07330        1.62830        0.90560
H         -1.13890        2.21730       -2.66460
H         -0.94560        1.40340       -1.12280
H          1.15640        3.07490       -2.61030
H          1.43720        2.38130       -1.01590
H          1.17900        1.32240       -2.41100
H         -4.72420        5.22860       -6.91040
H         -5.92660        1.92160      -10.84900
H         -3.04500       -0.74640       -7.78650
