
  xtb     02022202293D
 energy: -261.245303790321 gnorm: 0.000869323865 xtb: 6.4.1 (unknown)
164184  0     0  0            999 V2000
   -9.0730    0.4073   -1.3915 C   0  0  0  0  0  0  0  0  0  0  0  0
   -9.7956   -0.4471   -2.1761 C   0  0  0  0  0  0  0  0  0  0  0  0
   -9.2789   -1.4221   -3.1659 C   0  0  0  0  0  0  0  0  0  0  0  0
   -8.1987   -1.4449   -3.7180 O   0  0  0  0  0  0  0  0  0  0  0  0
  -10.3544   -2.4193   -3.3341 C   0  0  0  0  0  0  0  0  0  0  0  0
  -10.2803   -3.6084   -4.0557 C   0  0  0  0  0  0  0  0  0  0  0  0
  -11.4256   -4.3656   -4.0045 C   0  0  0  0  0  0  0  0  0  0  0  0
  -12.5635   -3.9714   -3.2873 C   0  0  0  0  0  0  0  0  0  0  0  0
  -12.6521   -2.7985   -2.5761 C   0  0  0  0  0  0  0  0  0  0  0  0
  -11.4968   -2.0128   -2.6172 C   0  0  0  0  0  0  0  0  0  0  0  0
  -11.2046   -0.7364   -1.9743 C   0  0  0  0  0  0  0  0  0  0  0  0
  -12.1174    0.0837   -1.3654 C   0  0  0  0  0  0  0  0  0  0  0  0
  -11.8253    1.3621   -0.8435 C   0  0  0  0  0  0  0  0  0  0  0  0
  -11.6686    2.4170   -0.4171 N   0  0  0  0  0  0  0  0  0  0  0  0
  -13.4893   -0.2152   -1.2361 C   0  0  0  0  0  0  0  0  0  0  0  0
  -14.6141   -0.4001   -1.0978 N   0  0  0  0  0  0  0  0  0  0  0  0
  -13.3281   -5.2164   -3.6616 C   0  0  0  0  0  0  0  0  0  0  0  0
  -14.4081   -5.0982   -4.7647 C   0  0  0  0  0  0  0  0  0  0  0  0
  -13.9977   -3.9428   -5.6437 C   0  0  0  0  0  0  0  0  0  0  0  0
  -12.9219   -4.3145   -6.3247 C   0  0  0  0  0  0  0  0  0  0  0  0
  -12.5850   -5.7278   -5.9181 C   0  0  0  0  0  0  0  0  0  0  0  0
  -13.9962   -6.2789   -5.6586 C   0  0  0  0  0  0  0  0  0  0  0  0
  -12.0614   -5.6542   -4.4625 C   0  0  0  0  0  0  0  0  0  0  0  0
   -7.7070    0.7496   -1.4560 C   0  0  0  0  0  0  0  0  0  0  0  0
   -6.7816    0.6668   -2.4820 C   0  0  0  0  0  0  0  0  0  0  0  0
   -5.5193    1.0786   -2.0758 C   0  0  0  0  0  0  0  0  0  0  0  0
   -3.9703    1.1352   -2.8695 S   0  0  0  0  0  0  0  0  0  0  0  0
   -3.2492    1.6423   -1.3811 C   0  0  0  0  0  0  0  0  0  0  0  0
   -1.9089    1.8405   -0.9225 C   0  0  0  0  0  0  0  0  0  0  0  0
   -0.6935    1.7554   -1.5963 C   0  0  0  0  0  0  0  0  0  0  0  0
    0.4496    1.8606   -0.8404 C   0  0  0  0  0  0  0  0  0  0  0  0
    1.8939    1.7271   -1.2946 C   0  0  0  0  0  0  0  0  0  0  0  0
    2.0541    0.4933   -2.1542 C   0  0  0  0  0  0  0  0  0  0  0  0
    1.7891    0.5587   -3.5171 C   0  0  0  0  0  0  0  0  0  0  0  0
    1.8939   -0.5696   -4.3070 C   0  0  0  0  0  0  0  0  0  0  0  0
    2.2621   -1.7923   -3.7600 C   0  0  0  0  0  0  0  0  0  0  0  0
    2.4289   -3.0021   -4.6331 C   0  0  0  0  0  0  0  0  0  0  0  0
    3.8430   -3.0484   -5.2159 C   0  0  0  0  0  0  0  0  0  0  0  0
    2.5168   -1.8543   -2.3970 C   0  0  0  0  0  0  0  0  0  0  0  0
    2.4073   -0.7288   -1.6005 C   0  0  0  0  0  0  0  0  0  0  0  0
    2.4050    2.9808   -1.9920 C   0  0  0  0  0  0  0  0  0  0  0  0
    1.7441    4.1958   -1.8812 C   0  0  0  0  0  0  0  0  0  0  0  0
    2.2654    5.3321   -2.4734 C   0  0  0  0  0  0  0  0  0  0  0  0
    3.4605    5.2891   -3.1776 C   0  0  0  0  0  0  0  0  0  0  0  0
    4.0024    6.5153   -3.8535 C   0  0  0  0  0  0  0  0  0  0  0  0
    3.4887    6.6037   -5.2920 C   0  0  0  0  0  0  0  0  0  0  0  0
    4.1210    4.0712   -3.2799 C   0  0  0  0  0  0  0  0  0  0  0  0
    3.6040    2.9332   -2.6924 C   0  0  0  0  0  0  0  0  0  0  0  0
    2.6007    1.6730    0.0348 C   0  0  0  0  0  0  0  0  0  0  0  0
    1.7210    1.9344    1.0549 C   0  0  0  0  0  0  0  0  0  0  0  0
    0.3801    2.0453    0.5603 C   0  0  0  0  0  0  0  0  0  0  0  0
   -0.8329    2.1967    1.2231 C   0  0  0  0  0  0  0  0  0  0  0  0
   -1.9788    2.0841    0.4684 C   0  0  0  0  0  0  0  0  0  0  0  0
   -3.4235    2.1381    0.9378 C   0  0  0  0  0  0  0  0  0  0  0  0
   -3.7048    3.5432    1.4386 C   0  0  0  0  0  0  0  0  0  0  0  0
   -4.2465    4.5116    0.6059 C   0  0  0  0  0  0  0  0  0  0  0  0
   -4.4641    5.7952    1.0721 C   0  0  0  0  0  0  0  0  0  0  0  0
   -4.1367    6.1473    2.3741 C   0  0  0  0  0  0  0  0  0  0  0  0
   -4.4203    7.5275    2.8922 C   0  0  0  0  0  0  0  0  0  0  0  0
   -5.8234    7.5907    3.4994 C   0  0  0  0  0  0  0  0  0  0  0  0
   -3.5858    5.1762    3.2008 C   0  0  0  0  0  0  0  0  0  0  0  0
   -3.3695    3.8917    2.7411 C   0  0  0  0  0  0  0  0  0  0  0  0
   -3.7921    1.0860    1.9665 C   0  0  0  0  0  0  0  0  0  0  0  0
   -4.9778    1.2214    2.6789 C   0  0  0  0  0  0  0  0  0  0  0  0
   -5.3720    0.2469    3.5746 C   0  0  0  0  0  0  0  0  0  0  0  0
   -4.5974   -0.8879    3.7802 C   0  0  0  0  0  0  0  0  0  0  0  0
   -5.0534   -1.9657    4.7210 C   0  0  0  0  0  0  0  0  0  0  0  0
   -5.9774   -2.9475    3.9977 C   0  0  0  0  0  0  0  0  0  0  0  0
   -3.4220   -1.0243    3.0549 C   0  0  0  0  0  0  0  0  0  0  0  0
   -3.0234   -0.0533    2.1537 C   0  0  0  0  0  0  0  0  0  0  0  0
   -4.1463    1.7955   -0.3377 C   0  0  0  0  0  0  0  0  0  0  0  0
   -5.4458    1.4805   -0.7266 C   0  0  0  0  0  0  0  0  0  0  0  0
   -6.9880    1.4006    0.0251 S   0  0  0  0  0  0  0  0  0  0  0  0
    2.4489    1.9100    2.6407 S   0  0  0  0  0  0  0  0  0  0  0  0
    3.9567    1.5005    1.9090 C   0  0  0  0  0  0  0  0  0  0  0  0
    5.4755    1.0772    2.5859 S   0  0  0  0  0  0  0  0  0  0  0  0
    6.0948    0.7653    0.9637 C   0  0  0  0  0  0  0  0  0  0  0  0
    5.1403    1.0109   -0.0140 C   0  0  0  0  0  0  0  0  0  0  0  0
    3.9094    1.4148    0.5028 C   0  0  0  0  0  0  0  0  0  0  0  0
    7.3715    0.2707    0.6366 C   0  0  0  0  0  0  0  0  0  0  0  0
    8.3858   -0.1673    1.4405 C   0  0  0  0  0  0  0  0  0  0  0  0
    8.3597   -0.2146    2.9090 C   0  0  0  0  0  0  0  0  0  0  0  0
    7.5071    0.2447    3.6480 O   0  0  0  0  0  0  0  0  0  0  0  0
    9.5729   -0.9391    3.3201 C   0  0  0  0  0  0  0  0  0  0  0  0
    9.9394   -1.2919    4.6174 C   0  0  0  0  0  0  0  0  0  0  0  0
   11.1133   -2.0024    4.6924 C   0  0  0  0  0  0  0  0  0  0  0  0
   11.8670   -2.3395    3.5598 C   0  0  0  0  0  0  0  0  0  0  0  0
   11.5189   -1.9947    2.2756 C   0  0  0  0  0  0  0  0  0  0  0  0
   10.3282   -1.2677    2.1757 C   0  0  0  0  0  0  0  0  0  0  0  0
    9.6369   -0.7550    0.9947 C   0  0  0  0  0  0  0  0  0  0  0  0
   10.1110   -0.8122   -0.2899 C   0  0  0  0  0  0  0  0  0  0  0  0
    9.4571   -0.3052   -1.4327 C   0  0  0  0  0  0  0  0  0  0  0  0
    8.9973    0.0775   -2.4138 N   0  0  0  0  0  0  0  0  0  0  0  0
   11.3498   -1.3776   -0.6601 C   0  0  0  0  0  0  0  0  0  0  0  0
   12.3421   -1.8148   -1.0374 N   0  0  0  0  0  0  0  0  0  0  0  0
   12.9124   -3.0627    4.3716 C   0  0  0  0  0  0  0  0  0  0  0  0
   14.2421   -2.3160    4.6077 C   0  0  0  0  0  0  0  0  0  0  0  0
   14.8507   -3.0290    5.7937 C   0  0  0  0  0  0  0  0  0  0  0  0
   14.1386   -2.7081    6.8663 C   0  0  0  0  0  0  0  0  0  0  0  0
   13.0365   -1.7727    6.4235 C   0  0  0  0  0  0  0  0  0  0  0  0
   13.7591   -1.0306    5.2918 C   0  0  0  0  0  0  0  0  0  0  0  0
   12.0733   -2.6850    5.6346 C   0  0  0  0  0  0  0  0  0  0  0  0
   -9.5877    0.8358   -0.5381 H   0  0  0  0  0  0  0  0  0  0  0  0
   -9.3814   -3.8785   -4.5875 H   0  0  0  0  0  0  0  0  0  0  0  0
  -13.5288   -2.5119   -2.0192 H   0  0  0  0  0  0  0  0  0  0  0  0
  -13.6487   -5.8444   -2.8325 H   0  0  0  0  0  0  0  0  0  0  0  0
  -15.4300   -5.0811   -4.3957 H   0  0  0  0  0  0  0  0  0  0  0  0
  -14.4823   -2.9842   -5.6366 H   0  0  0  0  0  0  0  0  0  0  0  0
  -12.3276   -3.7282   -7.0008 H   0  0  0  0  0  0  0  0  0  0  0  0
  -11.9473   -6.2849   -6.5995 H   0  0  0  0  0  0  0  0  0  0  0  0
  -13.9992   -7.2370   -5.1405 H   0  0  0  0  0  0  0  0  0  0  0  0
  -14.5943   -6.3494   -6.5657 H   0  0  0  0  0  0  0  0  0  0  0  0
  -11.5561   -6.5686   -4.1569 H   0  0  0  0  0  0  0  0  0  0  0  0
   -7.0219    0.3131   -3.4660 H   0  0  0  0  0  0  0  0  0  0  0  0
   -0.6622    1.5782   -2.6601 H   0  0  0  0  0  0  0  0  0  0  0  0
    1.5118    1.5029   -3.9636 H   0  0  0  0  0  0  0  0  0  0  0  0
    1.6860   -0.5003   -5.3653 H   0  0  0  0  0  0  0  0  0  0  0  0
    2.2491   -3.9078   -4.0505 H   0  0  0  0  0  0  0  0  0  0  0  0
    1.7045   -2.9712   -5.4496 H   0  0  0  0  0  0  0  0  0  0  0  0
    4.0366   -2.1588   -5.8109 H   0  0  0  0  0  0  0  0  0  0  0  0
    4.5805   -3.0920   -4.4176 H   0  0  0  0  0  0  0  0  0  0  0  0
    3.9651   -3.9236   -5.8497 H   0  0  0  0  0  0  0  0  0  0  0  0
    2.8011   -2.7963   -1.9498 H   0  0  0  0  0  0  0  0  0  0  0  0
    2.6006   -0.8049   -0.5403 H   0  0  0  0  0  0  0  0  0  0  0  0
    0.8163    4.2600   -1.3317 H   0  0  0  0  0  0  0  0  0  0  0  0
    1.7346    6.2689   -2.3798 H   0  0  0  0  0  0  0  0  0  0  0  0
    5.0936    6.4805   -3.8631 H   0  0  0  0  0  0  0  0  0  0  0  0
    3.6931    7.4075   -3.3054 H   0  0  0  0  0  0  0  0  0  0  0  0
    3.7992    5.7288   -5.8588 H   0  0  0  0  0  0  0  0  0  0  0  0
    3.8799    7.4921   -5.7821 H   0  0  0  0  0  0  0  0  0  0  0  0
    2.4019    6.6505   -5.3031 H   0  0  0  0  0  0  0  0  0  0  0  0
    5.0546    4.0136   -3.8209 H   0  0  0  0  0  0  0  0  0  0  0  0
    4.1303    1.9953   -2.7890 H   0  0  0  0  0  0  0  0  0  0  0  0
   -0.8642    2.3519    2.2903 H   0  0  0  0  0  0  0  0  0  0  0  0
   -4.5052    4.2654   -0.4137 H   0  0  0  0  0  0  0  0  0  0  0  0
   -4.8938    6.5346    0.4114 H   0  0  0  0  0  0  0  0  0  0  0  0
   -3.6858    7.7955    3.6544 H   0  0  0  0  0  0  0  0  0  0  0  0
   -4.3480    8.2512    2.0778 H   0  0  0  0  0  0  0  0  0  0  0  0
   -5.9111    6.8859    4.3232 H   0  0  0  0  0  0  0  0  0  0  0  0
   -6.5709    7.3363    2.7514 H   0  0  0  0  0  0  0  0  0  0  0  0
   -6.0318    8.5904    3.8733 H   0  0  0  0  0  0  0  0  0  0  0  0
   -3.3219    5.4293    4.2178 H   0  0  0  0  0  0  0  0  0  0  0  0
   -2.9506    3.1483    3.4037 H   0  0  0  0  0  0  0  0  0  0  0  0
   -5.5922    2.0982    2.5337 H   0  0  0  0  0  0  0  0  0  0  0  0
   -6.2952    0.3700    4.1223 H   0  0  0  0  0  0  0  0  0  0  0  0
   -4.1896   -2.5060    5.1134 H   0  0  0  0  0  0  0  0  0  0  0  0
   -5.5897   -1.5206    5.5615 H   0  0  0  0  0  0  0  0  0  0  0  0
   -5.4567   -3.4114    3.1628 H   0  0  0  0  0  0  0  0  0  0  0  0
   -6.8506   -2.4284    3.6089 H   0  0  0  0  0  0  0  0  0  0  0  0
   -6.3108   -3.7285    4.6772 H   0  0  0  0  0  0  0  0  0  0  0  0
   -2.8079   -1.9028    3.1940 H   0  0  0  0  0  0  0  0  0  0  0  0
   -2.1082   -0.1863    1.5951 H   0  0  0  0  0  0  0  0  0  0  0  0
    5.3394    0.8658   -1.0604 H   0  0  0  0  0  0  0  0  0  0  0  0
    7.5238    0.1908   -0.4332 H   0  0  0  0  0  0  0  0  0  0  0  0
    9.3232   -1.0203    5.4601 H   0  0  0  0  0  0  0  0  0  0  0  0
   12.1057   -2.2708    1.4158 H   0  0  0  0  0  0  0  0  0  0  0  0
   13.0515   -4.1156    4.1340 H   0  0  0  0  0  0  0  0  0  0  0  0
   14.8673   -2.2106    3.7254 H   0  0  0  0  0  0  0  0  0  0  0  0
   15.6748   -3.7143    5.7233 H   0  0  0  0  0  0  0  0  0  0  0  0
   14.2489   -3.0720    7.8710 H   0  0  0  0  0  0  0  0  0  0  0  0
   12.5646   -1.1720    7.1963 H   0  0  0  0  0  0  0  0  0  0  0  0
   13.1051   -0.4178    4.6741 H   0  0  0  0  0  0  0  0  0  0  0  0
   14.5856   -0.4247    5.6592 H   0  0  0  0  0  0  0  0  0  0  0  0
   11.6539   -3.4862    6.2404 H   0  0  0  0  0  0  0  0  0  0  0  0
  1  2  2  0  0  0  0
  2  3  1  0  0  0  0
  3  4  2  0  0  0  0
  3  5  1  0  0  0  0
  5  6  2  0  0  0  0
  6  7  1  0  0  0  0
  7  8  2  0  0  0  0
  8  9  1  0  0  0  0
  9 10  2  0  0  0  0
 10 11  1  0  0  0  0
 11 12  2  0  0  0  0
 12 13  1  0  0  0  0
 13 14  3  0  0  0  0
 12 15  1  0  0  0  0
 15 16  3  0  0  0  0
  8 17  1  0  0  0  0
 17 18  1  0  0  0  0
 18 19  1  0  0  0  0
 19 20  2  0  0  0  0
 20 21  1  0  0  0  0
 21 22  1  0  0  0  0
 21 23  1  0  0  0  0
  1 24  1  0  0  0  0
 24 25  2  0  0  0  0
 25 26  1  0  0  0  0
 26 27  1  0  0  0  0
 27 28  1  0  0  0  0
 28 29  1  0  0  0  0
 29 30  2  0  0  0  0
 30 31  1  0  0  0  0
 31 32  1  0  0  0  0
 32 33  1  0  0  0  0
 33 34  2  0  0  0  0
 34 35  1  0  0  0  0
 35 36  2  0  0  0  0
 36 37  1  0  0  0  0
 37 38  1  0  0  0  0
 36 39  1  0  0  0  0
 39 40  2  0  0  0  0
 32 41  1  0  0  0  0
 41 42  2  0  0  0  0
 42 43  1  0  0  0  0
 43 44  2  0  0  0  0
 44 45  1  0  0  0  0
 45 46  1  0  0  0  0
 44 47  1  0  0  0  0
 47 48  2  0  0  0  0
 32 49  1  0  0  0  0
 49 50  2  0  0  0  0
 50 51  1  0  0  0  0
 51 52  1  0  0  0  0
 52 53  2  0  0  0  0
 53 54  1  0  0  0  0
 54 55  1  0  0  0  0
 55 56  2  0  0  0  0
 56 57  1  0  0  0  0
 57 58  2  0  0  0  0
 58 59  1  0  0  0  0
 59 60  1  0  0  0  0
 58 61  1  0  0  0  0
 61 62  2  0  0  0  0
 54 63  1  0  0  0  0
 63 64  2  0  0  0  0
 64 65  1  0  0  0  0
 65 66  2  0  0  0  0
 66 67  1  0  0  0  0
 67 68  1  0  0  0  0
 66 69  1  0  0  0  0
 69 70  2  0  0  0  0
 54 71  1  0  0  0  0
 71 72  1  0  0  0  0
 72 73  1  0  0  0  0
 50 74  1  0  0  0  0
 74 75  1  0  0  0  0
 75 76  1  0  0  0  0
 76 77  1  0  0  0  0
 77 78  2  0  0  0  0
 78 79  1  0  0  0  0
 77 80  1  0  0  0  0
 80 81  2  0  0  0  0
 81 82  1  0  0  0  0
 82 83  2  0  0  0  0
 82 84  1  0  0  0  0
 84 85  2  0  0  0  0
 85 86  1  0  0  0  0
 86 87  2  0  0  0  0
 87 88  1  0  0  0  0
 88 89  2  0  0  0  0
 89 90  1  0  0  0  0
 90 91  2  0  0  0  0
 91 92  1  0  0  0  0
 92 93  3  0  0  0  0
 91 94  1  0  0  0  0
 94 95  3  0  0  0  0
 87 96  1  0  0  0  0
 96 97  1  0  0  0  0
 97 98  1  0  0  0  0
 98 99  2  0  0  0  0
 99100  1  0  0  0  0
100101  1  0  0  0  0
100102  1  0  0  0  0
 11  2  1  0  0  0  0
 23 17  1  0  0  0  0
 73 24  1  0  0  0  0
 79 75  2  0  0  0  0
 90 81  1  0  0  0  0
102 96  1  0  0  0  0
 10  5  1  0  0  0  0
 22 18  1  0  0  0  0
 72 26  2  0  0  0  0
 89 84  1  0  0  0  0
101 97  1  0  0  0  0
 23  7  1  0  0  0  0
 71 28  2  0  0  0  0
102 86  1  0  0  0  0
 53 29  1  0  0  0  0
 62 55  1  0  0  0  0
 70 63  1  0  0  0  0
 51 31  2  0  0  0  0
 40 33  1  0  0  0  0
 48 41  1  0  0  0  0
 79 49  1  0  0  0  0
  1103  1  0  0  0  0
  6104  1  0  0  0  0
  9105  1  0  0  0  0
 17106  1  0  0  0  0
 18107  1  0  0  0  0
 19108  1  0  0  0  0
 20109  1  0  0  0  0
 21110  1  0  0  0  0
 22111  1  0  0  0  0
 22112  1  0  0  0  0
 23113  1  0  0  0  0
 25114  1  0  0  0  0
 30115  1  0  0  0  0
 34116  1  0  0  0  0
 35117  1  0  0  0  0
 37118  1  0  0  0  0
 37119  1  0  0  0  0
 38120  1  0  0  0  0
 38121  1  0  0  0  0
 38122  1  0  0  0  0
 39123  1  0  0  0  0
 40124  1  0  0  0  0
 42125  1  0  0  0  0
 43126  1  0  0  0  0
 45127  1  0  0  0  0
 45128  1  0  0  0  0
 46129  1  0  0  0  0
 46130  1  0  0  0  0
 46131  1  0  0  0  0
 47132  1  0  0  0  0
 48133  1  0  0  0  0
 52134  1  0  0  0  0
 56135  1  0  0  0  0
 57136  1  0  0  0  0
 59137  1  0  0  0  0
 59138  1  0  0  0  0
 60139  1  0  0  0  0
 60140  1  0  0  0  0
 60141  1  0  0  0  0
 61142  1  0  0  0  0
 62143  1  0  0  0  0
 64144  1  0  0  0  0
 65145  1  0  0  0  0
 67146  1  0  0  0  0
 67147  1  0  0  0  0
 68148  1  0  0  0  0
 68149  1  0  0  0  0
 68150  1  0  0  0  0
 69151  1  0  0  0  0
 70152  1  0  0  0  0
 78153  1  0  0  0  0
 80154  1  0  0  0  0
 85155  1  0  0  0  0
 88156  1  0  0  0  0
 96157  1  0  0  0  0
 97158  1  0  0  0  0
 98159  1  0  0  0  0
 99160  1  0  0  0  0
100161  1  0  0  0  0
101162  1  0  0  0  0
101163  1  0  0  0  0
102164  1  0  0  0  0
M  END
