143

C          5.43310        2.12560        4.44210
C          5.92110        2.58730        5.63490
C          5.39200        2.35170        6.99720
O          4.59810        1.51280        7.37530
C          6.00870        3.38650        7.84910
C          5.72870        3.63180        9.19200
C          6.43360        4.68280        9.72650
C          7.34790        5.43900        8.98050
C          7.63550        5.20600        7.65680
C          6.93180        4.13590        7.09500
C          6.96020        3.59750        5.73890
C          7.87100        3.93020        4.77020
C          8.88780        4.89390        4.93310
N          9.73370        5.66800        4.99530
C          7.96680        3.32360        3.49950
N          8.13020        2.86590        2.45880
C          7.67830        6.33720       10.14660
C          9.01590        6.06860       10.86790
C          8.84550        6.74540       12.20880
C          7.98120        6.02850       12.91570
C          7.55290        4.85500       12.06440
C          8.85250        4.60250       11.28950
C          6.66040        5.49280       10.97860
C          4.44240        1.16260        4.17440
S          3.79710        1.10750        2.54090
C          2.72060       -0.16420        2.97370
C          1.73720       -0.76380        2.13040
C          1.04380       -1.86740        2.67480
O          1.31430       -2.37990        3.89170
C          2.00500       -1.61440        4.89140
C          2.82680       -2.63190        5.69860
C          3.96560       -3.22820        4.87890
C          0.95090       -0.89070        5.76460
C         -0.03270       -1.83510        6.44380
C          2.88630       -0.55370        4.29200
C          3.84740        0.19230        4.96520
C          0.06380       -2.50640        1.92240
C         -0.22820       -2.02770        0.65740
C         -1.24390       -2.43960       -0.28760
C         -1.18460       -1.58480       -1.40690
C         -0.02560       -0.62410       -1.28520
C          0.46240       -0.92720        0.11420
C          1.44580       -0.30700        0.84020
C         -0.45070        0.84090       -1.45440
C         -1.49600        1.26380       -0.42870
C          1.12020       -1.00080       -2.25630
C          0.76860       -0.96660       -3.73740
C         -2.12510       -1.69550       -2.39970
C         -3.11010       -2.68360       -2.30340
C         -4.08740       -2.92740       -3.31450
C         -5.11920       -3.83400       -3.14510
C         -5.30510       -4.48010       -1.79740
O         -4.04020       -4.56990       -1.10710
C         -3.14400       -3.56240       -1.19970
C         -2.20300       -3.43310       -0.18590
C         -5.73750       -5.95780       -1.89260
C         -7.22620       -6.26040       -1.99310
C         -6.21950       -3.60060       -0.90540
C         -7.41550       -2.95760       -1.59660
C         -5.91000       -3.95340       -4.28550
C         -5.48940       -3.16140       -5.34190
S         -4.08750       -2.22290       -4.88680
C         -6.16220       -3.01330       -6.57510
C         -5.75670       -2.38920       -7.71390
C         -6.76690       -1.89670       -8.68820
O         -7.93000       -2.22540       -8.75660
C         -6.06060       -0.87970       -9.49310
C         -6.61140       -0.02120      -10.44180
C         -5.70660        0.84720      -11.00400
C         -4.35160        0.87230      -10.64590
C         -3.79130        0.02700       -9.71790
C         -4.69350       -0.87000       -9.14270
C         -4.46210       -1.92870       -8.16460
C         -3.26820       -2.56350       -7.94150
C         -2.03550       -2.13990       -8.47360
N         -1.00300       -1.82450       -8.86510
C         -3.17890       -3.78100       -7.23450
N         -3.08630       -4.79920       -6.71250
C         -4.03780        1.99580      -11.60170
C         -3.31680        1.63430      -12.92350
C         -3.67550        0.20070      -13.22750
C         -4.95590        0.16870      -13.57220
C         -5.48600        1.57980      -13.50740
C         -4.22950        2.36060      -13.92460
C         -5.54500        1.96160      -12.00730
H          5.82120        2.60320        3.54940
H          5.01010        3.03060        9.72670
H          8.33150        5.80350        7.09220
H          7.47910        7.39710       10.00000
H          9.90180        6.33020       10.29590
H          9.31220        7.67560       12.47500
H          7.58160        6.24020       13.89020
H          7.10630        4.01110       12.58340
H          9.66040        4.26850       11.93840
H          8.74530        3.91060       10.45610
H          5.78250        5.99000       11.38730
H          2.15430       -3.43240        6.00580
H          3.21840       -2.14170        6.58970
H          3.57570       -3.67840        3.96870
H          4.47520       -3.99760        5.45330
H          4.69230       -2.46620        4.60550
H          0.39960       -0.20900        5.10980
H          1.47600       -0.28950        6.50820
H         -0.84500       -1.26380        6.88680
H          0.45200       -2.40470        7.23160
H         -0.45110       -2.52660        5.71670
H          4.11230        0.05390        5.99570
H         -0.45410       -3.35230        2.34450
H          1.99670        0.53840        0.45470
H          0.43150        1.47680       -1.35880
H         -0.85840        0.98040       -2.45600
H         -1.10670        1.16270        0.58190
H         -1.77870        2.30200       -0.58690
H         -2.38760        0.64640       -0.51480
H          1.45630       -2.00880       -2.00010
H          1.95150       -0.31800       -2.06790
H          1.65200       -1.21380       -4.32170
H          0.42910        0.01900       -4.04430
H         -0.00230       -1.69560       -3.97180
H         -2.14050       -1.03640       -3.25470
H         -2.24300       -4.10150        0.65870
H         -5.21750       -6.39860       -2.74590
H         -5.34730       -6.43640       -0.99140
H         -7.76670       -5.89020       -1.12670
H         -7.35910       -7.33930       -2.03470
H         -7.67010       -5.83770       -2.88940
H         -6.55050       -4.20540       -0.05990
H         -5.58810       -2.80130       -0.50500
H         -8.07730       -3.69800       -2.03260
H         -7.09220       -2.27930       -2.38280
H         -7.98150       -2.38250       -0.86710
H         -6.76060       -4.60220       -4.37720
H         -7.19090       -3.36160       -6.58290
H         -7.66080       -0.06520      -10.68770
H         -2.74990        0.05470       -9.44060
H         -3.65160        2.90930      -11.15350
H         -2.25810        1.87830      -12.94160
H         -2.99760       -0.62380      -13.10750
H         -5.56210       -0.68880      -13.79840
H         -6.40240        1.77440      -14.05850
H         -4.30480        3.43230      -13.74510
H         -3.94610        2.18000      -14.96030
H         -6.14190        2.85440      -11.83020
