116

C         -2.60300       -2.55520        6.28390
C         -3.44330       -3.33570        5.54540
C         -4.81850       -3.60310        6.03470
O         -5.25030       -3.36250        7.14190
C         -5.54180       -4.17340        4.88150
C         -6.89130       -4.51160        4.81320
C         -7.28020       -5.02480        3.59900
C         -6.39710       -5.17840        2.52170
C         -5.06360       -4.84990        2.57350
C         -4.64520       -4.34110        3.80500
C         -3.30750       -3.96010        4.25020
C         -2.13160       -4.36340        3.66830
C         -2.03440       -4.99440        2.41440
N         -1.88310       -5.47860        1.38380
C         -0.88400       -4.26300        4.31660
N          0.13530       -4.25040        4.84600
C         -7.46270       -5.75990        1.62720
C         -7.44890       -7.29210        1.40160
C         -6.79230       -7.89830        2.61720
C         -7.62630       -7.75920        3.63900
C         -8.86160       -7.05610        3.13290
C         -8.92180       -7.61250        1.70140
C         -8.44520       -5.59510        2.82930
C         -1.44970       -1.86810        5.83400
C         -0.28460       -1.48380        6.50050
O          0.14240       -1.73800        7.73960
C         -0.67400       -2.36860        8.70810
C         -1.60040       -1.37850        9.40620
C          0.60560       -0.80240        5.63930
S          2.19630       -0.13820        5.90610
C          2.22720        0.36520        4.25270
C          3.05860        1.06920        3.36830
C          4.27700        1.74750        3.59020
C          4.83560        2.52970        2.52650
N          5.94210        3.15970        2.88870
S          6.25720        2.79400        4.43350
N          4.99180        1.82140        4.70200
C          4.20940        2.50700        1.26090
C          4.58080        3.09490        0.04350
S          5.80340        4.14320       -0.58540
C          5.07380        3.98400       -2.17110
C          5.37140        4.52920       -3.41770
O          6.37420        5.40850       -3.66770
C          7.60670        4.85950       -4.14060
C          8.31400        4.00670       -3.09720
C          4.44850        4.12740       -4.40600
S          3.22360        3.05000       -3.76100
C          3.94170        3.15140       -2.19340
C          3.66650        2.65070       -0.91760
N          2.73030        1.83030       -0.33940
C          3.03560        1.73690        1.00980
C          2.39240        1.10610        2.10820
N          1.16840        0.48080        2.25060
C          1.07300        0.02680        3.53680
C          0.13970       -0.63790        4.33730
S         -1.42260       -1.34050        4.14280
C         -0.00390        0.46880        1.40730
C         -0.23600       -0.90310        0.77450
C          2.05220        0.88680       -1.20450
C          2.89880       -0.36880       -1.40430
C          4.54250        4.59460       -5.72200
C          3.72050        4.38270       -6.79830
C          2.43730        3.66560       -6.76830
O          1.98940        3.00810       -5.84520
C          1.80640        3.92120       -8.07110
C          0.54740        3.52410       -8.52980
O         -0.21580        2.79350       -7.70160
C         -1.49640        2.38750       -8.12350
C          0.18230        3.92650       -9.82070
C          1.04000        4.68480      -10.59650
C          2.29260        5.07730      -10.14270
C          2.67220        4.68820       -8.87040
C          3.90530        4.93280       -8.12140
C          5.04440        5.50690       -8.62500
C          6.27170        5.60070       -7.93630
N          7.31220        5.67300       -7.45440
C          5.16250        6.02980       -9.92900
N          5.32470        6.48120      -10.97240
H         -2.94810       -2.37360        7.29560
H         -7.54090       -4.37580        5.66370
H         -4.39230       -4.96710        1.73850
H         -7.67620       -5.20720        0.71440
H         -7.05380       -7.60290        0.43810
H         -5.79650       -8.30130        2.62100
H         -7.46660       -8.02300        4.66810
H         -9.75410       -7.15280        3.74560
H         -9.62160       -7.08090        1.05790
H         -9.13450       -8.68010        1.67350
H         -9.30310       -4.93770        2.70110
H         -1.23230       -3.19480        8.25370
H          0.03720       -2.78150        9.42900
H         -2.24160       -0.86690        8.69160
H         -1.01130       -0.62930        9.92920
H         -2.22320       -1.90380       10.12450
H          8.20290        5.73760       -4.39370
H          7.43220        4.27820       -5.05490
H          9.29370        3.72250       -3.47050
H          8.43410        4.56630       -2.17280
H          7.74630        3.10270       -2.88540
H          0.08290        1.26310        0.66500
H         -0.86440        0.70880        2.04210
H         -1.07280       -0.85670        0.08320
H         -0.47120       -1.63130        1.54640
H          0.64470       -1.25190        0.24260
H          1.90600        1.38950       -2.16390
H          1.07780        0.61850       -0.81290
H          2.38320       -1.06090       -2.06400
H          3.08590       -0.86070       -0.45140
H          3.85560       -0.11140       -1.85200
H          5.38510        5.26110       -5.86830
H         -1.91070        1.82250       -7.29050
H         -2.14070        3.24690       -8.33440
H         -1.44380        1.74370       -9.00700
H         -0.77810        3.64920      -10.22550
H          0.72380        4.98070      -11.58550
H          2.93340        5.67170      -10.77130
