
  xtb     02102223543D
 energy: -169.097710779151 gnorm: 0.000792986017 xtb: 6.4.1 (unknown)
 97108  0     0  0            999 V2000
   -1.0850   -5.8846   -1.5627 C   0  0  0  0  0  0  0  0  0  0  0  0
    0.2333   -6.2009   -1.5290 C   0  0  0  0  0  0  0  0  0  0  0  0
    0.7428   -7.3184   -2.3706 C   0  0  0  0  0  0  0  0  0  0  0  0
    0.0831   -8.1764   -2.9124 O   0  0  0  0  0  0  0  0  0  0  0  0
    2.2029   -7.1162   -2.4473 C   0  0  0  0  0  0  0  0  0  0  0  0
    3.1129   -7.8292   -3.2259 C   0  0  0  0  0  0  0  0  0  0  0  0
    4.4110   -7.3935   -3.1110 C   0  0  0  0  0  0  0  0  0  0  0  0
    4.7819   -6.3191   -2.2905 C   0  0  0  0  0  0  0  0  0  0  0  0
    3.8981   -5.6098   -1.5133 C   0  0  0  0  0  0  0  0  0  0  0  0
    2.5723   -6.0446   -1.6072 C   0  0  0  0  0  0  0  0  0  0  0  0
    1.3821   -5.5733   -0.9044 C   0  0  0  0  0  0  0  0  0  0  0  0
    1.3824   -4.8667    0.2700 C   0  0  0  0  0  0  0  0  0  0  0  0
    0.2378   -4.6851    1.0754 C   0  0  0  0  0  0  0  0  0  0  0  0
   -0.6366   -4.5608    1.8083 N   0  0  0  0  0  0  0  0  0  0  0  0
    2.5241   -4.2710    0.8393 C   0  0  0  0  0  0  0  0  0  0  0  0
    3.4076   -3.7164    1.3205 N   0  0  0  0  0  0  0  0  0  0  0  0
    6.2383   -6.4304   -2.6667 C   0  0  0  0  0  0  0  0  0  0  0  0
    7.1676   -7.0911   -1.6265 C   0  0  0  0  0  0  0  0  0  0  0  0
    8.3812   -7.4964   -2.4315 C   0  0  0  0  0  0  0  0  0  0  0  0
    8.0308   -8.5172   -3.2035 C   0  0  0  0  0  0  0  0  0  0  0  0
    6.5743   -8.8189   -2.9335 C   0  0  0  0  0  0  0  0  0  0  0  0
    6.5032   -8.4618   -1.4432 C   0  0  0  0  0  0  0  0  0  0  0  0
    5.8259   -7.6318   -3.5766 C   0  0  0  0  0  0  0  0  0  0  0  0
   -1.7374   -4.6799   -1.1335 C   0  0  0  0  0  0  0  0  0  0  0  0
   -3.1026   -4.7299   -0.7873 C   0  0  0  0  0  0  0  0  0  0  0  0
   -3.7831   -3.6266   -0.3294 C   0  0  0  0  0  0  0  0  0  0  0  0
   -3.0928   -2.4214   -0.2309 C   0  0  0  0  0  0  0  0  0  0  0  0
   -3.5177   -1.1950    0.1887 N   0  0  0  0  0  0  0  0  0  0  0  0
   -4.8155   -0.9008    0.7377 C   0  0  0  0  0  0  0  0  0  0  0  0
   -4.8540   -1.1479    2.2446 C   0  0  0  0  0  0  0  0  0  0  0  0
   -2.4571   -0.3133    0.1383 C   0  0  0  0  0  0  0  0  0  0  0  0
   -1.3166   -0.9879   -0.3770 C   0  0  0  0  0  0  0  0  0  0  0  0
   -1.7294   -2.3406   -0.6188 C   0  0  0  0  0  0  0  0  0  0  0  0
   -1.0631   -3.4571   -1.0764 C   0  0  0  0  0  0  0  0  0  0  0  0
   -0.0925   -0.3505   -0.5129 C   0  0  0  0  0  0  0  0  0  0  0  0
   -0.0455    0.9784   -0.1339 C   0  0  0  0  0  0  0  0  0  0  0  0
   -1.1897    1.6602    0.3611 C   0  0  0  0  0  0  0  0  0  0  0  0
   -2.4104    1.0200    0.5081 C   0  0  0  0  0  0  0  0  0  0  0  0
   -0.7611    3.0040    0.6416 C   0  0  0  0  0  0  0  0  0  0  0  0
   -1.4056    4.1188    1.1257 C   0  0  0  0  0  0  0  0  0  0  0  0
   -0.7003    5.3283    1.2546 C   0  0  0  0  0  0  0  0  0  0  0  0
    0.6819    5.3492    0.9640 C   0  0  0  0  0  0  0  0  0  0  0  0
    1.3458    4.2369    0.5091 C   0  0  0  0  0  0  0  0  0  0  0  0
    0.6235    3.0602    0.3148 C   0  0  0  0  0  0  0  0  0  0  0  0
    1.0268    1.8514   -0.1581 N   0  0  0  0  0  0  0  0  0  0  0  0
    2.3707    1.4891   -0.5264 C   0  0  0  0  0  0  0  0  0  0  0  0
    3.1255    0.8669    0.6473 C   0  0  0  0  0  0  0  0  0  0  0  0
   -1.4303    6.4581    1.7289 C   0  0  0  0  0  0  0  0  0  0  0  0
   -1.2020    7.7996    1.5885 C   0  0  0  0  0  0  0  0  0  0  0  0
   -0.2837    8.4644    0.6357 C   0  0  0  0  0  0  0  0  0  0  0  0
    0.5627    7.9787   -0.0819 O   0  0  0  0  0  0  0  0  0  0  0  0
   -0.6593    9.8985    0.6646 C   0  0  0  0  0  0  0  0  0  0  0  0
   -0.1305   10.9280   -0.0884 C   0  0  0  0  0  0  0  0  0  0  0  0
   -0.6550   12.1961    0.0993 C   0  0  0  0  0  0  0  0  0  0  0  0
   -0.1730   13.2257   -0.6087 F   0  0  0  0  0  0  0  0  0  0  0  0
   -1.6836   12.4108    1.0173 C   0  0  0  0  0  0  0  0  0  0  0  0
   -2.1777   13.6450    1.1717 F   0  0  0  0  0  0  0  0  0  0  0  0
   -2.2134   11.3766    1.7739 C   0  0  0  0  0  0  0  0  0  0  0  0
   -1.6909   10.1048    1.5931 C   0  0  0  0  0  0  0  0  0  0  0  0
   -2.0193    8.8245    2.2157 C   0  0  0  0  0  0  0  0  0  0  0  0
   -2.8923    8.6564    3.2585 C   0  0  0  0  0  0  0  0  0  0  0  0
   -3.1511    7.4403    3.9268 C   0  0  0  0  0  0  0  0  0  0  0  0
   -3.4131    6.5044    4.5386 N   0  0  0  0  0  0  0  0  0  0  0  0
   -3.6445    9.7026    3.8337 C   0  0  0  0  0  0  0  0  0  0  0  0
   -4.2878   10.5071    4.3402 N   0  0  0  0  0  0  0  0  0  0  0  0
   -1.7188   -6.6334   -2.0281 H   0  0  0  0  0  0  0  0  0  0  0  0
    2.7868   -8.6460   -3.8502 H   0  0  0  0  0  0  0  0  0  0  0  0
    4.1915   -4.7800   -0.8913 H   0  0  0  0  0  0  0  0  0  0  0  0
    6.6779   -5.5507   -3.1331 H   0  0  0  0  0  0  0  0  0  0  0  0
    7.3466   -6.4974   -0.7344 H   0  0  0  0  0  0  0  0  0  0  0  0
    9.3231   -6.9809   -2.3981 H   0  0  0  0  0  0  0  0  0  0  0  0
    8.6215   -9.0244   -3.9436 H   0  0  0  0  0  0  0  0  0  0  0  0
    6.2143   -9.7997   -3.2320 H   0  0  0  0  0  0  0  0  0  0  0  0
    7.1043   -9.1315   -0.8307 H   0  0  0  0  0  0  0  0  0  0  0  0
    5.4913   -8.4151   -1.0451 H   0  0  0  0  0  0  0  0  0  0  0  0
    5.9925   -7.5549   -4.6495 H   0  0  0  0  0  0  0  0  0  0  0  0
   -3.6135   -5.6789   -0.8531 H   0  0  0  0  0  0  0  0  0  0  0  0
   -4.8215   -3.7056   -0.0469 H   0  0  0  0  0  0  0  0  0  0  0  0
   -5.0545    0.1431    0.5191 H   0  0  0  0  0  0  0  0  0  0  0  0
   -5.5540   -1.5297    0.2338 H   0  0  0  0  0  0  0  0  0  0  0  0
   -4.1315   -0.5117    2.7501 H   0  0  0  0  0  0  0  0  0  0  0  0
   -5.8449   -0.9314    2.6344 H   0  0  0  0  0  0  0  0  0  0  0  0
   -4.6088   -2.1847    2.4617 H   0  0  0  0  0  0  0  0  0  0  0  0
   -0.0409   -3.3781   -1.4144 H   0  0  0  0  0  0  0  0  0  0  0  0
    0.7700   -0.8804   -0.8845 H   0  0  0  0  0  0  0  0  0  0  0  0
   -3.2655    1.5444    0.9036 H   0  0  0  0  0  0  0  0  0  0  0  0
   -2.4548    4.0785    1.3786 H   0  0  0  0  0  0  0  0  0  0  0  0
    1.2364    6.2562    1.1284 H   0  0  0  0  0  0  0  0  0  0  0  0
    2.4056    4.2829    0.3126 H   0  0  0  0  0  0  0  0  0  0  0  0
    2.8868    2.3872   -0.8737 H   0  0  0  0  0  0  0  0  0  0  0  0
    2.3217    0.7824   -1.3595 H   0  0  0  0  0  0  0  0  0  0  0  0
    4.1364    0.6076    0.3456 H   0  0  0  0  0  0  0  0  0  0  0  0
    2.6237   -0.0350    0.9896 H   0  0  0  0  0  0  0  0  0  0  0  0
    3.1768    1.5685    1.4766 H   0  0  0  0  0  0  0  0  0  0  0  0
   -2.3449    6.1914    2.2474 H   0  0  0  0  0  0  0  0  0  0  0  0
    0.6622   10.7552   -0.7987 H   0  0  0  0  0  0  0  0  0  0  0  0
   -3.0106   11.5944    2.4654 H   0  0  0  0  0  0  0  0  0  0  0  0
  1  2  2  0  0  0  0
  2  3  1  0  0  0  0
  3  4  2  0  0  0  0
  3  5  1  0  0  0  0
  5  6  2  0  0  0  0
  6  7  1  0  0  0  0
  7  8  2  0  0  0  0
  8  9  1  0  0  0  0
  9 10  2  0  0  0  0
 10 11  1  0  0  0  0
 11 12  2  0  0  0  0
 12 13  1  0  0  0  0
 13 14  3  0  0  0  0
 12 15  1  0  0  0  0
 15 16  3  0  0  0  0
  8 17  1  0  0  0  0
 17 18  1  0  0  0  0
 18 19  1  0  0  0  0
 19 20  2  0  0  0  0
 20 21  1  0  0  0  0
 21 22  1  0  0  0  0
 21 23  1  0  0  0  0
  1 24  1  0  0  0  0
 24 25  2  0  0  0  0
 25 26  1  0  0  0  0
 26 27  2  0  0  0  0
 27 28  1  0  0  0  0
 28 29  1  0  0  0  0
 29 30  1  0  0  0  0
 28 31  1  0  0  0  0
 31 32  2  0  0  0  0
 32 33  1  0  0  0  0
 33 34  2  0  0  0  0
 32 35  1  0  0  0  0
 35 36  2  0  0  0  0
 36 37  1  0  0  0  0
 37 38  2  0  0  0  0
 37 39  1  0  0  0  0
 39 40  2  0  0  0  0
 40 41  1  0  0  0  0
 41 42  2  0  0  0  0
 42 43  1  0  0  0  0
 43 44  2  0  0  0  0
 44 45  1  0  0  0  0
 45 46  1  0  0  0  0
 46 47  1  0  0  0  0
 41 48  1  0  0  0  0
 48 49  2  0  0  0  0
 49 50  1  0  0  0  0
 50 51  2  0  0  0  0
 50 52  1  0  0  0  0
 52 53  2  0  0  0  0
 53 54  1  0  0  0  0
 54 55  1  0  0  0  0
 54 56  2  0  0  0  0
 56 57  1  0  0  0  0
 56 58  1  0  0  0  0
 58 59  2  0  0  0  0
 59 60  1  0  0  0  0
 60 61  2  0  0  0  0
 61 62  1  0  0  0  0
 62 63  3  0  0  0  0
 61 64  1  0  0  0  0
 64 65  3  0  0  0  0
 11  2  1  0  0  0  0
 23 17  1  0  0  0  0
 34 24  1  0  0  0  0
 45 36  1  0  0  0  0
 60 49  1  0  0  0  0
 10  5  1  0  0  0  0
 22 18  1  0  0  0  0
 33 27  1  0  0  0  0
 44 39  1  0  0  0  0
 59 52  1  0  0  0  0
 23  7  1  0  0  0  0
 38 31  1  0  0  0  0
  1 66  1  0  0  0  0
  6 67  1  0  0  0  0
  9 68  1  0  0  0  0
 17 69  1  0  0  0  0
 18 70  1  0  0  0  0
 19 71  1  0  0  0  0
 20 72  1  0  0  0  0
 21 73  1  0  0  0  0
 22 74  1  0  0  0  0
 22 75  1  0  0  0  0
 23 76  1  0  0  0  0
 25 77  1  0  0  0  0
 26 78  1  0  0  0  0
 29 79  1  0  0  0  0
 29 80  1  0  0  0  0
 30 81  1  0  0  0  0
 30 82  1  0  0  0  0
 30 83  1  0  0  0  0
 34 84  1  0  0  0  0
 35 85  1  0  0  0  0
 38 86  1  0  0  0  0
 40 87  1  0  0  0  0
 42 88  1  0  0  0  0
 43 89  1  0  0  0  0
 46 90  1  0  0  0  0
 46 91  1  0  0  0  0
 47 92  1  0  0  0  0
 47 93  1  0  0  0  0
 47 94  1  0  0  0  0
 48 95  1  0  0  0  0
 53 96  1  0  0  0  0
 58 97  1  0  0  0  0
M  END
