
  xtb     02022222593D
 energy: -204.517198141957 gnorm: 0.000462104704 xtb: 6.4.1 (unknown)
112126  0     0  0            999 V2000
    5.1797    4.9634    1.4229 C   0  0  0  0  0  0  0  0  0  0  0  0
    4.4927    5.5190    2.4604 C   0  0  0  0  0  0  0  0  0  0  0  0
    5.2076    6.1914    3.5739 C   0  0  0  0  0  0  0  0  0  0  0  0
    6.3729    6.5194    3.5997 O   0  0  0  0  0  0  0  0  0  0  0  0
    4.2073    6.3214    4.6548 C   0  0  0  0  0  0  0  0  0  0  0  0
    4.4188    6.7937    5.9484 C   0  0  0  0  0  0  0  0  0  0  0  0
    3.2943    6.7866    6.7389 C   0  0  0  0  0  0  0  0  0  0  0  0
    2.0492    6.3311    6.2850 C   0  0  0  0  0  0  0  0  0  0  0  0
    1.8233    5.8657    5.0115 C   0  0  0  0  0  0  0  0  0  0  0  0
    2.9520    5.8776    4.1884 C   0  0  0  0  0  0  0  0  0  0  0  0
    3.0841    5.5236    2.7778 C   0  0  0  0  0  0  0  0  0  0  0  0
    2.0590    5.4996    1.8644 C   0  0  0  0  0  0  0  0  0  0  0  0
    0.6942    5.5675    2.2003 C   0  0  0  0  0  0  0  0  0  0  0  0
   -0.4339    5.5891    2.4163 N   0  0  0  0  0  0  0  0  0  0  0  0
    2.2718    5.5017    0.4708 C   0  0  0  0  0  0  0  0  0  0  0  0
    2.4082    5.5606   -0.6684 N   0  0  0  0  0  0  0  0  0  0  0  0
    1.3751    6.6113    7.6049 C   0  0  0  0  0  0  0  0  0  0  0  0
    0.4957    7.8780    7.6699 C   0  0  0  0  0  0  0  0  0  0  0  0
    0.3712    8.1566    9.1503 C   0  0  0  0  0  0  0  0  0  0  0  0
    1.5486    8.5930    9.5790 C   0  0  0  0  0  0  0  0  0  0  0  0
    2.4887    8.6169    8.3954 C   0  0  0  0  0  0  0  0  0  0  0  0
    1.4979    8.9719    7.2792 C   0  0  0  0  0  0  0  0  0  0  0  0
    2.7617    7.1247    8.1096 C   0  0  0  0  0  0  0  0  0  0  0  0
    4.7456    3.9696    0.5229 C   0  0  0  0  0  0  0  0  0  0  0  0
    5.3038    3.7332   -0.7385 C   0  0  0  0  0  0  0  0  0  0  0  0
    6.3294    4.4928   -1.1376 O   0  0  0  0  0  0  0  0  0  0  0  0
    6.6193    4.5889   -2.5255 C   0  0  0  0  0  0  0  0  0  0  0  0
    5.5627    5.3962   -3.2673 C   0  0  0  0  0  0  0  0  0  0  0  0
    4.6478    2.6829   -1.4105 C   0  0  0  0  0  0  0  0  0  0  0  0
    4.8099    1.9431   -2.9941 S   0  0  0  0  0  0  0  0  0  0  0  0
    3.5043    0.8786   -2.6219 C   0  0  0  0  0  0  0  0  0  0  0  0
    2.7731   -0.1603   -3.2224 C   0  0  0  0  0  0  0  0  0  0  0  0
    2.9240   -0.8754   -4.4327 C   0  0  0  0  0  0  0  0  0  0  0  0
    2.0629   -1.9992   -4.6952 C   0  0  0  0  0  0  0  0  0  0  0  0
    2.3691   -2.6114   -5.8277 N   0  0  0  0  0  0  0  0  0  0  0  0
    3.6187   -1.8444   -6.5099 S   0  0  0  0  0  0  0  0  0  0  0  0
    3.8248   -0.6984   -5.3860 N   0  0  0  0  0  0  0  0  0  0  0  0
    0.9931   -2.2697   -3.8108 C   0  0  0  0  0  0  0  0  0  0  0  0
   -0.0909   -3.1644   -3.8635 C   0  0  0  0  0  0  0  0  0  0  0  0
   -0.6752   -4.4532   -4.8557 S   0  0  0  0  0  0  0  0  0  0  0  0
   -2.0712   -4.5788   -3.8165 C   0  0  0  0  0  0  0  0  0  0  0  0
   -3.2059   -5.4151   -3.8666 C   0  0  0  0  0  0  0  0  0  0  0  0
   -3.3656   -6.1886   -4.9404 O   0  0  0  0  0  0  0  0  0  0  0  0
   -4.6334   -6.6220   -5.3944 C   0  0  0  0  0  0  0  0  0  0  0  0
   -5.6133   -5.4813   -5.6412 C   0  0  0  0  0  0  0  0  0  0  0  0
   -4.0566   -5.1736   -2.7756 C   0  0  0  0  0  0  0  0  0  0  0  0
   -3.4957   -3.8034   -1.8022 S   0  0  0  0  0  0  0  0  0  0  0  0
   -2.0710   -3.6622   -2.7626 C   0  0  0  0  0  0  0  0  0  0  0  0
   -0.9358   -2.8488   -2.7890 C   0  0  0  0  0  0  0  0  0  0  0  0
   -0.4099   -1.8099   -2.0602 N   0  0  0  0  0  0  0  0  0  0  0  0
    0.7884   -1.4675   -2.6578 C   0  0  0  0  0  0  0  0  0  0  0  0
    1.7733   -0.5278   -2.2845 C   0  0  0  0  0  0  0  0  0  0  0  0
    1.9351    0.2047   -1.1239 N   0  0  0  0  0  0  0  0  0  0  0  0
    2.9786    1.0703   -1.3382 C   0  0  0  0  0  0  0  0  0  0  0  0
    3.6314    2.0949   -0.6483 C   0  0  0  0  0  0  0  0  0  0  0  0
    3.4613    2.8330    0.8990 S   0  0  0  0  0  0  0  0  0  0  0  0
    1.5891   -0.2216    0.2175 C   0  0  0  0  0  0  0  0  0  0  0  0
    2.7978   -0.8214    0.9355 C   0  0  0  0  0  0  0  0  0  0  0  0
   -1.2846   -0.9217   -1.3180 C   0  0  0  0  0  0  0  0  0  0  0  0
   -2.3474   -0.3047   -2.2264 C   0  0  0  0  0  0  0  0  0  0  0  0
   -5.1993   -5.8391   -2.3081 C   0  0  0  0  0  0  0  0  0  0  0  0
   -5.4416   -7.1870   -2.4288 C   0  0  0  0  0  0  0  0  0  0  0  0
   -4.3680   -8.1874   -2.6293 C   0  0  0  0  0  0  0  0  0  0  0  0
   -3.2004   -7.9733   -2.8751 O   0  0  0  0  0  0  0  0  0  0  0  0
   -5.0052   -9.4936   -2.3471 C   0  0  0  0  0  0  0  0  0  0  0  0
   -4.4573  -10.7651   -2.3627 C   0  0  0  0  0  0  0  0  0  0  0  0
   -2.8096  -11.0131   -2.7756 Cl  0  0  0  0  0  0  0  0  0  0  0  0
   -5.2724  -11.8508   -2.0458 C   0  0  0  0  0  0  0  0  0  0  0  0
   -6.6002  -11.6519   -1.7134 C   0  0  0  0  0  0  0  0  0  0  0  0
   -7.1636  -10.3809   -1.6941 C   0  0  0  0  0  0  0  0  0  0  0  0
   -6.3608   -9.3013   -2.0165 C   0  0  0  0  0  0  0  0  0  0  0  0
   -6.6631   -7.8737   -2.1019 C   0  0  0  0  0  0  0  0  0  0  0  0
   -7.9045   -7.2960   -2.0101 C   0  0  0  0  0  0  0  0  0  0  0  0
   -8.1410   -5.9306   -2.2702 C   0  0  0  0  0  0  0  0  0  0  0  0
   -8.3882   -4.8363   -2.5166 N   0  0  0  0  0  0  0  0  0  0  0  0
   -9.0877   -7.9955   -1.7032 C   0  0  0  0  0  0  0  0  0  0  0  0
  -10.0805   -8.5123   -1.4469 N   0  0  0  0  0  0  0  0  0  0  0  0
    6.2100    5.2815    1.3012 H   0  0  0  0  0  0  0  0  0  0  0  0
    5.3940    7.1307    6.2631 H   0  0  0  0  0  0  0  0  0  0  0  0
    0.8645    5.5097    4.6714 H   0  0  0  0  0  0  0  0  0  0  0  0
    0.9249    5.7538    8.1015 H   0  0  0  0  0  0  0  0  0  0  0  0
   -0.4288    7.8193    7.1021 H   0  0  0  0  0  0  0  0  0  0  0  0
   -0.5151    7.9613    9.7252 H   0  0  0  0  0  0  0  0  0  0  0  0
    1.8424    8.8351   10.5836 H   0  0  0  0  0  0  0  0  0  0  0  0
    3.3789    9.2329    8.4901 H   0  0  0  0  0  0  0  0  0  0  0  0
    1.9029    8.8646    6.2747 H   0  0  0  0  0  0  0  0  0  0  0  0
    1.0835    9.9714    7.3995 H   0  0  0  0  0  0  0  0  0  0  0  0
    3.2355    6.6114    8.9444 H   0  0  0  0  0  0  0  0  0  0  0  0
    6.7303    3.5916   -2.9657 H   0  0  0  0  0  0  0  0  0  0  0  0
    7.5853    5.0984   -2.5585 H   0  0  0  0  0  0  0  0  0  0  0  0
    4.5910    4.9132   -3.2015 H   0  0  0  0  0  0  0  0  0  0  0  0
    5.8405    5.4858   -4.3131 H   0  0  0  0  0  0  0  0  0  0  0  0
    5.4807    6.3891   -2.8324 H   0  0  0  0  0  0  0  0  0  0  0  0
   -4.3981   -7.1294   -6.3339 H   0  0  0  0  0  0  0  0  0  0  0  0
   -5.0751   -7.3547   -4.7070 H   0  0  0  0  0  0  0  0  0  0  0  0
   -6.4821   -5.8667   -6.1668 H   0  0  0  0  0  0  0  0  0  0  0  0
   -5.1447   -4.7134   -6.2524 H   0  0  0  0  0  0  0  0  0  0  0  0
   -5.9501   -5.0325   -4.7093 H   0  0  0  0  0  0  0  0  0  0  0  0
    0.8145   -0.9839    0.1581 H   0  0  0  0  0  0  0  0  0  0  0  0
    1.2158    0.6425    0.7764 H   0  0  0  0  0  0  0  0  0  0  0  0
    3.5789   -0.0796    1.0752 H   0  0  0  0  0  0  0  0  0  0  0  0
    2.4929   -1.1874    1.9118 H   0  0  0  0  0  0  0  0  0  0  0  0
    3.2012   -1.6526    0.3610 H   0  0  0  0  0  0  0  0  0  0  0  0
   -0.6945   -0.1151   -0.8882 H   0  0  0  0  0  0  0  0  0  0  0  0
   -1.7650   -1.4937   -0.5182 H   0  0  0  0  0  0  0  0  0  0  0  0
   -2.9476    0.3966   -1.6540 H   0  0  0  0  0  0  0  0  0  0  0  0
   -3.0049   -1.0663   -2.6352 H   0  0  0  0  0  0  0  0  0  0  0  0
   -1.8747    0.2293   -3.0479 H   0  0  0  0  0  0  0  0  0  0  0  0
   -5.8802   -5.2429   -1.7110 H   0  0  0  0  0  0  0  0  0  0  0  0
   -4.8551  -12.8450   -2.0623 H   0  0  0  0  0  0  0  0  0  0  0  0
   -7.2144  -12.5035   -1.4637 H   0  0  0  0  0  0  0  0  0  0  0  0
   -8.1996  -10.2517   -1.4271 H   0  0  0  0  0  0  0  0  0  0  0  0
  1  2  2  0  0  0  0
  2  3  1  0  0  0  0
  3  4  2  0  0  0  0
  3  5  1  0  0  0  0
  5  6  2  0  0  0  0
  6  7  1  0  0  0  0
  7  8  2  0  0  0  0
  8  9  1  0  0  0  0
  9 10  2  0  0  0  0
 10 11  1  0  0  0  0
 11 12  2  0  0  0  0
 12 13  1  0  0  0  0
 13 14  3  0  0  0  0
 12 15  1  0  0  0  0
 15 16  3  0  0  0  0
  8 17  1  0  0  0  0
 17 18  1  0  0  0  0
 18 19  1  0  0  0  0
 19 20  2  0  0  0  0
 20 21  1  0  0  0  0
 21 22  1  0  0  0  0
 21 23  1  0  0  0  0
  1 24  1  0  0  0  0
 24 25  2  0  0  0  0
 25 26  1  0  0  0  0
 26 27  1  0  0  0  0
 27 28  1  0  0  0  0
 25 29  1  0  0  0  0
 29 30  1  0  0  0  0
 30 31  1  0  0  0  0
 31 32  1  0  0  0  0
 32 33  1  0  0  0  0
 33 34  1  0  0  0  0
 34 35  2  0  0  0  0
 35 36  1  0  0  0  0
 36 37  1  0  0  0  0
 34 38  1  0  0  0  0
 38 39  1  0  0  0  0
 39 40  1  0  0  0  0
 40 41  1  0  0  0  0
 41 42  1  0  0  0  0
 42 43  1  0  0  0  0
 43 44  1  0  0  0  0
 44 45  1  0  0  0  0
 42 46  2  0  0  0  0
 46 47  1  0  0  0  0
 47 48  1  0  0  0  0
 48 49  1  0  0  0  0
 49 50  1  0  0  0  0
 50 51  1  0  0  0  0
 51 52  1  0  0  0  0
 52 53  1  0  0  0  0
 53 54  1  0  0  0  0
 54 55  1  0  0  0  0
 55 56  1  0  0  0  0
 53 57  1  0  0  0  0
 57 58  1  0  0  0  0
 50 59  1  0  0  0  0
 59 60  1  0  0  0  0
 46 61  1  0  0  0  0
 61 62  2  0  0  0  0
 62 63  1  0  0  0  0
 63 64  2  0  0  0  0
 63 65  1  0  0  0  0
 65 66  2  0  0  0  0
 66 67  1  0  0  0  0
 66 68  1  0  0  0  0
 68 69  2  0  0  0  0
 69 70  1  0  0  0  0
 70 71  2  0  0  0  0
 71 72  1  0  0  0  0
 72 73  2  0  0  0  0
 73 74  1  0  0  0  0
 74 75  3  0  0  0  0
 73 76  1  0  0  0  0
 76 77  3  0  0  0  0
 11  2  1  0  0  0  0
 23 17  1  0  0  0  0
 56 24  1  0  0  0  0
 72 62  1  0  0  0  0
 10  5  1  0  0  0  0
 22 18  1  0  0  0  0
 55 29  2  0  0  0  0
 71 65  1  0  0  0  0
 23  7  1  0  0  0  0
 54 31  2  0  0  0  0
 52 32  2  0  0  0  0
 37 33  2  0  0  0  0
 51 38  2  0  0  0  0
 49 39  2  0  0  0  0
 48 41  2  0  0  0  0
  1 78  1  0  0  0  0
  6 79  1  0  0  0  0
  9 80  1  0  0  0  0
 17 81  1  0  0  0  0
 18 82  1  0  0  0  0
 19 83  1  0  0  0  0
 20 84  1  0  0  0  0
 21 85  1  0  0  0  0
 22 86  1  0  0  0  0
 22 87  1  0  0  0  0
 23 88  1  0  0  0  0
 27 89  1  0  0  0  0
 27 90  1  0  0  0  0
 28 91  1  0  0  0  0
 28 92  1  0  0  0  0
 28 93  1  0  0  0  0
 44 94  1  0  0  0  0
 44 95  1  0  0  0  0
 45 96  1  0  0  0  0
 45 97  1  0  0  0  0
 45 98  1  0  0  0  0
 57 99  1  0  0  0  0
 57100  1  0  0  0  0
 58101  1  0  0  0  0
 58102  1  0  0  0  0
 58103  1  0  0  0  0
 59104  1  0  0  0  0
 59105  1  0  0  0  0
 60106  1  0  0  0  0
 60107  1  0  0  0  0
 60108  1  0  0  0  0
 61109  1  0  0  0  0
 68110  1  0  0  0  0
 69111  1  0  0  0  0
 70112  1  0  0  0  0
M  END
