115

C          5.49520        1.72900       -1.79010
C          6.41480        2.63050       -1.32120
C          6.39570        3.18120        0.05500
O          5.72380        2.80370        0.99260
C          7.28200        4.36260        0.01330
C          7.55890        5.23530        1.06230
C          8.41980        6.25440        0.73060
C          8.96230        6.40160       -0.55300
C          8.69770        5.54850       -1.59790
C          7.82690        4.50330       -1.27990
C          7.33730        3.40940       -2.11160
C          7.75940        3.08710       -3.37690
C          7.36630        1.90750       -4.04160
N          7.10910        0.93750       -4.60040
C          8.66870        3.84970       -4.13490
N          9.39550        4.43690       -4.80230
C          9.72980        7.64280       -0.17370
C          9.16290        9.01050       -0.62790
C          7.67190        8.83170       -0.77150
C          7.16170        8.69170        0.44470
C          8.29880        8.77340        1.43290
C          9.21710        9.76980        0.70750
C          9.12840        7.47740        1.25750
C          4.70930        0.87710       -0.99240
C          4.95460        0.23860        0.22890
O          6.09110        0.05850        0.90560
C          7.36300        0.12470        0.29010
C          7.51330       -0.82200       -0.89470
C          3.79040       -0.40110        0.71020
S          3.49080       -1.32210        2.16190
C          1.87260       -1.59270        1.61470
C          0.71860       -2.28680        2.00800
C          0.49460       -3.14590        3.10610
C         -0.75140       -3.84750        3.19120
N         -0.80790       -4.65770        4.23690
S          0.58950       -4.54280        5.04720
N          1.31830       -3.45730        4.09470
C         -1.74870       -3.58000        2.22850
C         -3.06350       -4.05220        2.12010
S         -4.11520       -5.18130        2.88950
C         -5.38870       -4.74980        1.75640
C         -6.71450       -5.17300        1.55160
O         -7.43460       -6.09480        2.19480
C         -6.93070       -6.68670        3.38340
C         -7.08600       -5.76870        4.58920
C         -7.30420       -4.53030        0.45120
S         -6.21990       -3.35910       -0.28010
C         -4.97870       -3.77040        0.84140
C         -3.65270       -3.37930        1.04590
N         -2.74690       -2.52830        0.47360
C         -1.55570       -2.64320        1.17160
C         -0.26760       -2.06530        1.00260
N          0.29460       -1.27400        0.01410
C          1.58390       -1.00010        0.38080
C          2.68800       -0.31620       -0.14040
S          3.07230        0.55090       -1.58080
C         -0.11400       -1.04490       -1.35440
C         -0.22350       -2.35300       -2.13350
C         -3.21080       -1.49220       -0.42230
C         -3.14650       -0.11650        0.23650
C         -8.63550       -4.71440        0.04860
C         -9.25320       -4.31180       -1.10240
C        -10.72370       -4.12640       -1.13120
O        -11.52590       -4.49770       -0.30380
C        -10.98600       -3.33670       -2.35600
C        -12.17820       -2.80390       -2.80450
C        -12.19810       -2.06530       -3.98310
C        -13.45210       -1.46190       -4.52640
C        -10.99000       -1.89880       -4.66220
F        -10.99840       -1.17180       -5.79660
C         -9.78210       -2.43220       -4.24270
C         -9.78560       -3.16370       -3.06740
C         -8.72360       -3.89160       -2.37670
C         -7.56120       -4.33470       -2.95700
C         -6.74270       -5.32750       -2.38070
N         -6.08460       -6.17470       -1.97060
C         -7.10670       -3.92290       -4.22380
N         -6.67280       -3.59300       -5.23460
H          5.26330        1.72600       -2.84940
H          7.12130        5.08620        2.03700
H          9.11710        5.67300       -2.58270
H         10.81090        7.58570       -0.28270
H          9.67720        9.45230       -1.47700
H          7.16460        8.77000       -1.71650
H          6.14300        8.48930        0.71910
H          8.02670        9.00000        2.46050
H          8.78720       10.76810        0.64230
H         10.21780        9.82730        1.13340
H          9.81760        7.31080        2.08310
H          8.04250       -0.16590        1.09580
H          7.60630        1.15050       -0.01470
H          7.19440       -1.82310       -0.61400
H          6.92590       -0.49210       -1.74880
H          8.55700       -0.85630       -1.19330
H         -7.54030       -7.58470        3.51060
H         -5.88550       -6.98420        3.25100
H         -8.12900       -5.48560        4.70840
H         -6.75500       -6.28780        5.48330
H         -6.48960       -4.86770        4.46970
H          0.66070       -0.42180       -1.80770
H         -1.04200       -0.47470       -1.38820
H          0.74490       -2.84620       -2.16670
H         -0.93430       -3.03300       -1.66990
H         -0.54280       -2.15130       -3.15220
H         -4.25070       -1.72940       -0.65930
H         -2.65780       -1.51840       -1.36100
H         -2.13600        0.11870        0.56250
H         -3.79730       -0.09100        1.10750
H         -3.47760        0.64520       -0.46390
H         -9.27720       -5.16910        0.79700
H        -13.08440       -2.96470       -2.24050
H        -13.66870       -1.87150       -5.51260
H        -13.33260       -0.38530       -4.64230
H        -14.29260       -1.65910       -3.86760
H         -8.89130       -2.25900       -4.82420
