
  xtb     02022222013D
 energy: -201.588911674312 gnorm: 0.000279827904 xtb: 6.4.1 (unknown)
112126  0     0  0            999 V2000
    1.2931    5.9812   -2.1544 C   0  0  0  0  0  0  0  0  0  0  0  0
    0.6827    6.6378   -1.1136 C   0  0  0  0  0  0  0  0  0  0  0  0
    0.0615    5.9995    0.0457 C   0  0  0  0  0  0  0  0  0  0  0  0
   -0.0143    4.8032    0.2847 O   0  0  0  0  0  0  0  0  0  0  0  0
   -0.4651    7.0862    0.8877 C   0  0  0  0  0  0  0  0  0  0  0  0
   -1.1330    6.9597    2.1031 C   0  0  0  0  0  0  0  0  0  0  0  0
   -1.5028    8.1580    2.6651 C   0  0  0  0  0  0  0  0  0  0  0  0
   -1.2255    9.3916    2.0627 C   0  0  0  0  0  0  0  0  0  0  0  0
   -0.5648    9.5299    0.8648 C   0  0  0  0  0  0  0  0  0  0  0  0
   -0.1819    8.3231    0.2738 C   0  0  0  0  0  0  0  0  0  0  0  0
    0.5368    8.0706   -0.9762 C   0  0  0  0  0  0  0  0  0  0  0  0
    0.9900    9.0378   -1.8377 C   0  0  0  0  0  0  0  0  0  0  0  0
    1.7150    8.8160   -3.0272 C   0  0  0  0  0  0  0  0  0  0  0  0
    2.3150    8.7426   -4.0047 N   0  0  0  0  0  0  0  0  0  0  0  0
    0.8011   10.4231   -1.6536 C   0  0  0  0  0  0  0  0  0  0  0  0
    0.6861   11.5635   -1.5770 N   0  0  0  0  0  0  0  0  0  0  0  0
   -1.8858   10.1722    3.1714 C   0  0  0  0  0  0  0  0  0  0  0  0
   -3.2977   10.7501    2.9059 C   0  0  0  0  0  0  0  0  0  0  0  0
   -3.9360    9.8627    1.8663 C   0  0  0  0  0  0  0  0  0  0  0  0
   -4.1995    8.6950    2.4372 C   0  0  0  0  0  0  0  0  0  0  0  0
   -3.7434    8.7714    3.8733 C   0  0  0  0  0  0  0  0  0  0  0  0
   -4.0225   10.2541    4.1673 C   0  0  0  0  0  0  0  0  0  0  0  0
   -2.1951    8.7971    3.8432 C   0  0  0  0  0  0  0  0  0  0  0  0
    1.4957    4.6164   -2.3614 C   0  0  0  0  0  0  0  0  0  0  0  0
    2.1775    4.1490   -3.5117 C   0  0  0  0  0  0  0  0  0  0  0  0
    2.5630    5.0526   -4.4174 O   0  0  0  0  0  0  0  0  0  0  0  0
    3.4192    4.6751   -5.4847 C   0  0  0  0  0  0  0  0  0  0  0  0
    4.8651    4.5296   -5.0290 C   0  0  0  0  0  0  0  0  0  0  0  0
    2.3044    2.7572   -3.5141 C   0  0  0  0  0  0  0  0  0  0  0  0
    3.0334    1.5830   -4.6097 S   0  0  0  0  0  0  0  0  0  0  0  0
    2.5402    0.3157   -3.5471 C   0  0  0  0  0  0  0  0  0  0  0  0
    2.6297   -1.0780   -3.4441 C   0  0  0  0  0  0  0  0  0  0  0  0
    3.3222   -2.0190   -4.2374 C   0  0  0  0  0  0  0  0  0  0  0  0
    3.3392   -3.3909   -3.8242 C   0  0  0  0  0  0  0  0  0  0  0  0
    4.0671   -4.1519   -4.6257 N   0  0  0  0  0  0  0  0  0  0  0  0
    4.6760   -3.2219   -5.8027 S   0  0  0  0  0  0  0  0  0  0  0  0
    4.0341   -1.8106   -5.3336 N   0  0  0  0  0  0  0  0  0  0  0  0
    2.5723   -3.7733   -2.7011 C   0  0  0  0  0  0  0  0  0  0  0  0
    2.3065   -5.0400   -2.1650 C   0  0  0  0  0  0  0  0  0  0  0  0
    2.7525   -6.6913   -2.4213 S   0  0  0  0  0  0  0  0  0  0  0  0
    1.6479   -7.1520   -1.1412 C   0  0  0  0  0  0  0  0  0  0  0  0
    1.2920   -8.3779   -0.5807 C   0  0  0  0  0  0  0  0  0  0  0  0
    1.8356   -9.5771   -0.9074 O   0  0  0  0  0  0  0  0  0  0  0  0
    1.1405  -10.3594   -1.8801 C   0  0  0  0  0  0  0  0  0  0  0  0
    1.2138   -9.7632   -3.2786 C   0  0  0  0  0  0  0  0  0  0  0  0
    0.3363   -8.2344    0.4450 C   0  0  0  0  0  0  0  0  0  0  0  0
   -0.1059   -6.5566    0.6978 S   0  0  0  0  0  0  0  0  0  0  0  0
    0.9783   -6.0661   -0.5533 C   0  0  0  0  0  0  0  0  0  0  0  0
    1.3694   -4.8591   -1.1410 C   0  0  0  0  0  0  0  0  0  0  0  0
    1.0763   -3.5294   -1.0030 N   0  0  0  0  0  0  0  0  0  0  0  0
    1.8099   -2.8324   -1.9464 C   0  0  0  0  0  0  0  0  0  0  0  0
    1.9313   -1.4506   -2.2574 C   0  0  0  0  0  0  0  0  0  0  0  0
    1.4730   -0.2968   -1.6458 N   0  0  0  0  0  0  0  0  0  0  0  0
    1.8433    0.7671   -2.4227 C   0  0  0  0  0  0  0  0  0  0  0  0
    1.7132    2.1605   -2.3888 C   0  0  0  0  0  0  0  0  0  0  0  0
    1.0028    3.3027   -1.3067 S   0  0  0  0  0  0  0  0  0  0  0  0
    1.0395   -0.0673   -0.2851 C   0  0  0  0  0  0  0  0  0  0  0  0
    2.1000   -0.5092    0.7200 C   0  0  0  0  0  0  0  0  0  0  0  0
   -0.0872   -3.1352   -0.2396 C   0  0  0  0  0  0  0  0  0  0  0  0
   -1.2193   -2.6670   -1.1502 C   0  0  0  0  0  0  0  0  0  0  0  0
   -0.1558   -9.3428    1.1468 C   0  0  0  0  0  0  0  0  0  0  0  0
   -1.0722   -9.4181    2.1603 C   0  0  0  0  0  0  0  0  0  0  0  0
   -1.7193   -8.2719    2.8302 C   0  0  0  0  0  0  0  0  0  0  0  0
   -1.6213   -7.0908    2.5435 O   0  0  0  0  0  0  0  0  0  0  0  0
   -2.4882   -8.8704    3.9099 C   0  0  0  0  0  0  0  0  0  0  0  0
   -3.4989   -8.3105    5.1715 S   0  0  0  0  0  0  0  0  0  0  0  0
   -3.7616   -9.9489    5.7071 C   0  0  0  0  0  0  0  0  0  0  0  0
   -4.6314  -10.2112    6.8806 C   0  0  0  0  0  0  0  0  0  0  0  0
   -3.0992  -10.8664    4.9394 C   0  0  0  0  0  0  0  0  0  0  0  0
   -2.3658  -10.2530    3.9075 C   0  0  0  0  0  0  0  0  0  0  0  0
   -1.5151  -10.6443    2.7997 C   0  0  0  0  0  0  0  0  0  0  0  0
   -1.2616  -11.9407    2.4322 C   0  0  0  0  0  0  0  0  0  0  0  0
   -1.7696  -13.0288    3.1717 C   0  0  0  0  0  0  0  0  0  0  0  0
   -2.1710  -13.9266    3.7634 N   0  0  0  0  0  0  0  0  0  0  0  0
   -0.5382  -12.3474    1.2943 C   0  0  0  0  0  0  0  0  0  0  0  0
    0.0071  -12.7462    0.3651 N   0  0  0  0  0  0  0  0  0  0  0  0
    1.6988    6.5844   -2.9573 H   0  0  0  0  0  0  0  0  0  0  0  0
   -1.3219    5.9884    2.5330 H   0  0  0  0  0  0  0  0  0  0  0  0
   -0.3580   10.4881    0.4188 H   0  0  0  0  0  0  0  0  0  0  0  0
   -1.2468   10.8700    3.7090 H   0  0  0  0  0  0  0  0  0  0  0  0
   -3.3176   11.8175    2.7032 H   0  0  0  0  0  0  0  0  0  0  0  0
   -4.0730   10.1468    0.8394 H   0  0  0  0  0  0  0  0  0  0  0  0
   -4.6005    7.8081    1.9824 H   0  0  0  0  0  0  0  0  0  0  0  0
   -4.1699    8.0376    4.5525 H   0  0  0  0  0  0  0  0  0  0  0  0
   -3.5702   10.6053    5.0939 H   0  0  0  0  0  0  0  0  0  0  0  0
   -5.0853   10.4916    4.1636 H   0  0  0  0  0  0  0  0  0  0  0  0
   -1.7578    8.5977    4.8197 H   0  0  0  0  0  0  0  0  0  0  0  0
    3.0636    3.7527   -5.9560 H   0  0  0  0  0  0  0  0  0  0  0  0
    3.3283    5.4985   -6.1971 H   0  0  0  0  0  0  0  0  0  0  0  0
    4.9637    3.7228   -4.3067 H   0  0  0  0  0  0  0  0  0  0  0  0
    5.2020    5.4560   -4.5704 H   0  0  0  0  0  0  0  0  0  0  0  0
    5.4938    4.3079   -5.8859 H   0  0  0  0  0  0  0  0  0  0  0  0
    0.0940  -10.4920   -1.5763 H   0  0  0  0  0  0  0  0  0  0  0  0
    1.6409  -11.3284   -1.8432 H   0  0  0  0  0  0  0  0  0  0  0  0
    0.7804  -10.4604   -3.9899 H   0  0  0  0  0  0  0  0  0  0  0  0
    2.2491   -9.5745   -3.5514 H   0  0  0  0  0  0  0  0  0  0  0  0
    0.6642   -8.8254   -3.3302 H   0  0  0  0  0  0  0  0  0  0  0  0
    0.0811   -0.5520   -0.0998 H   0  0  0  0  0  0  0  0  0  0  0  0
    0.8785    1.0088   -0.1879 H   0  0  0  0  0  0  0  0  0  0  0  0
    2.3429   -1.5631    0.6042 H   0  0  0  0  0  0  0  0  0  0  0  0
    3.0108    0.0667    0.5745 H   0  0  0  0  0  0  0  0  0  0  0  0
    1.7426   -0.3388    1.7317 H   0  0  0  0  0  0  0  0  0  0  0  0
   -0.4119   -4.0211    0.3111 H   0  0  0  0  0  0  0  0  0  0  0  0
    0.1758   -2.3781    0.4987 H   0  0  0  0  0  0  0  0  0  0  0  0
   -2.0746   -2.3673   -0.5510 H   0  0  0  0  0  0  0  0  0  0  0  0
   -0.9098   -1.8274   -1.7685 H   0  0  0  0  0  0  0  0  0  0  0  0
   -1.5252   -3.4776   -1.8072 H   0  0  0  0  0  0  0  0  0  0  0  0
    0.2950  -10.2744    0.8234 H   0  0  0  0  0  0  0  0  0  0  0  0
   -4.6824  -11.2792    7.0756 H   0  0  0  0  0  0  0  0  0  0  0  0
   -4.2434   -9.7083    7.7658 H   0  0  0  0  0  0  0  0  0  0  0  0
   -5.6390   -9.8364    6.7024 H   0  0  0  0  0  0  0  0  0  0  0  0
   -3.1423  -11.9248    5.1187 H   0  0  0  0  0  0  0  0  0  0  0  0
  1  2  2  0  0  0  0
  2  3  1  0  0  0  0
  3  4  2  0  0  0  0
  3  5  1  0  0  0  0
  5  6  2  0  0  0  0
  6  7  1  0  0  0  0
  7  8  2  0  0  0  0
  8  9  1  0  0  0  0
  9 10  2  0  0  0  0
 10 11  1  0  0  0  0
 11 12  2  0  0  0  0
 12 13  1  0  0  0  0
 13 14  3  0  0  0  0
 12 15  1  0  0  0  0
 15 16  3  0  0  0  0
  8 17  1  0  0  0  0
 17 18  1  0  0  0  0
 18 19  1  0  0  0  0
 19 20  2  0  0  0  0
 20 21  1  0  0  0  0
 21 22  1  0  0  0  0
 21 23  1  0  0  0  0
  1 24  1  0  0  0  0
 24 25  2  0  0  0  0
 25 26  1  0  0  0  0
 26 27  1  0  0  0  0
 27 28  1  0  0  0  0
 25 29  1  0  0  0  0
 29 30  1  0  0  0  0
 30 31  1  0  0  0  0
 31 32  1  0  0  0  0
 32 33  1  0  0  0  0
 33 34  1  0  0  0  0
 34 35  2  0  0  0  0
 35 36  1  0  0  0  0
 36 37  1  0  0  0  0
 34 38  1  0  0  0  0
 38 39  1  0  0  0  0
 39 40  1  0  0  0  0
 40 41  1  0  0  0  0
 41 42  1  0  0  0  0
 42 43  1  0  0  0  0
 43 44  1  0  0  0  0
 44 45  1  0  0  0  0
 42 46  2  0  0  0  0
 46 47  1  0  0  0  0
 47 48  1  0  0  0  0
 48 49  1  0  0  0  0
 49 50  1  0  0  0  0
 50 51  1  0  0  0  0
 51 52  1  0  0  0  0
 52 53  1  0  0  0  0
 53 54  1  0  0  0  0
 54 55  1  0  0  0  0
 55 56  1  0  0  0  0
 53 57  1  0  0  0  0
 57 58  1  0  0  0  0
 50 59  1  0  0  0  0
 59 60  1  0  0  0  0
 46 61  1  0  0  0  0
 61 62  2  0  0  0  0
 62 63  1  0  0  0  0
 63 64  2  0  0  0  0
 63 65  1  0  0  0  0
 65 66  1  0  0  0  0
 66 67  1  0  0  0  0
 67 68  1  0  0  0  0
 67 69  2  0  0  0  0
 69 70  1  0  0  0  0
 70 71  1  0  0  0  0
 71 72  2  0  0  0  0
 72 73  1  0  0  0  0
 73 74  3  0  0  0  0
 72 75  1  0  0  0  0
 75 76  3  0  0  0  0
 11  2  1  0  0  0  0
 23 17  1  0  0  0  0
 56 24  1  0  0  0  0
 71 62  1  0  0  0  0
 10  5  1  0  0  0  0
 22 18  1  0  0  0  0
 55 29  2  0  0  0  0
 70 65  2  0  0  0  0
 23  7  1  0  0  0  0
 54 31  2  0  0  0  0
 52 32  2  0  0  0  0
 37 33  2  0  0  0  0
 51 38  2  0  0  0  0
 49 39  2  0  0  0  0
 48 41  2  0  0  0  0
  1 77  1  0  0  0  0
  6 78  1  0  0  0  0
  9 79  1  0  0  0  0
 17 80  1  0  0  0  0
 18 81  1  0  0  0  0
 19 82  1  0  0  0  0
 20 83  1  0  0  0  0
 21 84  1  0  0  0  0
 22 85  1  0  0  0  0
 22 86  1  0  0  0  0
 23 87  1  0  0  0  0
 27 88  1  0  0  0  0
 27 89  1  0  0  0  0
 28 90  1  0  0  0  0
 28 91  1  0  0  0  0
 28 92  1  0  0  0  0
 44 93  1  0  0  0  0
 44 94  1  0  0  0  0
 45 95  1  0  0  0  0
 45 96  1  0  0  0  0
 45 97  1  0  0  0  0
 57 98  1  0  0  0  0
 57 99  1  0  0  0  0
 58100  1  0  0  0  0
 58101  1  0  0  0  0
 58102  1  0  0  0  0
 59103  1  0  0  0  0
 59104  1  0  0  0  0
 60105  1  0  0  0  0
 60106  1  0  0  0  0
 60107  1  0  0  0  0
 61108  1  0  0  0  0
 68109  1  0  0  0  0
 68110  1  0  0  0  0
 68111  1  0  0  0  0
 69112  1  0  0  0  0
M  END
