115

C          1.76200       -2.92950        5.92780
C          2.88980       -2.16710        5.90810
C          4.19230       -2.73040        6.34880
O          4.36690       -3.75360        6.97170
C          5.21360       -1.80240        5.82120
C          6.59800       -1.95460        5.86700
C          7.29490       -0.92750        5.27630
C          6.66560        0.16950        4.67180
C          5.30230        0.33560        4.61990
C          4.57620       -0.69310        5.22570
C          3.13540       -0.83270        5.41090
C          2.22470        0.19370        5.38530
C          0.91240        0.06550        5.88070
N         -0.14570        0.01330        6.32510
C          2.51200        1.50260        4.95390
N          2.67940        2.57880        4.59000
C          7.97470        0.81120        4.28660
C          8.43790        1.99910        5.15660
C          9.91780        2.10360        4.86700
C         10.51530        1.06720        5.44100
C          9.44930        0.24500        6.12880
C          8.48680        1.36240        6.55160
C          8.67700       -0.40940        4.96340
C          0.57220       -2.74760        5.18620
C         -0.67960       -3.29910        5.46030
O         -0.99710       -4.05030        6.53400
C         -0.82250       -3.48270        7.83290
C         -1.81450       -2.35600        8.08440
C         -1.61280       -3.00600        4.45100
S         -3.30970       -3.37030        4.27600
C         -3.30850       -2.50610        2.77930
C         -4.21730       -2.08940        1.79470
C         -5.62570       -2.17990        1.72770
C         -6.31510       -1.48580        0.67780
N         -7.63050       -1.59290        0.77930
S         -7.97270       -2.49450        2.07990
N         -6.45570       -2.78170        2.56460
C         -5.55840       -0.85860       -0.33700
C         -5.94470       -0.25580       -1.54250
S         -7.38830        0.17100       -2.38690
C         -6.40980        0.73680       -3.73870
C         -6.69130        1.28850       -4.99320
O         -7.87200        1.57260       -5.56550
C         -9.04960        1.57920       -4.77110
C         -9.13020        2.80700       -3.87340
C         -5.51620        1.52970       -5.73620
S         -4.06910        1.06950       -4.85900
C         -5.03250        0.57740       -3.51640
C         -4.77630        0.02670       -2.25530
N         -3.67780       -0.33090       -1.51780
C         -4.13450       -0.86710       -0.32520
C         -3.46920       -1.36120        0.82650
N         -2.15520       -1.29030        1.24800
C         -2.05750       -1.98270        2.42580
C         -1.08690       -2.25940        3.39170
S          0.57490       -1.87740        3.65610
C         -1.11590       -0.35740        0.87230
C          0.08370       -1.05160        0.23120
C         -2.42590       -0.57920       -2.20220
C         -2.26780       -2.06340       -2.52440
C         -5.55880        2.07930       -7.02270
C         -4.54200        2.34700       -7.89350
S         -4.86410        3.05990       -9.47260
C         -3.16850        3.02160       -9.87570
C         -2.68020        3.53590      -11.05060
C         -3.56660        4.06950      -12.00610
N         -4.28680        4.49740      -12.79010
C         -1.31770        3.61710      -11.38610
N         -0.22460        3.73850      -11.71760
N         -2.43600        2.46450       -8.87250
C         -1.03990        2.19520       -8.98740
C         -0.61040        1.19000       -9.84180
C          0.74190        0.92340       -9.94480
C          1.65130        1.64730       -9.19250
C          1.21150        2.63420       -8.32730
C         -0.13900        2.91280       -8.21810
C         -3.13070        2.09070       -7.73000
O         -2.57610        1.60450       -6.75990
H          1.82180       -3.84720        6.50620
H          7.04610       -2.81640        6.33620
H          4.82460        1.17670        4.14450
H          8.12870        0.97720        3.22210
H          7.84980        2.90510        5.03940
H         10.35590        2.86510        4.24870
H         11.55220        0.78980        5.39790
H          9.78460       -0.44580        6.89770
H          7.52310        1.00660        6.91140
H          8.92830        2.02730        7.29180
H          9.30040       -1.05800        4.35060
H         -0.99950       -4.32100        8.51010
H          0.20240       -3.12050        7.96710
H         -1.58580       -1.50310        7.44880
H         -2.82630       -2.69480        7.87420
H         -1.75330       -2.04350        9.12290
H         -9.86120        1.59020       -5.50290
H         -9.11900        0.66060       -4.17930
H         -9.06550        3.71220       -4.47240
H        -10.07520        2.80210       -3.33900
H         -8.32070        2.80860       -3.14800
H         -1.54790        0.40310        0.22110
H         -0.77890        0.14700        1.78540
H          0.80470       -0.30730       -0.09530
H         -0.21180       -1.65590       -0.62160
H          0.56840       -1.70030        0.95590
H         -2.45570       -0.00300       -3.13010
H         -1.58050       -0.22420       -1.61860
H         -2.26250       -2.65830       -1.61280
H         -1.33780       -2.22780       -3.06130
H         -3.09110       -2.40120       -3.14960
H         -6.56170        2.31660       -7.35820
H         -1.32930        0.63160      -10.42380
H          1.08360        0.15050      -10.61580
H          2.70690        1.44050       -9.28120
H          1.92070        3.19510       -7.73810
H         -0.49590        3.67970       -7.54770
