112

C          1.13050        1.52330       -7.19890
C          0.31140        2.61160       -7.15560
C          0.54560        3.76710       -8.05780
O          1.27640        3.80130       -9.02270
C         -0.25730        4.87110       -7.49160
C         -0.29680        6.19350       -7.92640
C         -1.13060        7.00130       -7.19070
C         -1.87020        6.53370       -6.09600
C         -1.85080        5.22940       -5.66190
C         -1.01290        4.39140       -6.40070
C         -0.78590        2.95330       -6.28160
C         -1.64170        2.05840       -5.68800
C         -2.72700        2.41890       -4.86830
N         -3.60500        2.64950       -4.16420
C         -1.57630        0.66930       -5.91940
N         -1.58950       -0.45920       -6.13420
C         -2.47140        7.88920       -5.82140
C         -1.89030        8.71420       -4.64640
C         -0.46060        8.26580       -4.47180
C          0.23300        8.70900       -5.51190
C         -0.71560        9.46470       -6.40900
C         -1.66760       10.05810       -5.35830
C         -1.65320        8.40890       -7.04530
C          1.34130        0.53480       -6.21790
C          1.90780       -0.72120       -6.46560
O          2.27390       -1.01750       -7.71630
C          2.50700       -2.37200       -8.07550
C          1.20800       -3.15880       -8.18660
C          1.99750       -1.49530       -5.29170
S          2.55290       -3.12230       -4.93260
C          2.15640       -2.87690       -3.27210
C          2.21140       -3.56730       -2.05450
C          2.74370       -4.83760       -1.74360
C          2.76220       -5.26030       -0.37580
N          3.33110       -6.44540       -0.21990
S          3.79910       -6.98420       -1.67240
N          3.29560       -5.72490       -2.55650
C          2.16180       -4.43400        0.59960
C          1.95300       -4.64660        1.96730
S          2.31200       -5.82950        3.17550
C          1.44560       -4.84800        4.34030
C          1.18890       -4.99140        5.69990
O          1.63940       -6.00360        6.47970
C          0.74840       -7.10270        6.69030
C          0.52210       -7.92650        5.43100
C          0.45500       -3.90130        6.22020
S          0.08430       -2.71330        4.98180
C          0.90910       -3.66450        3.80000
C          1.20860       -3.55800        2.43930
N          0.97350       -2.67420        1.42000
C          1.55840       -3.18170        0.27310
C          1.67340       -2.69940       -1.05950
N          1.33780       -1.50110       -1.67000
C          1.63300       -1.60970       -3.00110
C          1.54540       -0.81910       -4.15210
S          1.00040        0.77570       -4.51360
C          1.09280       -0.19530       -1.09980
C          2.27680        0.27620       -0.25890
C         -0.04500       -1.66020        1.58720
C         -1.30420       -1.99950        0.79350
C          0.12170       -3.83280        7.57420
C         -0.54680       -2.85950        8.27760
C         -0.99500       -1.57410        7.73970
O         -0.96900       -1.19920        6.57940
C         -1.47750       -0.79640        8.89700
C         -1.96530        0.49570        8.93380
C         -2.34280        1.02530       10.15780
C         -2.22190        0.25320       11.30520
Br        -2.73430        1.00570       12.97300
C         -1.73870       -1.05050       11.28470
C         -1.36490       -1.57770       10.06080
C         -0.84010       -2.89500        9.69350
C         -0.73210       -3.96930       10.53810
C         -0.36110       -5.27350       10.14870
N         -0.10890       -6.36670        9.90180
C         -1.03740       -3.92630       11.91480
N         -1.26260       -3.95090       13.04000
H          1.75150        1.42860       -8.08410
H          0.28600        6.51570       -8.77510
H         -2.42270        4.87650       -4.81910
H         -3.55690        7.94740       -5.87120
H         -2.50530        8.71790       -3.75030
H         -0.12270        7.64230       -3.66480
H          1.26570        8.52980       -5.74730
H         -0.26150       10.15180       -7.11810
H         -2.57700       10.47880       -5.78520
H         -1.18400       10.79740       -4.72150
H         -2.20580        8.80290       -7.89600
H          3.19250       -2.84680       -7.36490
H          2.99860       -2.30570       -9.04920
H          0.54820       -2.68560       -8.90940
H          1.42400       -4.17250       -8.51020
H          0.69660       -3.19740       -7.22810
H         -0.20820       -6.73900        7.08660
H          1.24310       -7.69610        7.46060
H          1.47520       -8.22940        5.00470
H         -0.05270       -8.81350        5.68120
H         -0.02680       -7.35430        4.68560
H          0.16420       -0.19280       -0.52970
H          0.95300        0.48910       -1.94000
H          2.05850        1.24740        0.17640
H          2.49880       -0.42710        0.54030
H          3.16220        0.36890       -0.88360
H         -0.28650       -1.63650        2.65240
H          0.34470       -0.67670        1.32650
H         -1.73010       -2.93250        1.15500
H         -2.04310       -1.21280        0.91780
H         -1.08730       -2.11480       -0.26600
H          0.49250       -4.68090        8.13850
H         -2.04620        1.07250        8.02570
H         -2.72740        2.03100       10.22700
H         -1.66050       -1.61160       12.20160
