107

C          2.66750        5.06460       -2.97180
C          3.53730        5.40230       -1.95770
C          3.73020        4.68230       -0.69790
O          3.12490        3.70090       -0.29640
C          4.82730        5.36240        0.01020
C          5.37150        5.01450        1.24350
C          6.39510        5.83480        1.65330
C          6.84700        6.91720        0.88780
C          6.31880        7.26880       -0.33220
C          5.27190        6.45100       -0.76500
C          4.46930        6.50900       -1.98770
C          4.59720        7.47160       -2.96010
C          3.81740        7.57280       -4.12670
N          3.22260        7.72360       -5.10040
C          5.53480        8.52460       -2.93000
N          6.26640        9.40830       -2.98440
C          7.89210        7.30330        1.90430
C          7.59710        8.52000        2.81570
C          6.09550        8.62690        2.91500
C          5.66420        7.60420        3.64100
C          6.86640        6.78740        4.04580
C          7.91600        7.90150        4.18620
C          7.38600        6.09880        2.75930
C          1.70530        4.05590       -3.05600
C          0.86470        3.81930       -4.17270
O          0.82150        4.38530       -5.38680
C          1.95700        4.85130       -6.10940
C          3.12550        3.87610       -6.09970
C         -0.10570        2.85170       -3.88620
S         -1.38410        2.16250       -4.86530
C         -1.79620        1.13830       -3.53420
C         -2.67180        0.08240       -3.24030
C         -3.56360       -0.65280       -4.05390
C         -4.16810       -1.84430       -3.52500
N         -4.91150       -2.47310       -4.42140
S         -4.86370       -1.63790       -5.80660
N         -3.88800       -0.44190       -5.31950
C         -3.96340       -2.17180       -2.16580
C         -4.47930       -3.20210       -1.35940
S         -5.46180       -4.61980       -1.50310
C         -5.28090       -4.88280        0.21190
C         -5.77150       -5.89440        1.07060
O         -6.61770       -6.79910        0.56030
C         -7.60150       -7.43360        1.35230
C         -8.52860       -6.45210        2.05940
C         -5.33220       -5.70200        2.37830
S         -4.41360       -4.19880        2.54630
C         -4.51200       -3.91050        0.84870
C         -4.04370       -2.95070       -0.05430
N         -3.26010       -1.82570       -0.02030
C         -3.17560       -1.34630       -1.31770
C         -2.41160       -0.30030       -1.89310
N         -1.37290        0.46640       -1.40780
C         -0.99960        1.33750       -2.39770
C         -0.02180        2.31640       -2.59730
S          1.29390        2.98640       -1.70600
C         -0.50140        0.22840       -0.27750
C         -0.57950        1.34630        0.76250
C         -3.17320       -1.08260        1.21880
C         -4.53500       -0.50990        1.61140
C         -5.41810       -6.49770        3.54960
C         -5.34740       -7.85330        3.59970
S         -5.57440       -8.75840        5.08980
C         -5.12640      -10.29540        4.29060
O         -5.11640      -11.35940        4.83790
N         -4.81640      -10.04240        2.98700
C         -4.34000      -11.10890        2.12090
C         -2.83970      -11.31680        2.28010
C         -4.90020       -8.73660        2.52270
O         -4.58110       -8.41670        1.39990
H          2.71560        5.69730       -3.84460
H          4.99450        4.16860        1.79680
H          6.68360        8.10330       -0.90690
H          8.92350        7.28470        1.55780
H          8.12570        9.42860        2.54040
H          5.51450        9.37920        2.41440
H          4.65020        7.33080        3.86800
H          6.72990        6.11890        4.89200
H          8.93630        7.52890        4.26730
H          7.70450        8.57780        5.01310
H          8.08820        5.29540        2.97390
H          2.26350        5.84960       -5.77570
H          1.56700        4.95160       -7.12630
H          2.79500        2.89490       -6.43430
H          3.89380        4.23910       -6.77580
H          3.55840        3.77640       -5.10650
H         -8.16180       -8.02870        0.62630
H         -7.15010       -8.11400        2.08470
H         -7.99770       -5.89810        2.83020
H         -8.94240       -5.74760        1.34150
H         -9.34160       -7.00020        2.52610
H         -0.74080       -0.74650        0.14930
H          0.52640        0.18240       -0.65420
H         -0.05990        1.04160        1.66650
H         -1.60910        1.59390        1.01190
H         -0.10040        2.24380        0.38240
H         -2.46930       -0.26640        1.11250
H         -2.82080       -1.76730        1.99630
H         -4.43950        0.06080        2.53090
H         -5.25770       -1.30530        1.77190
H         -4.90720        0.14650        0.82750
H         -5.46660       -5.96310        4.49100
H         -4.57850      -10.80830        1.09800
H         -4.88410      -12.01850        2.38450
H         -2.50860      -12.10890        1.61480
H         -2.30540      -10.40310        2.02940
H         -2.60480      -11.59830        3.30410
