114

C         -0.56030       -0.40380        6.29810
C         -1.26220        0.13670        7.33340
C         -1.09050       -0.42850        8.70000
O         -0.54360       -1.47050        8.98570
C         -1.66940        0.57370        9.61370
C         -1.66000        0.54900       11.00670
C         -2.26670        1.63480       11.59060
C         -2.83010        2.68020       10.84610
C         -2.84890        2.71780        9.47210
C         -2.25230        1.61380        8.85910
C         -2.13830        1.28090        7.44020
C         -2.90970        1.80640        6.43610
C         -2.99250        1.24510        5.14750
N         -3.11980        0.78060        4.10530
C         -3.79730        2.88840        6.60130
N         -4.52420        3.77360        6.67810
C         -3.26670        3.42980       12.07940
C         -4.76570        3.36500       12.46300
C         -5.29620        2.06980       11.89970
C         -4.76940        1.07670       12.60350
C         -3.87290        1.68240       13.65520
C         -4.63810        2.98320       13.94640
C         -2.64540        2.26200       12.90880
C         -0.28120        0.12970        5.02040
C         -0.25930        1.44550        4.55440
O         -0.47440        2.56200        5.29630
C          0.45690        2.83180        6.33810
C          1.82830        3.19660        5.78450
C         -0.00430        1.50960        3.17550
S          0.08490        2.84570        2.05760
C          0.33490        1.71200        0.77570
C          0.46370        1.69950       -0.62180
C          0.37010        2.74600       -1.56540
C          0.38240        2.42220       -2.96170
N          0.22410        3.48820       -3.73090
S          0.07810        4.78880       -2.77780
N          0.21040        4.04240       -1.34930
C          0.61320        1.08350       -3.34630
C          0.81020        0.51220       -4.61100
S          0.79680        0.98180       -6.27060
C          1.28930       -0.64520       -6.71930
C          1.57590       -1.27250       -7.94580
O          1.41470       -0.80080       -9.17660
C          1.02970        0.55380       -9.36050
C          0.93260        0.80260      -10.85570
C          1.98050       -2.60670       -7.76510
S          1.90870       -3.07800       -6.06970
C          1.43880       -1.48660       -5.60790
C          1.15730       -0.82740       -4.40750
N          1.16360       -1.10620       -3.06690
C          0.80660        0.04490       -2.38990
C          0.60820        0.33770       -1.01430
N          0.54530       -0.45640        0.12200
C          0.36830        0.37860        1.19540
C          0.17210        0.25870        2.57450
S          0.09370       -1.01100        3.73630
C          0.10330       -1.82820        0.26570
C         -1.39260       -1.94980       -0.01670
C          1.78500       -2.32040       -2.58980
C          0.85350       -3.52630       -2.70510
C          2.31290       -3.59190       -8.70420
C          2.83270       -3.42570       -9.97310
C          3.55140       -2.18910      -10.32070
O          3.86140       -1.34500       -9.49890
N          3.94120       -2.04460      -11.63730
C          4.62620       -0.81080      -12.00680
C          6.13860       -0.97840      -11.93680
C          3.80280       -2.99870      -12.63400
O          4.13570       -2.76020      -13.77700
C          3.25080       -4.28130      -12.19350
C          2.79910       -4.49570      -10.92090
C          2.20970       -5.82120      -10.54740
C          3.19280       -5.29020      -13.17670
N          3.14900       -6.11890      -13.96930
H         -0.12720       -1.37910        6.50320
H         -1.21040       -0.27180       11.54330
H         -3.27950        3.52940        8.90900
H         -2.84750        4.42590       12.20750
H         -5.33220        4.26050       12.22230
H         -5.93460        2.00930       11.03790
H         -4.88010        0.01960       12.44750
H         -3.62720        1.04590       14.50120
H         -5.60250        2.80710       14.42010
H         -4.06610        3.70170       14.53210
H         -1.82280        2.49500       13.58230
H          0.53930        1.97720        7.02060
H          0.02010        3.67610        6.87640
H          2.48240        3.49600        6.59830
H          2.27160        2.34390        5.27340
H          1.73790        4.01790        5.07790
H          1.77990        1.21240       -8.90790
H          0.06130        0.73470       -8.87650
H          1.89170        0.60800      -11.32690
H          0.18980        0.14430      -11.29840
H          0.64850        1.83490      -11.03670
H          0.66460       -2.49280       -0.38180
H          0.30690       -2.11570        1.30050
H         -1.61700       -1.62830       -1.03210
H         -1.95890       -1.32900        0.67340
H         -1.71000       -2.98160        0.10620
H          2.66840       -2.50370       -3.21140
H          2.13330       -2.15870       -1.56890
H          1.31410       -4.39370       -2.24050
H          0.67450       -3.75500       -3.75220
H         -0.10560       -3.33690       -2.23110
H          2.13910       -4.60500       -8.36160
H          4.30040       -0.03690      -11.30960
H          4.32050       -0.56100      -13.02500
H          6.43890       -1.24820      -10.92680
H          6.62390       -0.04560      -12.21050
H          6.46050       -1.75540      -12.62610
H          2.24970       -6.50490      -11.39150
H          2.76250       -6.26340       -9.71870
H          1.17030       -5.70600      -10.24310
