
  xtb     02112205233D
 energy: -257.943061210796 gnorm: 0.000208412257 xtb: 6.4.1 (unknown)
147163  0     0  0            999 V2000
    3.3853    1.1516   -5.3544 C   0  0  0  0  0  0  0  0  0  0  0  0
    4.4115    0.2941   -5.6011 C   0  0  0  0  0  0  0  0  0  0  0  0
    4.7169   -0.1304   -6.9944 C   0  0  0  0  0  0  0  0  0  0  0  0
    4.3519    0.4092   -8.0140 O   0  0  0  0  0  0  0  0  0  0  0  0
    5.4899   -1.3802   -6.8510 C   0  0  0  0  0  0  0  0  0  0  0  0
    5.8648   -2.2614   -7.8626 C   0  0  0  0  0  0  0  0  0  0  0  0
    6.5333   -3.3759   -7.4154 C   0  0  0  0  0  0  0  0  0  0  0  0
    6.8158   -3.6021   -6.0610 C   0  0  0  0  0  0  0  0  0  0  0  0
    6.4667   -2.7352   -5.0527 C   0  0  0  0  0  0  0  0  0  0  0  0
    5.7821   -1.5986   -5.4872 C   0  0  0  0  0  0  0  0  0  0  0  0
    5.2630   -0.4723   -4.7181 C   0  0  0  0  0  0  0  0  0  0  0  0
    5.7158   -0.0591   -3.4921 C   0  0  0  0  0  0  0  0  0  0  0  0
    6.6441   -0.7755   -2.7118 C   0  0  0  0  0  0  0  0  0  0  0  0
    7.3906   -1.3257   -2.0349 N   0  0  0  0  0  0  0  0  0  0  0  0
    5.3656    1.1856   -2.9294 C   0  0  0  0  0  0  0  0  0  0  0  0
    5.1319    2.2102   -2.4666 N   0  0  0  0  0  0  0  0  0  0  0  0
    7.4754   -4.9293   -6.3381 C   0  0  0  0  0  0  0  0  0  0  0  0
    6.6647   -6.2133   -6.0316 C   0  0  0  0  0  0  0  0  0  0  0  0
    5.2076   -5.8395   -6.1453 C   0  0  0  0  0  0  0  0  0  0  0  0
    4.9435   -5.6248   -7.4272 C   0  0  0  0  0  0  0  0  0  0  0  0
    6.2175   -5.8493   -8.2035 C   0  0  0  0  0  0  0  0  0  0  0  0
    6.8556   -6.9640   -7.3592 C   0  0  0  0  0  0  0  0  0  0  0  0
    7.1643   -4.6761   -7.8469 C   0  0  0  0  0  0  0  0  0  0  0  0
    2.6390    1.3155   -4.1657 C   0  0  0  0  0  0  0  0  0  0  0  0
    2.5882    0.0993   -2.9040 S   0  0  0  0  0  0  0  0  0  0  0  0
    1.4439    1.0267   -2.0175 C   0  0  0  0  0  0  0  0  0  0  0  0
    0.7340    0.6760   -0.8490 C   0  0  0  0  0  0  0  0  0  0  0  0
   -0.4532    1.3632   -0.5955 C   0  0  0  0  0  0  0  0  0  0  0  0
   -0.8759    2.3943   -1.3428 O   0  0  0  0  0  0  0  0  0  0  0  0
    0.1979    3.1632   -1.9369 C   0  0  0  0  0  0  0  0  0  0  0  0
    1.1203    2.2152   -2.6645 C   0  0  0  0  0  0  0  0  0  0  0  0
    1.7728    2.3602   -3.8811 C   0  0  0  0  0  0  0  0  0  0  0  0
    0.9604    3.8499   -0.8056 C   0  0  0  0  0  0  0  0  0  0  0  0
    0.2436    4.3424    0.2766 C   0  0  0  0  0  0  0  0  0  0  0  0
    0.9013    4.9123    1.3505 C   0  0  0  0  0  0  0  0  0  0  0  0
    2.2856    5.0196    1.3615 C   0  0  0  0  0  0  0  0  0  0  0  0
    3.0134    5.5797    2.5497 C   0  0  0  0  0  0  0  0  0  0  0  0
    3.6206    4.4509    3.3854 C   0  0  0  0  0  0  0  0  0  0  0  0
    2.9932    4.5518    0.2613 C   0  0  0  0  0  0  0  0  0  0  0  0
    2.3442    3.9678   -0.8102 C   0  0  0  0  0  0  0  0  0  0  0  0
   -0.4188    4.1677   -2.8851 C   0  0  0  0  0  0  0  0  0  0  0  0
   -1.6678    3.9419   -3.4437 C   0  0  0  0  0  0  0  0  0  0  0  0
   -2.2069    4.8534   -4.3328 C   0  0  0  0  0  0  0  0  0  0  0  0
   -1.5114    6.0010   -4.6887 C   0  0  0  0  0  0  0  0  0  0  0  0
   -2.0773    6.9628   -5.6930 C   0  0  0  0  0  0  0  0  0  0  0  0
   -1.6420    6.5738   -7.1075 C   0  0  0  0  0  0  0  0  0  0  0  0
   -0.2572    6.2147   -4.1303 C   0  0  0  0  0  0  0  0  0  0  0  0
    0.2857    5.3123   -3.2356 C   0  0  0  0  0  0  0  0  0  0  0  0
   -1.1402    0.8050    0.4886 C   0  0  0  0  0  0  0  0  0  0  0  0
   -2.6607    1.1125    1.2527 S   0  0  0  0  0  0  0  0  0  0  0  0
   -2.3365   -0.1552    2.4026 C   0  0  0  0  0  0  0  0  0  0  0  0
   -3.1909   -0.7120    3.3750 C   0  0  0  0  0  0  0  0  0  0  0  0
   -4.9046   -0.6338    3.4798 S   0  0  0  0  0  0  0  0  0  0  0  0
   -4.8905   -1.7931    4.7979 C   0  0  0  0  0  0  0  0  0  0  0  0
   -3.5788   -2.1816    5.1092 C   0  0  0  0  0  0  0  0  0  0  0  0
   -2.6260   -1.5838    4.3175 C   0  0  0  0  0  0  0  0  0  0  0  0
   -1.1202   -1.6776    4.3647 C   0  0  0  0  0  0  0  0  0  0  0  0
   -0.6616   -2.9253    5.0879 C   0  0  0  0  0  0  0  0  0  0  0  0
   -0.3089   -4.0663    4.3834 C   0  0  0  0  0  0  0  0  0  0  0  0
    0.0800   -5.2085    5.0592 C   0  0  0  0  0  0  0  0  0  0  0  0
    0.1125   -5.2419    6.4466 C   0  0  0  0  0  0  0  0  0  0  0  0
    0.5750   -6.4682    7.1785 C   0  0  0  0  0  0  0  0  0  0  0  0
    2.0788   -6.3898    7.4504 C   0  0  0  0  0  0  0  0  0  0  0  0
   -0.2466   -4.0952    7.1443 C   0  0  0  0  0  0  0  0  0  0  0  0
   -0.6278   -2.9475    6.4766 C   0  0  0  0  0  0  0  0  0  0  0  0
   -0.5468   -0.4176    5.0110 C   0  0  0  0  0  0  0  0  0  0  0  0
    0.7387   -0.0166    4.6740 C   0  0  0  0  0  0  0  0  0  0  0  0
    1.2660    1.1515    5.1914 C   0  0  0  0  0  0  0  0  0  0  0  0
    0.5314    1.9370    6.0695 C   0  0  0  0  0  0  0  0  0  0  0  0
    1.0703    3.2407    6.5833 C   0  0  0  0  0  0  0  0  0  0  0  0
    0.4722    4.4110    5.7994 C   0  0  0  0  0  0  0  0  0  0  0  0
   -0.7418    1.5119    6.4279 C   0  0  0  0  0  0  0  0  0  0  0  0
   -1.2804    0.3521    5.9034 C   0  0  0  0  0  0  0  0  0  0  0  0
   -0.6240   -1.7375    3.0074 O   0  0  0  0  0  0  0  0  0  0  0  0
   -1.0890   -0.7577    2.2201 C   0  0  0  0  0  0  0  0  0  0  0  0
   -0.4342   -0.2404    1.0981 C   0  0  0  0  0  0  0  0  0  0  0  0
    1.0577   -0.5923    0.2965 S   0  0  0  0  0  0  0  0  0  0  0  0
   -5.9955   -2.3196    5.4713 C   0  0  0  0  0  0  0  0  0  0  0  0
   -7.3405   -2.1431    5.2455 C   0  0  0  0  0  0  0  0  0  0  0  0
   -7.9257   -1.3310    4.1822 C   0  0  0  0  0  0  0  0  0  0  0  0
   -7.3510   -0.5695    3.4274 O   0  0  0  0  0  0  0  0  0  0  0  0
   -9.3732   -1.6417    4.1851 C   0  0  0  0  0  0  0  0  0  0  0  0
  -10.3474   -1.2253    3.2959 C   0  0  0  0  0  0  0  0  0  0  0  0
  -10.0097   -0.0814    2.0759 Cl  0  0  0  0  0  0  0  0  0  0  0  0
  -11.6302   -1.7804    3.4126 C   0  0  0  0  0  0  0  0  0  0  0  0
  -12.8765   -1.2752    2.3575 Cl  0  0  0  0  0  0  0  0  0  0  0  0
  -11.8770   -2.7761    4.3556 C   0  0  0  0  0  0  0  0  0  0  0  0
  -13.4200   -3.5122    4.4097 Cl  0  0  0  0  0  0  0  0  0  0  0  0
  -10.8799   -3.1991    5.2509 C   0  0  0  0  0  0  0  0  0  0  0  0
  -11.2100   -4.5511    6.2531 Cl  0  0  0  0  0  0  0  0  0  0  0  0
   -9.6415   -2.5719    5.2106 C   0  0  0  0  0  0  0  0  0  0  0  0
   -8.4220   -2.7473    5.9989 C   0  0  0  0  0  0  0  0  0  0  0  0
   -8.3435   -3.1983    7.2915 C   0  0  0  0  0  0  0  0  0  0  0  0
   -9.4357   -3.4147    8.1593 C   0  0  0  0  0  0  0  0  0  0  0  0
  -10.2393   -3.5125    8.9729 N   0  0  0  0  0  0  0  0  0  0  0  0
   -7.1391   -3.3477    8.0135 C   0  0  0  0  0  0  0  0  0  0  0  0
   -6.2075   -3.5139    8.6643 N   0  0  0  0  0  0  0  0  0  0  0  0
    3.0261    1.7134   -6.2112 H   0  0  0  0  0  0  0  0  0  0  0  0
    5.6288   -2.0547   -8.8947 H   0  0  0  0  0  0  0  0  0  0  0  0
    6.6796   -2.9172   -4.0117 H   0  0  0  0  0  0  0  0  0  0  0  0
    8.5179   -5.0158   -6.0390 H   0  0  0  0  0  0  0  0  0  0  0  0
    6.9591   -6.7255   -5.1195 H   0  0  0  0  0  0  0  0  0  0  0  0
    4.5528   -5.7174   -5.3023 H   0  0  0  0  0  0  0  0  0  0  0  0
    4.0240   -5.2876   -7.8689 H   0  0  0  0  0  0  0  0  0  0  0  0
    6.1045   -6.0307   -9.2691 H   0  0  0  0  0  0  0  0  0  0  0  0
    7.8997   -7.1515   -7.6056 H   0  0  0  0  0  0  0  0  0  0  0  0
    6.2946   -7.8965   -7.4000 H   0  0  0  0  0  0  0  0  0  0  0  0
    8.0041   -4.5966   -8.5342 H   0  0  0  0  0  0  0  0  0  0  0  0
    1.6543    3.2084   -4.5312 H   0  0  0  0  0  0  0  0  0  0  0  0
   -0.8342    4.2658    0.2785 H   0  0  0  0  0  0  0  0  0  0  0  0
    0.3271    5.2797    2.1895 H   0  0  0  0  0  0  0  0  0  0  0  0
    3.8118    6.2446    2.2134 H   0  0  0  0  0  0  0  0  0  0  0  0
    2.3245    6.1588    3.1678 H   0  0  0  0  0  0  0  0  0  0  0  0
    4.1233    4.8546    4.2613 H   0  0  0  0  0  0  0  0  0  0  0  0
    2.8427    3.7655    3.7144 H   0  0  0  0  0  0  0  0  0  0  0  0
    4.3429    3.8893    2.7977 H   0  0  0  0  0  0  0  0  0  0  0  0
    4.0698    4.6343    0.2411 H   0  0  0  0  0  0  0  0  0  0  0  0
    2.9281    3.6010   -1.6412 H   0  0  0  0  0  0  0  0  0  0  0  0
   -2.2195    3.0554   -3.1723 H   0  0  0  0  0  0  0  0  0  0  0  0
   -3.1839    4.6693   -4.7561 H   0  0  0  0  0  0  0  0  0  0  0  0
   -3.1675    6.9572   -5.6378 H   0  0  0  0  0  0  0  0  0  0  0  0
   -1.7285    7.9740   -5.4747 H   0  0  0  0  0  0  0  0  0  0  0  0
   -0.5573    6.5872   -7.1869 H   0  0  0  0  0  0  0  0  0  0  0  0
   -2.0521    7.2688   -7.8364 H   0  0  0  0  0  0  0  0  0  0  0  0
   -1.9901    5.5718   -7.3484 H   0  0  0  0  0  0  0  0  0  0  0  0
    0.2999    7.1021   -4.3945 H   0  0  0  0  0  0  0  0  0  0  0  0
    1.2583    5.4983   -2.8044 H   0  0  0  0  0  0  0  0  0  0  0  0
   -3.3603   -2.8822    5.8959 H   0  0  0  0  0  0  0  0  0  0  0  0
   -0.3326   -4.0544    3.3050 H   0  0  0  0  0  0  0  0  0  0  0  0
    0.3570   -6.0894    4.4980 H   0  0  0  0  0  0  0  0  0  0  0  0
    0.3625   -7.3581    6.5830 H   0  0  0  0  0  0  0  0  0  0  0  0
    0.0423   -6.5555    8.1274 H   0  0  0  0  0  0  0  0  0  0  0  0
    2.4162   -7.2777    7.9798 H   0  0  0  0  0  0  0  0  0  0  0  0
    2.6285   -6.3122    6.5151 H   0  0  0  0  0  0  0  0  0  0  0  0
    2.3088   -5.5156    8.0551 H   0  0  0  0  0  0  0  0  0  0  0  0
   -0.2287   -4.1007    8.2245 H   0  0  0  0  0  0  0  0  0  0  0  0
   -0.8972   -2.0641    7.0364 H   0  0  0  0  0  0  0  0  0  0  0  0
    1.3230   -0.6200    3.9947 H   0  0  0  0  0  0  0  0  0  0  0  0
    2.2644    1.4529    4.9083 H   0  0  0  0  0  0  0  0  0  0  0  0
    2.1572    3.2570    6.4848 H   0  0  0  0  0  0  0  0  0  0  0  0
    0.8211    3.3531    7.6406 H   0  0  0  0  0  0  0  0  0  0  0  0
    0.8849    5.3536    6.1512 H   0  0  0  0  0  0  0  0  0  0  0  0
   -0.6083    4.4376    5.9206 H   0  0  0  0  0  0  0  0  0  0  0  0
    0.6934    4.3075    4.7395 H   0  0  0  0  0  0  0  0  0  0  0  0
   -1.3246    2.1000    7.1221 H   0  0  0  0  0  0  0  0  0  0  0  0
   -2.2777    0.0510    6.1899 H   0  0  0  0  0  0  0  0  0  0  0  0
   -5.7222   -3.0125    6.2580 H   0  0  0  0  0  0  0  0  0  0  0  0
  1  2  2  0  0  0  0
  2  3  1  0  0  0  0
  3  4  2  0  0  0  0
  3  5  1  0  0  0  0
  5  6  2  0  0  0  0
  6  7  1  0  0  0  0
  7  8  2  0  0  0  0
  8  9  1  0  0  0  0
  9 10  2  0  0  0  0
 10 11  1  0  0  0  0
 11 12  2  0  0  0  0
 12 13  1  0  0  0  0
 13 14  3  0  0  0  0
 12 15  1  0  0  0  0
 15 16  3  0  0  0  0
  8 17  1  0  0  0  0
 17 18  1  0  0  0  0
 18 19  1  0  0  0  0
 19 20  2  0  0  0  0
 20 21  1  0  0  0  0
 21 22  1  0  0  0  0
 21 23  1  0  0  0  0
  1 24  1  0  0  0  0
 24 25  1  0  0  0  0
 25 26  1  0  0  0  0
 26 27  1  0  0  0  0
 27 28  2  0  0  0  0
 28 29  1  0  0  0  0
 29 30  1  0  0  0  0
 30 31  1  0  0  0  0
 31 32  1  0  0  0  0
 30 33  1  0  0  0  0
 33 34  2  0  0  0  0
 34 35  1  0  0  0  0
 35 36  2  0  0  0  0
 36 37  1  0  0  0  0
 37 38  1  0  0  0  0
 36 39  1  0  0  0  0
 39 40  2  0  0  0  0
 30 41  1  0  0  0  0
 41 42  2  0  0  0  0
 42 43  1  0  0  0  0
 43 44  2  0  0  0  0
 44 45  1  0  0  0  0
 45 46  1  0  0  0  0
 44 47  1  0  0  0  0
 47 48  2  0  0  0  0
 28 49  1  0  0  0  0
 49 50  1  0  0  0  0
 50 51  1  0  0  0  0
 51 52  1  0  0  0  0
 52 53  1  0  0  0  0
 53 54  1  0  0  0  0
 54 55  2  0  0  0  0
 55 56  1  0  0  0  0
 56 57  1  0  0  0  0
 57 58  1  0  0  0  0
 58 59  2  0  0  0  0
 59 60  1  0  0  0  0
 60 61  2  0  0  0  0
 61 62  1  0  0  0  0
 62 63  1  0  0  0  0
 61 64  1  0  0  0  0
 64 65  2  0  0  0  0
 57 66  1  0  0  0  0
 66 67  2  0  0  0  0
 67 68  1  0  0  0  0
 68 69  2  0  0  0  0
 69 70  1  0  0  0  0
 70 71  1  0  0  0  0
 69 72  1  0  0  0  0
 72 73  2  0  0  0  0
 57 74  1  0  0  0  0
 74 75  1  0  0  0  0
 75 76  1  0  0  0  0
 76 77  1  0  0  0  0
 54 78  1  0  0  0  0
 78 79  2  0  0  0  0
 79 80  1  0  0  0  0
 80 81  2  0  0  0  0
 80 82  1  0  0  0  0
 82 83  2  0  0  0  0
 83 84  1  0  0  0  0
 83 85  1  0  0  0  0
 85 86  1  0  0  0  0
 85 87  2  0  0  0  0
 87 88  1  0  0  0  0
 87 89  1  0  0  0  0
 89 90  1  0  0  0  0
 89 91  2  0  0  0  0
 91 92  1  0  0  0  0
 92 93  2  0  0  0  0
 93 94  1  0  0  0  0
 94 95  3  0  0  0  0
 93 96  1  0  0  0  0
 96 97  3  0  0  0  0
 11  2  1  0  0  0  0
 23 17  1  0  0  0  0
 32 24  2  0  0  0  0
 40 33  1  0  0  0  0
 48 41  1  0  0  0  0
 76 49  2  0  0  0  0
 92 79  1  0  0  0  0
 10  5  1  0  0  0  0
 22 18  1  0  0  0  0
 31 26  2  0  0  0  0
 75 51  2  0  0  0  0
 91 82  1  0  0  0  0
 23  7  1  0  0  0  0
 77 27  1  0  0  0  0
 56 52  2  0  0  0  0
 65 58  1  0  0  0  0
 73 66  1  0  0  0  0
  1 98  1  0  0  0  0
  6 99  1  0  0  0  0
  9100  1  0  0  0  0
 17101  1  0  0  0  0
 18102  1  0  0  0  0
 19103  1  0  0  0  0
 20104  1  0  0  0  0
 21105  1  0  0  0  0
 22106  1  0  0  0  0
 22107  1  0  0  0  0
 23108  1  0  0  0  0
 32109  1  0  0  0  0
 34110  1  0  0  0  0
 35111  1  0  0  0  0
 37112  1  0  0  0  0
 37113  1  0  0  0  0
 38114  1  0  0  0  0
 38115  1  0  0  0  0
 38116  1  0  0  0  0
 39117  1  0  0  0  0
 40118  1  0  0  0  0
 42119  1  0  0  0  0
 43120  1  0  0  0  0
 45121  1  0  0  0  0
 45122  1  0  0  0  0
 46123  1  0  0  0  0
 46124  1  0  0  0  0
 46125  1  0  0  0  0
 47126  1  0  0  0  0
 48127  1  0  0  0  0
 55128  1  0  0  0  0
 59129  1  0  0  0  0
 60130  1  0  0  0  0
 62131  1  0  0  0  0
 62132  1  0  0  0  0
 63133  1  0  0  0  0
 63134  1  0  0  0  0
 63135  1  0  0  0  0
 64136  1  0  0  0  0
 65137  1  0  0  0  0
 67138  1  0  0  0  0
 68139  1  0  0  0  0
 70140  1  0  0  0  0
 70141  1  0  0  0  0
 71142  1  0  0  0  0
 71143  1  0  0  0  0
 71144  1  0  0  0  0
 72145  1  0  0  0  0
 73146  1  0  0  0  0
 78147  1  0  0  0  0
M  END
