
  xtb     02022210503D
 energy: -243.615331822558 gnorm: 0.000625825636 xtb: 6.4.1 (unknown)
151167  0     0  0            999 V2000
   -5.5586    0.9490   -2.3235 C   0  0  0  0  0  0  0  0  0  0  0  0
   -6.8648    0.6337   -2.1048 C   0  0  0  0  0  0  0  0  0  0  0  0
   -7.8772    0.9227   -3.1567 C   0  0  0  0  0  0  0  0  0  0  0  0
   -7.7201    1.6070   -4.1427 O   0  0  0  0  0  0  0  0  0  0  0  0
   -9.0796    0.1629   -2.7634 C   0  0  0  0  0  0  0  0  0  0  0  0
  -10.2672    0.0317   -3.4807 C   0  0  0  0  0  0  0  0  0  0  0  0
  -11.2149   -0.7453   -2.8587 C   0  0  0  0  0  0  0  0  0  0  0  0
  -11.0004   -1.3536   -1.6142 C   0  0  0  0  0  0  0  0  0  0  0  0
   -9.8368   -1.2309   -0.8930 C   0  0  0  0  0  0  0  0  0  0  0  0
   -8.8616   -0.4396   -1.5064 C   0  0  0  0  0  0  0  0  0  0  0  0
   -7.5438   -0.0374   -1.0201 C   0  0  0  0  0  0  0  0  0  0  0  0
   -7.1497   -0.0521    0.2939 C   0  0  0  0  0  0  0  0  0  0  0  0
   -6.0127    0.6232    0.7766 C   0  0  0  0  0  0  0  0  0  0  0  0
   -5.1320    1.1962    1.2403 N   0  0  0  0  0  0  0  0  0  0  0  0
   -7.8813   -0.6481    1.3405 C   0  0  0  0  0  0  0  0  0  0  0  0
   -8.4179   -1.1372    2.2299 N   0  0  0  0  0  0  0  0  0  0  0  0
  -12.3714   -1.9815   -1.5938 C   0  0  0  0  0  0  0  0  0  0  0  0
  -12.4502   -3.4857   -1.9287 C   0  0  0  0  0  0  0  0  0  0  0  0
  -13.9002   -3.6976   -2.3000 C   0  0  0  0  0  0  0  0  0  0  0  0
  -14.1030   -3.1227   -3.4785 C   0  0  0  0  0  0  0  0  0  0  0  0
  -12.7935   -2.5124   -3.9238 C   0  0  0  0  0  0  0  0  0  0  0  0
  -11.8118   -3.5269   -3.3231 C   0  0  0  0  0  0  0  0  0  0  0  0
  -12.6112   -1.3038   -2.9811 C   0  0  0  0  0  0  0  0  0  0  0  0
   -4.4016    0.4522   -1.6840 C   0  0  0  0  0  0  0  0  0  0  0  0
   -3.2368    1.1491   -1.8515 O   0  0  0  0  0  0  0  0  0  0  0  0
   -2.2997    0.4658   -1.2021 C   0  0  0  0  0  0  0  0  0  0  0  0
   -0.9210    0.6342   -0.8761 C   0  0  0  0  0  0  0  0  0  0  0  0
   -0.5582   -0.5015   -0.1060 C   0  0  0  0  0  0  0  0  0  0  0  0
   -1.7181   -1.4793    0.0362 C   0  0  0  0  0  0  0  0  0  0  0  0
   -1.9533   -1.7691    1.5058 C   0  0  0  0  0  0  0  0  0  0  0  0
   -1.2771   -2.8125    2.1263 C   0  0  0  0  0  0  0  0  0  0  0  0
   -1.4646   -3.0655    3.4716 C   0  0  0  0  0  0  0  0  0  0  0  0
   -2.3276   -2.2854    4.2310 C   0  0  0  0  0  0  0  0  0  0  0  0
   -2.5016   -2.5455    5.6995 C   0  0  0  0  0  0  0  0  0  0  0  0
   -1.4210   -1.8192    6.5030 C   0  0  0  0  0  0  0  0  0  0  0  0
   -2.9863   -1.2340    3.6086 C   0  0  0  0  0  0  0  0  0  0  0  0
   -2.7996   -0.9723    2.2634 C   0  0  0  0  0  0  0  0  0  0  0  0
   -1.5284   -2.7600   -0.7616 C   0  0  0  0  0  0  0  0  0  0  0  0
   -0.4968   -2.9223   -1.6736 C   0  0  0  0  0  0  0  0  0  0  0  0
   -0.3883   -4.0928   -2.4040 C   0  0  0  0  0  0  0  0  0  0  0  0
   -1.3052   -5.1224   -2.2475 C   0  0  0  0  0  0  0  0  0  0  0  0
   -1.2099   -6.3710   -3.0758 C   0  0  0  0  0  0  0  0  0  0  0  0
   -2.0123   -6.2140   -4.3693 C   0  0  0  0  0  0  0  0  0  0  0  0
   -2.3447   -4.9481   -1.3418 C   0  0  0  0  0  0  0  0  0  0  0  0
   -2.4579   -3.7826   -0.6101 C   0  0  0  0  0  0  0  0  0  0  0  0
   -2.8114   -0.6997   -0.6387 C   0  0  0  0  0  0  0  0  0  0  0  0
   -4.1662   -0.7129   -0.9451 C   0  0  0  0  0  0  0  0  0  0  0  0
    0.6966   -0.6012    0.4469 C   0  0  0  0  0  0  0  0  0  0  0  0
    1.5822    0.4497    0.2134 C   0  0  0  0  0  0  0  0  0  0  0  0
    2.9158    0.6870    0.6611 C   0  0  0  0  0  0  0  0  0  0  0  0
    3.4083    1.8922    0.1618 C   0  0  0  0  0  0  0  0  0  0  0  0
    2.3713    2.5741   -0.6839 C   0  0  0  0  0  0  0  0  0  0  0  0
    1.2270    1.5736   -0.5766 C   0  0  0  0  0  0  0  0  0  0  0  0
   -0.0256    1.6687   -1.1367 C   0  0  0  0  0  0  0  0  0  0  0  0
    2.0792    3.9304   -0.0669 C   0  0  0  0  0  0  0  0  0  0  0  0
    3.0036    4.9528   -0.2483 C   0  0  0  0  0  0  0  0  0  0  0  0
    2.8019    6.1905    0.3290 C   0  0  0  0  0  0  0  0  0  0  0  0
    1.6787    6.4384    1.1089 C   0  0  0  0  0  0  0  0  0  0  0  0
    1.4389    7.7977    1.7001 C   0  0  0  0  0  0  0  0  0  0  0  0
    0.6482    8.6739    0.7263 C   0  0  0  0  0  0  0  0  0  0  0  0
    0.7649    5.4108    1.2939 C   0  0  0  0  0  0  0  0  0  0  0  0
    0.9625    4.1670    0.7199 C   0  0  0  0  0  0  0  0  0  0  0  0
    2.7489    2.6972   -2.1496 C   0  0  0  0  0  0  0  0  0  0  0  0
    2.1061    3.6262   -2.9578 C   0  0  0  0  0  0  0  0  0  0  0  0
    2.4099    3.7141   -4.3031 C   0  0  0  0  0  0  0  0  0  0  0  0
    3.3549    2.8744   -4.8781 C   0  0  0  0  0  0  0  0  0  0  0  0
    3.7196    3.0045   -6.3287 C   0  0  0  0  0  0  0  0  0  0  0  0
    4.8877    3.9778   -6.4997 C   0  0  0  0  0  0  0  0  0  0  0  0
    3.9890    1.9431   -4.0669 C   0  0  0  0  0  0  0  0  0  0  0  0
    3.6877    1.8499   -2.7207 C   0  0  0  0  0  0  0  0  0  0  0  0
    4.6779    2.0491    0.6968 C   0  0  0  0  0  0  0  0  0  0  0  0
    4.8968    0.9201    1.4989 C   0  0  0  0  0  0  0  0  0  0  0  0
    3.7967    0.0892    1.4511 O   0  0  0  0  0  0  0  0  0  0  0  0
    5.9473    0.4632    2.3126 C   0  0  0  0  0  0  0  0  0  0  0  0
    7.1142    1.0671    2.7006 C   0  0  0  0  0  0  0  0  0  0  0  0
    7.5496    2.4565    2.4345 C   0  0  0  0  0  0  0  0  0  0  0  0
    7.0659    3.2753    1.6797 O   0  0  0  0  0  0  0  0  0  0  0  0
    8.7248    2.6783    3.2984 C   0  0  0  0  0  0  0  0  0  0  0  0
    9.4430    3.8255    3.4721 C   0  0  0  0  0  0  0  0  0  0  0  0
   10.5296    3.8271    4.3744 C   0  0  0  0  0  0  0  0  0  0  0  0
   11.3009    4.9855    4.5993 C   0  0  0  0  0  0  0  0  0  0  0  0
   12.3460    4.9755    5.4806 C   0  0  0  0  0  0  0  0  0  0  0  0
   12.6452    3.7887    6.1631 C   0  0  0  0  0  0  0  0  0  0  0  0
   13.6778    3.7983    7.0268 F   0  0  0  0  0  0  0  0  0  0  0  0
   11.9302    2.6378    5.9818 C   0  0  0  0  0  0  0  0  0  0  0  0
   10.8494    2.6301    5.0784 C   0  0  0  0  0  0  0  0  0  0  0  0
   10.0891    1.4551    4.8721 C   0  0  0  0  0  0  0  0  0  0  0  0
    9.0400    1.4780    3.9920 C   0  0  0  0  0  0  0  0  0  0  0  0
    8.0881    0.4486    3.5829 C   0  0  0  0  0  0  0  0  0  0  0  0
    8.1623   -0.8731    3.9415 C   0  0  0  0  0  0  0  0  0  0  0  0
    7.3116   -1.9051    3.4927 C   0  0  0  0  0  0  0  0  0  0  0  0
    6.6856   -2.8114    3.1662 N   0  0  0  0  0  0  0  0  0  0  0  0
    9.1488   -1.4025    4.7996 C   0  0  0  0  0  0  0  0  0  0  0  0
    9.9189   -1.8987    5.4920 N   0  0  0  0  0  0  0  0  0  0  0  0
   -5.3729    1.6289   -3.1491 H   0  0  0  0  0  0  0  0  0  0  0  0
  -10.3960    0.5214   -4.4332 H   0  0  0  0  0  0  0  0  0  0  0  0
   -9.6813   -1.7047    0.0622 H   0  0  0  0  0  0  0  0  0  0  0  0
  -13.0079   -1.6973   -0.7581 H   0  0  0  0  0  0  0  0  0  0  0  0
  -12.0384   -4.1435   -1.1682 H   0  0  0  0  0  0  0  0  0  0  0  0
  -14.6184   -4.1785   -1.6623 H   0  0  0  0  0  0  0  0  0  0  0  0
  -15.0246   -3.0276   -4.0220 H   0  0  0  0  0  0  0  0  0  0  0  0
  -12.6943   -2.2848   -4.9817 H   0  0  0  0  0  0  0  0  0  0  0  0
  -10.7722   -3.2049   -3.3451 H   0  0  0  0  0  0  0  0  0  0  0  0
  -11.8992   -4.5080   -3.7869 H   0  0  0  0  0  0  0  0  0  0  0  0
  -13.4096   -0.5698   -3.0710 H   0  0  0  0  0  0  0  0  0  0  0  0
   -0.6120   -3.4404    1.5506 H   0  0  0  0  0  0  0  0  0  0  0  0
   -0.9368   -3.8856    3.9375 H   0  0  0  0  0  0  0  0  0  0  0  0
   -3.4850   -2.1987    6.0223 H   0  0  0  0  0  0  0  0  0  0  0  0
   -2.4351   -3.6178    5.8956 H   0  0  0  0  0  0  0  0  0  0  0  0
   -1.4803   -0.7467    6.3319 H   0  0  0  0  0  0  0  0  0  0  0  0
   -1.5450   -2.0095    7.5666 H   0  0  0  0  0  0  0  0  0  0  0  0
   -0.4324   -2.1590    6.2021 H   0  0  0  0  0  0  0  0  0  0  0  0
   -3.6594   -0.6101    4.1787 H   0  0  0  0  0  0  0  0  0  0  0  0
   -3.3249   -0.1468    1.8059 H   0  0  0  0  0  0  0  0  0  0  0  0
    0.2301   -2.1362   -1.8163 H   0  0  0  0  0  0  0  0  0  0  0  0
    0.4260   -4.2060   -3.1054 H   0  0  0  0  0  0  0  0  0  0  0  0
   -0.1659   -6.5736   -3.3225 H   0  0  0  0  0  0  0  0  0  0  0  0
   -1.5995   -7.2208   -2.5118 H   0  0  0  0  0  0  0  0  0  0  0  0
   -1.6299   -5.3790   -4.9522 H   0  0  0  0  0  0  0  0  0  0  0  0
   -3.0591   -6.0219   -4.1441 H   0  0  0  0  0  0  0  0  0  0  0  0
   -1.9461   -7.1174   -4.9709 H   0  0  0  0  0  0  0  0  0  0  0  0
   -3.0717   -5.7361   -1.2065 H   0  0  0  0  0  0  0  0  0  0  0  0
   -3.2669   -3.6646    0.0964 H   0  0  0  0  0  0  0  0  0  0  0  0
   -4.8943   -1.4603   -0.7027 H   0  0  0  0  0  0  0  0  0  0  0  0
    0.9885   -1.4466    1.0498 H   0  0  0  0  0  0  0  0  0  0  0  0
   -0.3206    2.5171   -1.7337 H   0  0  0  0  0  0  0  0  0  0  0  0
    3.8830    4.7745   -0.8494 H   0  0  0  0  0  0  0  0  0  0  0  0
    3.5299    6.9745    0.1775 H   0  0  0  0  0  0  0  0  0  0  0  0
    0.8796    7.7020    2.6328 H   0  0  0  0  0  0  0  0  0  0  0  0
    2.3942    8.2778    1.9216 H   0  0  0  0  0  0  0  0  0  0  0  0
   -0.3148    8.2191    0.5049 H   0  0  0  0  0  0  0  0  0  0  0  0
    0.4770    9.6591    1.1539 H   0  0  0  0  0  0  0  0  0  0  0  0
    1.1944    8.7901   -0.2072 H   0  0  0  0  0  0  0  0  0  0  0  0
   -0.1132    5.5799    1.9007 H   0  0  0  0  0  0  0  0  0  0  0  0
    0.2403    3.3823    0.8906 H   0  0  0  0  0  0  0  0  0  0  0  0
    1.3730    4.2938   -2.5290 H   0  0  0  0  0  0  0  0  0  0  0  0
    1.9030    4.4452   -4.9167 H   0  0  0  0  0  0  0  0  0  0  0  0
    2.8608    3.3697   -6.8954 H   0  0  0  0  0  0  0  0  0  0  0  0
    4.0033    2.0287   -6.7283 H   0  0  0  0  0  0  0  0  0  0  0  0
    5.7576    3.6248   -5.9504 H   0  0  0  0  0  0  0  0  0  0  0  0
    5.1542    4.0720   -7.5498 H   0  0  0  0  0  0  0  0  0  0  0  0
    4.6193    4.9609   -6.1194 H   0  0  0  0  0  0  0  0  0  0  0  0
    4.7267    1.2787   -4.4940 H   0  0  0  0  0  0  0  0  0  0  0  0
    4.1919    1.1139   -2.1113 H   0  0  0  0  0  0  0  0  0  0  0  0
    5.3740    2.8494    0.5584 H   0  0  0  0  0  0  0  0  0  0  0  0
    5.7444   -0.5222    2.7158 H   0  0  0  0  0  0  0  0  0  0  0  0
    9.1814    4.7220    2.9301 H   0  0  0  0  0  0  0  0  0  0  0  0
   11.0501    5.8875    4.0615 H   0  0  0  0  0  0  0  0  0  0  0  0
   12.9450    5.8531    5.6656 H   0  0  0  0  0  0  0  0  0  0  0  0
   12.1899    1.7421    6.5242 H   0  0  0  0  0  0  0  0  0  0  0  0
   10.3550    0.5687    5.4248 H   0  0  0  0  0  0  0  0  0  0  0  0
  1  2  2  0  0  0  0
  2  3  1  0  0  0  0
  3  4  2  0  0  0  0
  3  5  1  0  0  0  0
  5  6  2  0  0  0  0
  6  7  1  0  0  0  0
  7  8  2  0  0  0  0
  8  9  1  0  0  0  0
  9 10  2  0  0  0  0
 10 11  1  0  0  0  0
 11 12  2  0  0  0  0
 12 13  1  0  0  0  0
 13 14  3  0  0  0  0
 12 15  1  0  0  0  0
 15 16  3  0  0  0  0
  8 17  1  0  0  0  0
 17 18  1  0  0  0  0
 18 19  1  0  0  0  0
 19 20  2  0  0  0  0
 20 21  1  0  0  0  0
 21 22  1  0  0  0  0
 21 23  1  0  0  0  0
  1 24  1  0  0  0  0
 24 25  1  0  0  0  0
 25 26  1  0  0  0  0
 26 27  1  0  0  0  0
 27 28  2  0  0  0  0
 28 29  1  0  0  0  0
 29 30  1  0  0  0  0
 30 31  2  0  0  0  0
 31 32  1  0  0  0  0
 32 33  2  0  0  0  0
 33 34  1  0  0  0  0
 34 35  1  0  0  0  0
 33 36  1  0  0  0  0
 36 37  2  0  0  0  0
 29 38  1  0  0  0  0
 38 39  2  0  0  0  0
 39 40  1  0  0  0  0
 40 41  2  0  0  0  0
 41 42  1  0  0  0  0
 42 43  1  0  0  0  0
 41 44  1  0  0  0  0
 44 45  2  0  0  0  0
 29 46  1  0  0  0  0
 46 47  1  0  0  0  0
 28 48  1  0  0  0  0
 48 49  2  0  0  0  0
 49 50  1  0  0  0  0
 50 51  2  0  0  0  0
 51 52  1  0  0  0  0
 52 53  1  0  0  0  0
 53 54  2  0  0  0  0
 52 55  1  0  0  0  0
 55 56  2  0  0  0  0
 56 57  1  0  0  0  0
 57 58  2  0  0  0  0
 58 59  1  0  0  0  0
 59 60  1  0  0  0  0
 58 61  1  0  0  0  0
 61 62  2  0  0  0  0
 52 63  1  0  0  0  0
 63 64  2  0  0  0  0
 64 65  1  0  0  0  0
 65 66  2  0  0  0  0
 66 67  1  0  0  0  0
 67 68  1  0  0  0  0
 66 69  1  0  0  0  0
 69 70  2  0  0  0  0
 51 71  1  0  0  0  0
 71 72  2  0  0  0  0
 72 73  1  0  0  0  0
 72 74  1  0  0  0  0
 74 75  2  0  0  0  0
 75 76  1  0  0  0  0
 76 77  2  0  0  0  0
 76 78  1  0  0  0  0
 78 79  2  0  0  0  0
 79 80  1  0  0  0  0
 80 81  2  0  0  0  0
 81 82  1  0  0  0  0
 82 83  2  0  0  0  0
 83 84  1  0  0  0  0
 83 85  1  0  0  0  0
 85 86  2  0  0  0  0
 86 87  1  0  0  0  0
 87 88  2  0  0  0  0
 88 89  1  0  0  0  0
 89 90  2  0  0  0  0
 90 91  1  0  0  0  0
 91 92  3  0  0  0  0
 90 93  1  0  0  0  0
 93 94  3  0  0  0  0
 11  2  1  0  0  0  0
 23 17  1  0  0  0  0
 47 24  2  0  0  0  0
 53 49  1  0  0  0  0
 62 55  1  0  0  0  0
 70 63  1  0  0  0  0
 89 75  1  0  0  0  0
 10  5  1  0  0  0  0
 22 18  1  0  0  0  0
 46 26  2  0  0  0  0
 73 50  1  0  0  0  0
 88 78  1  0  0  0  0
 23  7  1  0  0  0  0
 54 27  1  0  0  0  0
 86 80  1  0  0  0  0
 37 30  1  0  0  0  0
 45 38  1  0  0  0  0
  1 95  1  0  0  0  0
  6 96  1  0  0  0  0
  9 97  1  0  0  0  0
 17 98  1  0  0  0  0
 18 99  1  0  0  0  0
 19100  1  0  0  0  0
 20101  1  0  0  0  0
 21102  1  0  0  0  0
 22103  1  0  0  0  0
 22104  1  0  0  0  0
 23105  1  0  0  0  0
 31106  1  0  0  0  0
 32107  1  0  0  0  0
 34108  1  0  0  0  0
 34109  1  0  0  0  0
 35110  1  0  0  0  0
 35111  1  0  0  0  0
 35112  1  0  0  0  0
 36113  1  0  0  0  0
 37114  1  0  0  0  0
 39115  1  0  0  0  0
 40116  1  0  0  0  0
 42117  1  0  0  0  0
 42118  1  0  0  0  0
 43119  1  0  0  0  0
 43120  1  0  0  0  0
 43121  1  0  0  0  0
 44122  1  0  0  0  0
 45123  1  0  0  0  0
 47124  1  0  0  0  0
 48125  1  0  0  0  0
 54126  1  0  0  0  0
 56127  1  0  0  0  0
 57128  1  0  0  0  0
 59129  1  0  0  0  0
 59130  1  0  0  0  0
 60131  1  0  0  0  0
 60132  1  0  0  0  0
 60133  1  0  0  0  0
 61134  1  0  0  0  0
 62135  1  0  0  0  0
 64136  1  0  0  0  0
 65137  1  0  0  0  0
 67138  1  0  0  0  0
 67139  1  0  0  0  0
 68140  1  0  0  0  0
 68141  1  0  0  0  0
 68142  1  0  0  0  0
 69143  1  0  0  0  0
 70144  1  0  0  0  0
 71145  1  0  0  0  0
 74146  1  0  0  0  0
 79147  1  0  0  0  0
 81148  1  0  0  0  0
 82149  1  0  0  0  0
 85150  1  0  0  0  0
 87151  1  0  0  0  0
M  END
