
  xtb     02012222113D
 energy: -350.391852209516 gnorm: 0.000239720104 xtb: 6.4.1 (unknown)
228252  0     0  0            999 V2000
   -4.9653   -8.1380    2.0811 C   0  0  0  0  0  0  0  0  0  0  0  0
   -4.2787   -9.3110    2.2959 C   0  0  0  0  0  0  0  0  0  0  0  0
   -2.9041   -9.4101    2.7670 C   0  0  0  0  0  0  0  0  0  0  0  0
   -2.1774   -8.4931    3.1323 O   0  0  0  0  0  0  0  0  0  0  0  0
   -2.5396  -10.8340    2.7191 C   0  0  0  0  0  0  0  0  0  0  0  0
   -1.3073  -11.3998    3.0377 C   0  0  0  0  0  0  0  0  0  0  0  0
   -1.2591  -12.7629    2.8681 C   0  0  0  0  0  0  0  0  0  0  0  0
   -2.3572  -13.5081    2.4205 C   0  0  0  0  0  0  0  0  0  0  0  0
   -3.5814  -12.9622    2.1113 C   0  0  0  0  0  0  0  0  0  0  0  0
   -3.6518  -11.5756    2.2712 C   0  0  0  0  0  0  0  0  0  0  0  0
   -4.7608  -10.6504    2.0282 C   0  0  0  0  0  0  0  0  0  0  0  0
   -6.0210  -11.0158    1.6278 C   0  0  0  0  0  0  0  0  0  0  0  0
   -6.4295  -12.3434    1.3838 C   0  0  0  0  0  0  0  0  0  0  0  0
   -6.8358  -13.3950    1.1642 N   0  0  0  0  0  0  0  0  0  0  0  0
   -7.1030  -10.1382    1.4080 C   0  0  0  0  0  0  0  0  0  0  0  0
   -8.0387   -9.5017    1.2077 N   0  0  0  0  0  0  0  0  0  0  0  0
   -1.5940  -14.8089    2.4631 C   0  0  0  0  0  0  0  0  0  0  0  0
   -1.1015  -15.3620    1.1089 C   0  0  0  0  0  0  0  0  0  0  0  0
   -0.0104  -16.3361    1.4911 C   0  0  0  0  0  0  0  0  0  0  0  0
    1.0298  -15.6305    1.9160 C   0  0  0  0  0  0  0  0  0  0  0  0
    0.6593  -14.1675    1.8281 C   0  0  0  0  0  0  0  0  0  0  0  0
   -0.2460  -14.1990    0.5899 C   0  0  0  0  0  0  0  0  0  0  0  0
   -0.3693  -13.9775    2.9632 C   0  0  0  0  0  0  0  0  0  0  0  0
   -4.5672   -6.8046    2.2288 C   0  0  0  0  0  0  0  0  0  0  0  0
   -2.9100   -6.1259    2.8772 Se  0  0  0  0  0  2  0  0  0  0  0  0
   -3.5848   -4.4558    2.4820 C   0  0  0  0  0  0  0  0  0  0  0  0
   -3.1220   -3.1063    2.5155 C   0  0  0  0  0  0  0  0  0  0  0  0
   -4.1449   -2.2778    2.0017 C   0  0  0  0  0  0  0  0  0  0  0  0
   -5.3487   -3.1075    1.5896 C   0  0  0  0  0  0  0  0  0  0  0  0
   -4.8739   -4.4971    1.9419 C   0  0  0  0  0  0  0  0  0  0  0  0
   -5.4143   -5.7580    1.8262 C   0  0  0  0  0  0  0  0  0  0  0  0
   -5.5589   -2.9138    0.0974 C   0  0  0  0  0  0  0  0  0  0  0  0
   -4.9818   -3.7711   -0.8298 C   0  0  0  0  0  0  0  0  0  0  0  0
   -5.1651   -3.5681   -2.1843 C   0  0  0  0  0  0  0  0  0  0  0  0
   -5.9102   -2.4941   -2.6540 C   0  0  0  0  0  0  0  0  0  0  0  0
   -6.0952   -2.2863   -4.1307 C   0  0  0  0  0  0  0  0  0  0  0  0
   -4.7893   -1.8705   -4.8092 C   0  0  0  0  0  0  0  0  0  0  0  0
   -6.4641   -1.6248   -1.7241 C   0  0  0  0  0  0  0  0  0  0  0  0
   -6.2950   -1.8315   -0.3673 C   0  0  0  0  0  0  0  0  0  0  0  0
   -6.6065   -2.8175    2.3843 C   0  0  0  0  0  0  0  0  0  0  0  0
   -6.5597   -2.1531    3.6010 C   0  0  0  0  0  0  0  0  0  0  0  0
   -7.7158   -1.9518    4.3338 C   0  0  0  0  0  0  0  0  0  0  0  0
   -8.9420   -2.4121    3.8754 C   0  0  0  0  0  0  0  0  0  0  0  0
  -10.1893   -2.2348    4.6922 C   0  0  0  0  0  0  0  0  0  0  0  0
  -10.4361   -3.4679    5.5637 C   0  0  0  0  0  0  0  0  0  0  0  0
   -8.9811   -3.0879    2.6619 C   0  0  0  0  0  0  0  0  0  0  0  0
   -7.8303   -3.2914    1.9262 C   0  0  0  0  0  0  0  0  0  0  0  0
   -3.9521   -0.9223    1.8582 C   0  0  0  0  0  0  0  0  0  0  0  0
   -2.7114   -0.4121    2.2294 C   0  0  0  0  0  0  0  0  0  0  0  0
   -2.1448    0.8911    2.0629 C   0  0  0  0  0  0  0  0  0  0  0  0
   -0.8083    0.8793    2.4176 C   0  0  0  0  0  0  0  0  0  0  0  0
   -0.4233   -0.4483    3.0125 C   0  0  0  0  0  0  0  0  0  0  0  0
   -1.6910   -1.2428    2.7572 C   0  0  0  0  0  0  0  0  0  0  0  0
   -1.8871   -2.5923    2.9098 C   0  0  0  0  0  0  0  0  0  0  0  0
   -0.1427   -0.2138    4.4881 C   0  0  0  0  0  0  0  0  0  0  0  0
    1.0086    0.4777    4.8481 C   0  0  0  0  0  0  0  0  0  0  0  0
    1.2784    0.7507    6.1744 C   0  0  0  0  0  0  0  0  0  0  0  0
    0.4054    0.3466    7.1772 C   0  0  0  0  0  0  0  0  0  0  0  0
    0.7219    0.6045    8.6222 C   0  0  0  0  0  0  0  0  0  0  0  0
    1.5329   -0.5537    9.2069 C   0  0  0  0  0  0  0  0  0  0  0  0
   -0.7432   -0.3407    6.8120 C   0  0  0  0  0  0  0  0  0  0  0  0
   -1.0203   -0.6146    5.4841 C   0  0  0  0  0  0  0  0  0  0  0  0
    0.7594   -1.0817    2.3070 C   0  0  0  0  0  0  0  0  0  0  0  0
    0.9939   -0.8224    0.9627 C   0  0  0  0  0  0  0  0  0  0  0  0
    2.0928   -1.3637    0.3243 C   0  0  0  0  0  0  0  0  0  0  0  0
    2.9764   -2.1911    1.0046 C   0  0  0  0  0  0  0  0  0  0  0  0
    4.2145   -2.7028    0.3266 C   0  0  0  0  0  0  0  0  0  0  0  0
    5.3265   -1.6540    0.4004 C   0  0  0  0  0  0  0  0  0  0  0  0
    2.7124   -2.4849    2.3353 C   0  0  0  0  0  0  0  0  0  0  0  0
    1.6166   -1.9412    2.9800 C   0  0  0  0  0  0  0  0  0  0  0  0
   -0.1555    2.0449    2.0271 C   0  0  0  0  0  0  0  0  0  0  0  0
    1.5143    2.5066    1.9089 S   0  0  0  0  0  0  0  0  0  0  0  0
    1.0433    3.8692    0.9478 C   0  0  0  0  0  0  0  0  0  0  0  0
    1.7360    4.7501    0.0653 C   0  0  0  0  0  0  0  0  0  0  0  0
    3.0893    4.8268   -0.2457 C   0  0  0  0  0  0  0  0  0  0  0  0
    3.4456    5.6285   -1.3047 C   0  0  0  0  0  0  0  0  0  0  0  0
    4.8109    5.7651   -1.9525 C   0  0  0  0  0  0  0  0  0  0  0  0
    5.2514    4.3629   -2.3368 C   0  0  0  0  0  0  0  0  0  0  0  0
    5.9324    3.5752   -1.4167 C   0  0  0  0  0  0  0  0  0  0  0  0
    6.2535    2.2648   -1.7153 C   0  0  0  0  0  0  0  0  0  0  0  0
    5.9014    1.7044   -2.9365 C   0  0  0  0  0  0  0  0  0  0  0  0
    6.2841    0.2917   -3.2726 C   0  0  0  0  0  0  0  0  0  0  0  0
    7.6705    0.2524   -3.9181 C   0  0  0  0  0  0  0  0  0  0  0  0
    5.2262    2.4974   -3.8542 C   0  0  0  0  0  0  0  0  0  0  0  0
    4.8973    3.8075   -3.5581 C   0  0  0  0  0  0  0  0  0  0  0  0
    5.8478    6.4711   -1.1009 C   0  0  0  0  0  0  0  0  0  0  0  0
    7.1773    6.4596   -1.5067 C   0  0  0  0  0  0  0  0  0  0  0  0
    8.1374    7.1295   -0.7748 C   0  0  0  0  0  0  0  0  0  0  0  0
    7.7969    7.8321    0.3748 C   0  0  0  0  0  0  0  0  0  0  0  0
    8.8522    8.5168    1.1947 C   0  0  0  0  0  0  0  0  0  0  0  0
    9.4473    7.5458    2.2166 C   0  0  0  0  0  0  0  0  0  0  0  0
    6.4668    7.8459    0.7700 C   0  0  0  0  0  0  0  0  0  0  0  0
    5.4991    7.1792    0.0392 C   0  0  0  0  0  0  0  0  0  0  0  0
    4.4868    6.6508   -3.1293 C   0  0  0  0  0  0  0  0  0  0  0  0
    3.1321    6.9980   -3.1105 C   0  0  0  0  0  0  0  0  0  0  0  0
    2.4705    6.3622   -2.0175 C   0  0  0  0  0  0  0  0  0  0  0  0
    1.1175    6.3185   -1.6753 C   0  0  0  0  0  0  0  0  0  0  0  0
    0.7551    5.4878   -0.6447 C   0  0  0  0  0  0  0  0  0  0  0  0
   -0.6372    5.1626   -0.1205 C   0  0  0  0  0  0  0  0  0  0  0  0
   -1.1342    6.3994    0.6091 C   0  0  0  0  0  0  0  0  0  0  0  0
   -1.6424    7.4652   -0.1240 C   0  0  0  0  0  0  0  0  0  0  0  0
   -2.0641    8.6165    0.5112 C   0  0  0  0  0  0  0  0  0  0  0  0
   -1.9905    8.7367    1.8935 C   0  0  0  0  0  0  0  0  0  0  0  0
   -2.4089   10.0061    2.5773 C   0  0  0  0  0  0  0  0  0  0  0  0
   -1.2297   10.9770    2.6677 C   0  0  0  0  0  0  0  0  0  0  0  0
   -1.4784    7.6715    2.6203 C   0  0  0  0  0  0  0  0  0  0  0  0
   -1.0525    6.5166    1.9886 C   0  0  0  0  0  0  0  0  0  0  0  0
   -1.6305    4.6668   -1.1494 C   0  0  0  0  0  0  0  0  0  0  0  0
   -1.2120    3.9906   -2.2858 C   0  0  0  0  0  0  0  0  0  0  0  0
   -2.1398    3.4361   -3.1503 C   0  0  0  0  0  0  0  0  0  0  0  0
   -3.5009    3.5422   -2.9020 C   0  0  0  0  0  0  0  0  0  0  0  0
   -4.5160    2.8970   -3.8013 C   0  0  0  0  0  0  0  0  0  0  0  0
   -5.1538    1.6875   -3.1155 C   0  0  0  0  0  0  0  0  0  0  0  0
   -3.9129    4.2253   -1.7643 C   0  0  0  0  0  0  0  0  0  0  0  0
   -2.9926    4.7709   -0.8926 C   0  0  0  0  0  0  0  0  0  0  0  0
   -0.3252    4.0129    0.8018 C   0  0  0  0  0  0  0  0  0  0  0  0
   -1.0202    2.9573    1.3913 C   0  0  0  0  0  0  0  0  0  0  0  0
   -2.6567    2.3738    1.3171 S   0  0  0  0  0  0  0  0  0  0  0  0
    2.6622    8.0890   -4.5187 Se  0  0  0  0  0  2  0  0  0  0  0  0
    4.4955    7.9512   -5.0631 C   0  0  0  0  0  0  0  0  0  0  0  0
    5.2279    7.1658   -4.1758 C   0  0  0  0  0  0  0  0  0  0  0  0
    4.8492    8.6139   -6.2464 C   0  0  0  0  0  0  0  0  0  0  0  0
    6.0240    8.6888   -6.9580 C   0  0  0  0  0  0  0  0  0  0  0  0
    7.3322    8.0529   -6.6661 C   0  0  0  0  0  0  0  0  0  0  0  0
    7.6479    7.3480   -5.7280 O   0  0  0  0  0  0  0  0  0  0  0  0
    8.2100    8.4524   -7.7758 C   0  0  0  0  0  0  0  0  0  0  0  0
    9.4958    8.2392   -8.1495 C   0  0  0  0  0  0  0  0  0  0  0  0
    9.8444    9.0593   -9.6279 S   0  0  0  0  0  0  0  0  0  0  0  0
    8.2430    9.6927   -9.7400 C   0  0  0  0  0  0  0  0  0  0  0  0
    7.4861    9.2857   -8.6850 C   0  0  0  0  0  0  0  0  0  0  0  0
    6.1304    9.4457   -8.1957 C   0  0  0  0  0  0  0  0  0  0  0  0
    5.1765   10.1919   -8.8433 C   0  0  0  0  0  0  0  0  0  0  0  0
    5.4729   10.8585  -10.0498 C   0  0  0  0  0  0  0  0  0  0  0  0
    5.6907   11.4101  -11.0329 N   0  0  0  0  0  0  0  0  0  0  0  0
    3.8422   10.4029   -8.4478 C   0  0  0  0  0  0  0  0  0  0  0  0
    2.7418   10.6280   -8.2022 N   0  0  0  0  0  0  0  0  0  0  0  0
   -5.9735   -8.2368    1.6938 H   0  0  0  0  0  0  0  0  0  0  0  0
   -0.4882  -10.7872    3.3803 H   0  0  0  0  0  0  0  0  0  0  0  0
   -4.4153  -13.5524    1.7704 H   0  0  0  0  0  0  0  0  0  0  0  0
   -2.0025  -15.5791    3.1143 H   0  0  0  0  0  0  0  0  0  0  0  0
   -1.8864  -15.7367    0.4578 H   0  0  0  0  0  0  0  0  0  0  0  0
   -0.1240  -17.4040    1.4665 H   0  0  0  0  0  0  0  0  0  0  0  0
    1.9588  -15.9911    2.3173 H   0  0  0  0  0  0  0  0  0  0  0  0
    1.4790  -13.4540    1.8316 H   0  0  0  0  0  0  0  0  0  0  0  0
    0.3016  -14.4622   -0.3136 H   0  0  0  0  0  0  0  0  0  0  0  0
   -0.8022  -13.2784    0.4232 H   0  0  0  0  0  0  0  0  0  0  0  0
    0.0391  -14.1932    3.9487 H   0  0  0  0  0  0  0  0  0  0  0  0
   -6.3979   -5.9579    1.4340 H   0  0  0  0  0  0  0  0  0  0  0  0
   -4.3914   -4.6121   -0.4963 H   0  0  0  0  0  0  0  0  0  0  0  0
   -4.7262   -4.2617   -2.8873 H   0  0  0  0  0  0  0  0  0  0  0  0
   -6.8524   -1.5185   -4.3010 H   0  0  0  0  0  0  0  0  0  0  0  0
   -6.4499   -3.2156   -4.5840 H   0  0  0  0  0  0  0  0  0  0  0  0
   -4.9482   -1.7207   -5.8747 H   0  0  0  0  0  0  0  0  0  0  0  0
   -4.0286   -2.6362   -4.6779 H   0  0  0  0  0  0  0  0  0  0  0  0
   -4.4170   -0.9437   -4.3802 H   0  0  0  0  0  0  0  0  0  0  0  0
   -7.0443   -0.7784   -2.0628 H   0  0  0  0  0  0  0  0  0  0  0  0
   -6.7556   -1.1541    0.3374 H   0  0  0  0  0  0  0  0  0  0  0  0
   -5.6162   -1.7876    3.9801 H   0  0  0  0  0  0  0  0  0  0  0  0
   -7.6617   -1.4274    5.2775 H   0  0  0  0  0  0  0  0  0  0  0  0
  -11.0459   -2.0851    4.0315 H   0  0  0  0  0  0  0  0  0  0  0  0
  -10.0924   -1.3549    5.3314 H   0  0  0  0  0  0  0  0  0  0  0  0
  -11.3389   -3.3409    6.1567 H   0  0  0  0  0  0  0  0  0  0  0  0
   -9.5971   -3.6287    6.2371 H   0  0  0  0  0  0  0  0  0  0  0  0
  -10.5496   -4.3536    4.9428 H   0  0  0  0  0  0  0  0  0  0  0  0
   -9.9249   -3.4588    2.2885 H   0  0  0  0  0  0  0  0  0  0  0  0
   -7.8817   -3.8138    0.9819 H   0  0  0  0  0  0  0  0  0  0  0  0
   -4.7123   -0.2763    1.4470 H   0  0  0  0  0  0  0  0  0  0  0  0
   -1.1145   -3.2465    3.2880 H   0  0  0  0  0  0  0  0  0  0  0  0
    1.7002    0.7974    4.0819 H   0  0  0  0  0  0  0  0  0  0  0  0
    2.1781    1.2897    6.4350 H   0  0  0  0  0  0  0  0  0  0  0  0
    1.2957    1.5287    8.7162 H   0  0  0  0  0  0  0  0  0  0  0  0
   -0.2040    0.7175    9.1898 H   0  0  0  0  0  0  0  0  0  0  0  0
    1.7629   -0.3676   10.2534 H   0  0  0  0  0  0  0  0  0  0  0  0
    2.4665   -0.6745    8.6618 H   0  0  0  0  0  0  0  0  0  0  0  0
    0.9719   -1.4827    9.1341 H   0  0  0  0  0  0  0  0  0  0  0  0
   -1.4364   -0.6643    7.5755 H   0  0  0  0  0  0  0  0  0  0  0  0
   -1.9252   -1.1455    5.2281 H   0  0  0  0  0  0  0  0  0  0  0  0
    0.3171   -0.1874    0.4091 H   0  0  0  0  0  0  0  0  0  0  0  0
    2.2691   -1.1352   -0.7173 H   0  0  0  0  0  0  0  0  0  0  0  0
    4.5516   -3.6222    0.8088 H   0  0  0  0  0  0  0  0  0  0  0  0
    3.9988   -2.9242   -0.7209 H   0  0  0  0  0  0  0  0  0  0  0  0
    6.2247   -2.0155   -0.0960 H   0  0  0  0  0  0  0  0  0  0  0  0
    5.5686   -1.4334    1.4378 H   0  0  0  0  0  0  0  0  0  0  0  0
    5.0064   -0.7307   -0.0785 H   0  0  0  0  0  0  0  0  0  0  0  0
    3.3758   -3.1428    2.8786 H   0  0  0  0  0  0  0  0  0  0  0  0
    1.4364   -2.1752    4.0193 H   0  0  0  0  0  0  0  0  0  0  0  0
    3.8139    4.2392    0.2964 H   0  0  0  0  0  0  0  0  0  0  0  0
    6.2194    3.9924   -0.4622 H   0  0  0  0  0  0  0  0  0  0  0  0
    6.7804    1.6658   -0.9857 H   0  0  0  0  0  0  0  0  0  0  0  0
    6.2936   -0.3152   -2.3651 H   0  0  0  0  0  0  0  0  0  0  0  0
    5.5537   -0.1356   -3.9627 H   0  0  0  0  0  0  0  0  0  0  0  0
    7.6805    0.8467   -4.8289 H   0  0  0  0  0  0  0  0  0  0  0  0
    7.9465   -0.7698   -4.1665 H   0  0  0  0  0  0  0  0  0  0  0  0
    8.4156    0.6585   -3.2376 H   0  0  0  0  0  0  0  0  0  0  0  0
    4.9452    2.0827   -4.8120 H   0  0  0  0  0  0  0  0  0  0  0  0
    4.3604    4.3994   -4.2853 H   0  0  0  0  0  0  0  0  0  0  0  0
    7.4608    5.9176   -2.3967 H   0  0  0  0  0  0  0  0  0  0  0  0
    9.1665    7.1113   -1.1038 H   0  0  0  0  0  0  0  0  0  0  0  0
    9.6471    8.8834    0.5420 H   0  0  0  0  0  0  0  0  0  0  0  0
    8.4190    9.3708    1.7191 H   0  0  0  0  0  0  0  0  0  0  0  0
   10.2143    8.0388    2.8094 H   0  0  0  0  0  0  0  0  0  0  0  0
    9.8936    6.6921    1.7113 H   0  0  0  0  0  0  0  0  0  0  0  0
    8.6720    7.1798    2.8861 H   0  0  0  0  0  0  0  0  0  0  0  0
    6.1797    8.3896    1.6590 H   0  0  0  0  0  0  0  0  0  0  0  0
    4.4684    7.2111    0.3620 H   0  0  0  0  0  0  0  0  0  0  0  0
    0.3943    6.8773   -2.2508 H   0  0  0  0  0  0  0  0  0  0  0  0
   -1.7244    7.3851   -1.1980 H   0  0  0  0  0  0  0  0  0  0  0  0
   -2.4608    9.4334   -0.0747 H   0  0  0  0  0  0  0  0  0  0  0  0
   -3.2203   10.4774    2.0192 H   0  0  0  0  0  0  0  0  0  0  0  0
   -2.7698    9.7837    3.5835 H   0  0  0  0  0  0  0  0  0  0  0  0
   -0.8632   11.2207    1.6730 H   0  0  0  0  0  0  0  0  0  0  0  0
   -0.4141   10.5297    3.2318 H   0  0  0  0  0  0  0  0  0  0  0  0
   -1.5312   11.8973    3.1624 H   0  0  0  0  0  0  0  0  0  0  0  0
   -1.4138    7.7419    3.6969 H   0  0  0  0  0  0  0  0  0  0  0  0
   -0.6601    5.7019    2.5795 H   0  0  0  0  0  0  0  0  0  0  0  0
   -0.1559    3.8883   -2.4923 H   0  0  0  0  0  0  0  0  0  0  0  0
   -1.7961    2.9073   -4.0282 H   0  0  0  0  0  0  0  0  0  0  0  0
   -4.0395    2.5788   -4.7305 H   0  0  0  0  0  0  0  0  0  0  0  0
   -5.2975    3.6191   -4.0507 H   0  0  0  0  0  0  0  0  0  0  0  0
   -5.6727    1.9907   -2.2094 H   0  0  0  0  0  0  0  0  0  0  0  0
   -4.3919    0.9617   -2.8379 H   0  0  0  0  0  0  0  0  0  0  0  0
   -5.8682    1.2085   -3.7811 H   0  0  0  0  0  0  0  0  0  0  0  0
   -4.9677    4.3240   -1.5527 H   0  0  0  0  0  0  0  0  0  0  0  0
   -3.3334    5.2804   -0.0032 H   0  0  0  0  0  0  0  0  0  0  0  0
    6.2765    6.9814   -4.3266 H   0  0  0  0  0  0  0  0  0  0  0  0
    4.0204    9.1612   -6.6847 H   0  0  0  0  0  0  0  0  0  0  0  0
   10.2554    7.6615   -7.6625 H   0  0  0  0  0  0  0  0  0  0  0  0
    7.9830   10.3144  -10.5728 H   0  0  0  0  0  0  0  0  0  0  0  0
  1  2  2  0  0  0  0
  2  3  1  0  0  0  0
  3  4  2  0  0  0  0
  3  5  1  0  0  0  0
  5  6  2  0  0  0  0
  6  7  1  0  0  0  0
  7  8  2  0  0  0  0
  8  9  1  0  0  0  0
  9 10  2  0  0  0  0
 10 11  1  0  0  0  0
 11 12  2  0  0  0  0
 12 13  1  0  0  0  0
 13 14  3  0  0  0  0
 12 15  1  0  0  0  0
 15 16  3  0  0  0  0
  8 17  1  0  0  0  0
 17 18  1  0  0  0  0
 18 19  1  0  0  0  0
 19 20  2  0  0  0  0
 20 21  1  0  0  0  0
 21 22  1  0  0  0  0
 21 23  1  0  0  0  0
  1 24  1  0  0  0  0
 24 25  1  0  0  0  0
 25 26  1  0  0  0  0
 26 27  1  0  0  0  0
 27 28  2  0  0  0  0
 28 29  1  0  0  0  0
 29 30  1  0  0  0  0
 30 31  1  0  0  0  0
 29 32  1  0  0  0  0
 32 33  2  0  0  0  0
 33 34  1  0  0  0  0
 34 35  2  0  0  0  0
 35 36  1  0  0  0  0
 36 37  1  0  0  0  0
 35 38  1  0  0  0  0
 38 39  2  0  0  0  0
 29 40  1  0  0  0  0
 40 41  2  0  0  0  0
 41 42  1  0  0  0  0
 42 43  2  0  0  0  0
 43 44  1  0  0  0  0
 44 45  1  0  0  0  0
 43 46  1  0  0  0  0
 46 47  2  0  0  0  0
 28 48  1  0  0  0  0
 48 49  2  0  0  0  0
 49 50  1  0  0  0  0
 50 51  2  0  0  0  0
 51 52  1  0  0  0  0
 52 53  1  0  0  0  0
 53 54  2  0  0  0  0
 52 55  1  0  0  0  0
 55 56  2  0  0  0  0
 56 57  1  0  0  0  0
 57 58  2  0  0  0  0
 58 59  1  0  0  0  0
 59 60  1  0  0  0  0
 58 61  1  0  0  0  0
 61 62  2  0  0  0  0
 52 63  1  0  0  0  0
 63 64  2  0  0  0  0
 64 65  1  0  0  0  0
 65 66  2  0  0  0  0
 66 67  1  0  0  0  0
 67 68  1  0  0  0  0
 66 69  1  0  0  0  0
 69 70  2  0  0  0  0
 51 71  1  0  0  0  0
 71 72  1  0  0  0  0
 72 73  1  0  0  0  0
 73 74  1  0  0  0  0
 74 75  2  0  0  0  0
 75 76  1  0  0  0  0
 76 77  1  0  0  0  0
 77 78  1  0  0  0  0
 78 79  2  0  0  0  0
 79 80  1  0  0  0  0
 80 81  2  0  0  0  0
 81 82  1  0  0  0  0
 82 83  1  0  0  0  0
 81 84  1  0  0  0  0
 84 85  2  0  0  0  0
 77 86  1  0  0  0  0
 86 87  2  0  0  0  0
 87 88  1  0  0  0  0
 88 89  2  0  0  0  0
 89 90  1  0  0  0  0
 90 91  1  0  0  0  0
 89 92  1  0  0  0  0
 92 93  2  0  0  0  0
 77 94  1  0  0  0  0
 94 95  2  0  0  0  0
 95 96  1  0  0  0  0
 96 97  1  0  0  0  0
 97 98  2  0  0  0  0
 98 99  1  0  0  0  0
 99100  1  0  0  0  0
100101  2  0  0  0  0
101102  1  0  0  0  0
102103  2  0  0  0  0
103104  1  0  0  0  0
104105  1  0  0  0  0
103106  1  0  0  0  0
106107  2  0  0  0  0
 99108  1  0  0  0  0
108109  2  0  0  0  0
109110  1  0  0  0  0
110111  2  0  0  0  0
111112  1  0  0  0  0
112113  1  0  0  0  0
111114  1  0  0  0  0
114115  2  0  0  0  0
 99116  1  0  0  0  0
116117  1  0  0  0  0
117118  1  0  0  0  0
 95119  1  0  0  0  0
119120  1  0  0  0  0
120121  2  0  0  0  0
120122  1  0  0  0  0
122123  2  0  0  0  0
123124  1  0  0  0  0
124125  2  0  0  0  0
124126  1  0  0  0  0
126127  2  0  0  0  0
127128  1  0  0  0  0
128129  1  0  0  0  0
129130  2  0  0  0  0
130131  1  0  0  0  0
131132  2  0  0  0  0
132133  1  0  0  0  0
133134  3  0  0  0  0
132135  1  0  0  0  0
135136  3  0  0  0  0
 11  2  1  0  0  0  0
 23 17  1  0  0  0  0
 31 24  2  0  0  0  0
 39 32  1  0  0  0  0
 47 40  1  0  0  0  0
 53 49  1  0  0  0  0
 62 55  1  0  0  0  0
 70 63  1  0  0  0  0
117 71  2  0  0  0  0
131123  1  0  0  0  0
 10  5  1  0  0  0  0
 22 18  1  0  0  0  0
 30 26  2  0  0  0  0
118 50  1  0  0  0  0
130126  1  0  0  0  0
 23  7  1  0  0  0  0
 54 27  1  0  0  0  0
116 73  2  0  0  0  0
 98 74  1  0  0  0  0
107100  1  0  0  0  0
115108  1  0  0  0  0
 96 76  2  0  0  0  0
 85 78  1  0  0  0  0
 93 86  1  0  0  0  0
121 94  1  0  0  0  0
  1137  1  0  0  0  0
  6138  1  0  0  0  0
  9139  1  0  0  0  0
 17140  1  0  0  0  0
 18141  1  0  0  0  0
 19142  1  0  0  0  0
 20143  1  0  0  0  0
 21144  1  0  0  0  0
 22145  1  0  0  0  0
 22146  1  0  0  0  0
 23147  1  0  0  0  0
 31148  1  0  0  0  0
 33149  1  0  0  0  0
 34150  1  0  0  0  0
 36151  1  0  0  0  0
 36152  1  0  0  0  0
 37153  1  0  0  0  0
 37154  1  0  0  0  0
 37155  1  0  0  0  0
 38156  1  0  0  0  0
 39157  1  0  0  0  0
 41158  1  0  0  0  0
 42159  1  0  0  0  0
 44160  1  0  0  0  0
 44161  1  0  0  0  0
 45162  1  0  0  0  0
 45163  1  0  0  0  0
 45164  1  0  0  0  0
 46165  1  0  0  0  0
 47166  1  0  0  0  0
 48167  1  0  0  0  0
 54168  1  0  0  0  0
 56169  1  0  0  0  0
 57170  1  0  0  0  0
 59171  1  0  0  0  0
 59172  1  0  0  0  0
 60173  1  0  0  0  0
 60174  1  0  0  0  0
 60175  1  0  0  0  0
 61176  1  0  0  0  0
 62177  1  0  0  0  0
 64178  1  0  0  0  0
 65179  1  0  0  0  0
 67180  1  0  0  0  0
 67181  1  0  0  0  0
 68182  1  0  0  0  0
 68183  1  0  0  0  0
 68184  1  0  0  0  0
 69185  1  0  0  0  0
 70186  1  0  0  0  0
 75187  1  0  0  0  0
 79188  1  0  0  0  0
 80189  1  0  0  0  0
 82190  1  0  0  0  0
 82191  1  0  0  0  0
 83192  1  0  0  0  0
 83193  1  0  0  0  0
 83194  1  0  0  0  0
 84195  1  0  0  0  0
 85196  1  0  0  0  0
 87197  1  0  0  0  0
 88198  1  0  0  0  0
 90199  1  0  0  0  0
 90200  1  0  0  0  0
 91201  1  0  0  0  0
 91202  1  0  0  0  0
 91203  1  0  0  0  0
 92204  1  0  0  0  0
 93205  1  0  0  0  0
 97206  1  0  0  0  0
101207  1  0  0  0  0
102208  1  0  0  0  0
104209  1  0  0  0  0
104210  1  0  0  0  0
105211  1  0  0  0  0
105212  1  0  0  0  0
105213  1  0  0  0  0
106214  1  0  0  0  0
107215  1  0  0  0  0
109216  1  0  0  0  0
110217  1  0  0  0  0
112218  1  0  0  0  0
112219  1  0  0  0  0
113220  1  0  0  0  0
113221  1  0  0  0  0
113222  1  0  0  0  0
114223  1  0  0  0  0
115224  1  0  0  0  0
121225  1  0  0  0  0
122226  1  0  0  0  0
127227  1  0  0  0  0
129228  1  0  0  0  0
M  END
