124

C         -1.13620       -1.88470       -5.44500
C         -1.97160       -0.94860       -5.95580
C         -2.74320        0.05520       -5.16910
O         -2.56660        0.41880       -4.02790
C         -3.83980        0.48670       -6.05720
C         -4.89000        1.33880       -5.72120
C         -5.78920        1.54680       -6.73820
C         -5.65610        0.95230       -8.00140
C         -4.62210        0.11720       -8.34920
C         -3.69560       -0.10970       -7.32600
C         -2.49730       -0.93840       -7.31510
C         -1.92170       -1.54070       -8.40000
C         -2.44380       -1.49120       -9.70980
N         -2.81940       -1.49460      -10.79450
C         -0.70550       -2.25760       -8.36630
N          0.28480       -2.83550       -8.42140
C         -6.92830        1.57670       -8.51670
C         -8.18660        0.67750       -8.60410
C         -8.01640       -0.40230       -7.56440
C         -8.14090        0.16160       -6.37040
C         -8.39790        1.63340       -6.58130
C         -9.20290        1.58270       -7.88960
C         -7.07500        2.24060       -7.11130
C         -0.63620       -1.94640       -4.09170
C         -0.56700       -3.20100       -3.47100
C         -0.20480       -3.32720       -2.14190
C          0.12700       -2.19200       -1.42680
C          0.50540       -2.04840        0.02690
C         -0.71540       -2.25760        0.95420
C         -1.36770       -3.63250        0.89720
C          1.68000       -2.95800        0.42000
C          2.93410       -2.67170       -0.39790
C          0.88070       -0.58340        0.09720
C          0.68370        0.04360       -1.14270
C          0.17880       -0.94680       -2.07740
C         -0.21190       -0.81170       -3.39490
C          0.98890        1.38420       -1.34090
C          1.49870        2.09060       -0.26990
C          1.60730        1.48100        0.99090
C          1.31490        0.13780        1.18790
C          2.07750        2.47020        1.93960
C          2.30370        2.35540        3.29450
C          2.83020        3.44540        3.99540
C          3.09020        4.63390        3.30260
C          2.84750        4.74970        1.94480
C          2.31180        3.67660        1.25870
C          1.95710        3.53610       -0.20630
C          0.77610        4.43520       -0.62700
C          1.02130        5.93760       -0.57860
C          3.24910        3.77430       -1.01830
C          3.13340        3.59680       -2.52640
C          3.06580        3.39140        5.41630
C          3.26680        2.31450        6.20890
C          3.05820        2.43670        7.68140
O          3.02030        3.46050        8.32380
C          2.83940        1.05720        8.15600
C          2.43450        0.65780        9.42810
C          2.26780       -0.69920        9.56310
C          2.47820       -1.59960        8.50890
C          2.88400       -1.22270        7.25150
C          3.06870        0.15390        7.09600
C          3.50840        0.90980        5.92760
C          4.22420        0.40970        4.87400
C          4.47820       -0.96150        4.67120
N          4.67870       -2.06870        4.44280
C          4.83470        1.22190        3.89340
N          5.39690        1.83310        3.10170
C          2.11290       -2.79530        9.35200
C          3.26640       -3.68570        9.87560
C          4.48450       -2.79960        9.96320
C          4.29380       -1.94770       10.96180
C          2.94350       -2.24200       11.56720
C          2.88030       -3.76390       11.36120
C          1.88620       -1.79350       10.52790
H         -0.87240       -2.72900       -6.07230
H         -4.95580        1.77310       -4.73580
H         -4.53460       -0.33780       -9.32180
H         -6.82390        2.22880       -9.38140
H         -8.43260        0.34250       -9.60800
H         -7.77390       -1.42310       -7.79540
H         -8.02270       -0.29360       -5.40450
H         -8.83690        2.16880       -5.74340
H        -10.17560        1.10870       -7.76710
H         -9.32480        2.55620       -8.36240
H         -7.06600        3.32750       -7.05720
H         -0.84390       -4.07980       -4.03570
H         -0.17490       -4.30530       -1.68640
H         -1.46340       -1.50350        0.69530
H         -0.38850       -2.06080        1.97780
H         -2.17190       -3.67920        1.62870
H         -0.65580       -4.42000        1.12990
H         -1.79500       -3.81850       -0.08420
H          1.39110       -3.99990        0.27520
H          1.89960       -2.81340        1.47990
H          2.74130       -2.81300       -1.45940
H          3.73560       -3.34330       -0.09950
H          3.26950       -1.64860       -0.24340
H         -0.16610        0.14420       -3.88950
H          0.82350        1.84040       -2.30390
H          1.43830       -0.31990        2.15840
H          2.04210        1.44540        3.81280
H          3.51210        5.46890        3.84240
H          3.08630        5.67450        1.44310
H          0.48760        4.15510       -1.64120
H         -0.06740        4.19400        0.02600
H          1.18720        6.27430        0.44070
H          1.87460        6.22120       -1.18880
H          0.14530        6.45630       -0.96340
H          3.60090        4.78470       -0.80400
H          4.00480        3.08180       -0.63830
H          2.90240        2.56640       -2.78070
H          2.36980        4.24610       -2.94690
H          4.08440        3.85080       -2.99030
H          3.00110        4.33870        5.94340
H          2.27430        1.38180       10.21160
H          3.03500       -1.92080        6.44420
H          1.26070       -3.37810        9.00810
H          3.39210       -4.62270        9.33980
H          5.30780       -2.84470        9.27470
H          4.92670       -1.13810       11.27490
H          2.77550       -1.86530       12.57270
H          1.88980       -4.18410       11.53090
H          3.61500       -4.30060       11.95940
H          0.88760       -1.72550       10.95550
