
  xtb     02022203283D
 energy: -199.803911043965 gnorm: 0.000349189299 xtb: 6.4.1 (unknown)
116132  0     0  0            999 V2000
   -2.7953    6.4375   -3.4462 C   0  0  0  0  0  0  0  0  0  0  0  0
   -1.6510    7.1631   -3.3634 C   0  0  0  0  0  0  0  0  0  0  0  0
   -1.6879    8.6537   -3.3697 C   0  0  0  0  0  0  0  0  0  0  0  0
   -2.5768    9.3576   -3.7879 O   0  0  0  0  0  0  0  0  0  0  0  0
   -0.4473    9.0643   -2.6790 C   0  0  0  0  0  0  0  0  0  0  0  0
   -0.0952   10.3465   -2.2587 C   0  0  0  0  0  0  0  0  0  0  0  0
    1.1032   10.4076   -1.5881 C   0  0  0  0  0  0  0  0  0  0  0  0
    1.9026    9.2800   -1.3505 C   0  0  0  0  0  0  0  0  0  0  0  0
    1.5782    8.0125   -1.7687 C   0  0  0  0  0  0  0  0  0  0  0  0
    0.3619    7.9306   -2.4510 C   0  0  0  0  0  0  0  0  0  0  0  0
   -0.2900    6.7699   -3.0418 C   0  0  0  0  0  0  0  0  0  0  0  0
    0.3413    5.6287   -3.4573 C   0  0  0  0  0  0  0  0  0  0  0  0
    1.6888    5.3259   -3.1834 C   0  0  0  0  0  0  0  0  0  0  0  0
    2.7724    5.0178   -2.9620 N   0  0  0  0  0  0  0  0  0  0  0  0
   -0.2966    4.6437   -4.2424 C   0  0  0  0  0  0  0  0  0  0  0  0
   -0.7776    3.8446   -4.9107 N   0  0  0  0  0  0  0  0  0  0  0  0
    2.9425   10.0729   -0.6010 C   0  0  0  0  0  0  0  0  0  0  0  0
    2.9188    9.9533    0.9377 C   0  0  0  0  0  0  0  0  0  0  0  0
    3.6908   11.1656    1.4060 C   0  0  0  0  0  0  0  0  0  0  0  0
    2.9377   12.2346    1.1809 C   0  0  0  0  0  0  0  0  0  0  0  0
    1.6434   11.7628    0.5582 C   0  0  0  0  0  0  0  0  0  0  0  0
    1.4904   10.4085    1.2631 C   0  0  0  0  0  0  0  0  0  0  0  0
    2.0542   11.3307   -0.8659 C   0  0  0  0  0  0  0  0  0  0  0  0
   -2.9835    5.1108   -2.9744 C   0  0  0  0  0  0  0  0  0  0  0  0
   -4.0046    4.2300   -3.2723 C   0  0  0  0  0  0  0  0  0  0  0  0
   -3.8582    3.0172   -2.5937 C   0  0  0  0  0  0  0  0  0  0  0  0
   -4.7154    1.5030   -2.5981 S   0  0  0  0  0  0  0  0  0  0  0  0
   -3.5201    0.8019   -1.5176 C   0  0  0  0  0  0  0  0  0  0  0  0
   -3.4676   -0.5363   -1.1492 C   0  0  0  0  0  0  0  0  0  0  0  0
   -4.4800   -1.4831   -1.5814 C   0  0  0  0  0  0  0  0  0  0  0  0
   -4.3076   -2.6649   -2.2420 C   0  0  0  0  0  0  0  0  0  0  0  0
   -5.5222   -3.3187   -2.5291 C   0  0  0  0  0  0  0  0  0  0  0  0
   -6.6180   -2.6469   -2.0824 C   0  0  0  0  0  0  0  0  0  0  0  0
   -8.0541   -3.0144   -2.2233 C   0  0  0  0  0  0  0  0  0  0  0  0
   -8.7509   -2.1297   -3.2593 C   0  0  0  0  0  0  0  0  0  0  0  0
   -6.1675   -1.1646   -1.3075 S   0  0  0  0  0  0  0  0  0  0  0  0
   -2.3677   -0.9360   -0.3678 C   0  0  0  0  0  0  0  0  0  0  0  0
   -1.3632    0.0001   -0.0018 C   0  0  0  0  0  0  0  0  0  0  0  0
   -1.4168    1.3339   -0.3674 C   0  0  0  0  0  0  0  0  0  0  0  0
   -0.3503    2.2784   -0.0584 C   0  0  0  0  0  0  0  0  0  0  0  0
    0.9272    2.2644   -0.5298 C   0  0  0  0  0  0  0  0  0  0  0  0
    1.6795    3.3879   -0.1245 C   0  0  0  0  0  0  0  0  0  0  0  0
    0.9832    4.2505    0.6614 C   0  0  0  0  0  0  0  0  0  0  0  0
    1.4409    5.5350    1.2628 C   0  0  0  0  0  0  0  0  0  0  0  0
    1.4818    5.4655    2.7896 C   0  0  0  0  0  0  0  0  0  0  0  0
   -0.6311    3.6757    0.9400 S   0  0  0  0  0  0  0  0  0  0  0  0
   -2.5210    1.7298   -1.1362 C   0  0  0  0  0  0  0  0  0  0  0  0
   -2.7539    2.9804   -1.7480 C   0  0  0  0  0  0  0  0  0  0  0  0
   -1.8891    4.4567   -1.7703 S   0  0  0  0  0  0  0  0  0  0  0  0
   -0.0762   -0.6941    0.9613 S   0  0  0  0  0  0  0  0  0  0  0  0
   -0.8703   -2.2389    0.9094 C   0  0  0  0  0  0  0  0  0  0  0  0
   -0.5526   -3.4801    1.4501 C   0  0  0  0  0  0  0  0  0  0  0  0
   -1.5027   -4.4346    1.1352 C   0  0  0  0  0  0  0  0  0  0  0  0
   -2.8139   -3.7496    0.1678 S   0  0  0  0  0  0  0  0  0  0  0  0
   -2.0589   -2.2087    0.1742 C   0  0  0  0  0  0  0  0  0  0  0  0
   -1.6100   -5.8147    1.4124 C   0  0  0  0  0  0  0  0  0  0  0  0
   -0.7475   -6.6887    2.0101 C   0  0  0  0  0  0  0  0  0  0  0  0
    0.6234   -6.4410    2.5196 C   0  0  0  0  0  0  0  0  0  0  0  0
    1.1978   -5.3833    2.6776 O   0  0  0  0  0  0  0  0  0  0  0  0
    1.1897   -7.7684    2.8150 C   0  0  0  0  0  0  0  0  0  0  0  0
    2.4858   -8.0351    3.2531 C   0  0  0  0  0  0  0  0  0  0  0  0
    2.7522   -9.3711    3.4268 C   0  0  0  0  0  0  0  0  0  0  0  0
    1.7989  -10.3701    3.1836 C   0  0  0  0  0  0  0  0  0  0  0  0
    0.5151  -10.1195    2.7624 C   0  0  0  0  0  0  0  0  0  0  0  0
    0.2215   -8.7634    2.5801 C   0  0  0  0  0  0  0  0  0  0  0  0
   -1.0136   -8.1148    2.1500 C   0  0  0  0  0  0  0  0  0  0  0  0
   -2.2133   -8.7516    1.9687 C   0  0  0  0  0  0  0  0  0  0  0  0
   -3.4415   -8.1426    1.6310 C   0  0  0  0  0  0  0  0  0  0  0  0
   -4.4869   -7.7420    1.3730 N   0  0  0  0  0  0  0  0  0  0  0  0
   -2.4118  -10.1395    2.1331 C   0  0  0  0  0  0  0  0  0  0  0  0
   -2.6534  -11.2567    2.2414 N   0  0  0  0  0  0  0  0  0  0  0  0
    2.7548  -11.4806    3.5429 C   0  0  0  0  0  0  0  0  0  0  0  0
    3.3761  -12.2628    2.3662 C   0  0  0  0  0  0  0  0  0  0  0  0
    4.5917  -12.9250    2.9739 C   0  0  0  0  0  0  0  0  0  0  0  0
    5.4930  -11.9792    3.2059 C   0  0  0  0  0  0  0  0  0  0  0  0
    4.9017  -10.6617    2.7592 C   0  0  0  0  0  0  0  0  0  0  0  0
    4.0573  -11.1410    1.5715 C   0  0  0  0  0  0  0  0  0  0  0  0
    3.8159  -10.3667    3.8162 C   0  0  0  0  0  0  0  0  0  0  0  0
   -3.6733    6.9537   -3.8188 H   0  0  0  0  0  0  0  0  0  0  0  0
   -0.7342   11.1919   -2.4600 H   0  0  0  0  0  0  0  0  0  0  0  0
    2.1904    7.1461   -1.5797 H   0  0  0  0  0  0  0  0  0  0  0  0
    3.9484   10.0475   -1.0150 H   0  0  0  0  0  0  0  0  0  0  0  0
    3.2384    8.9892    1.3241 H   0  0  0  0  0  0  0  0  0  0  0  0
    4.6942   11.1272    1.7875 H   0  0  0  0  0  0  0  0  0  0  0  0
    3.1866   13.2677    1.3370 H   0  0  0  0  0  0  0  0  0  0  0  0
    0.8015   12.4483    0.6013 H   0  0  0  0  0  0  0  0  0  0  0  0
    0.7140    9.7733    0.8405 H   0  0  0  0  0  0  0  0  0  0  0  0
    1.3274   10.5187    2.3339 H   0  0  0  0  0  0  0  0  0  0  0  0
    2.4681   12.1458   -1.4561 H   0  0  0  0  0  0  0  0  0  0  0  0
   -4.7849    4.4450   -3.9790 H   0  0  0  0  0  0  0  0  0  0  0  0
   -3.3447   -3.0329   -2.5481 H   0  0  0  0  0  0  0  0  0  0  0  0
   -5.5784   -4.2602   -3.0453 H   0  0  0  0  0  0  0  0  0  0  0  0
   -8.5585   -2.9037   -1.2604 H   0  0  0  0  0  0  0  0  0  0  0  0
   -8.1202   -4.0612   -2.5262 H   0  0  0  0  0  0  0  0  0  0  0  0
   -8.2718   -2.2349   -4.2301 H   0  0  0  0  0  0  0  0  0  0  0  0
   -8.6974   -1.0855   -2.9595 H   0  0  0  0  0  0  0  0  0  0  0  0
   -9.7961   -2.4124   -3.3541 H   0  0  0  0  0  0  0  0  0  0  0  0
    1.3063    1.4911   -1.1737 H   0  0  0  0  0  0  0  0  0  0  0  0
    2.6963    3.5554   -0.4308 H   0  0  0  0  0  0  0  0  0  0  0  0
    0.7662    6.3414    0.9588 H   0  0  0  0  0  0  0  0  0  0  0  0
    2.4368    5.7603    0.8753 H   0  0  0  0  0  0  0  0  0  0  0  0
    1.8234    6.4117    3.2021 H   0  0  0  0  0  0  0  0  0  0  0  0
    0.4905    5.2520    3.1829 H   0  0  0  0  0  0  0  0  0  0  0  0
    2.1587    4.6786    3.1137 H   0  0  0  0  0  0  0  0  0  0  0  0
    0.3219   -3.6884    2.0375 H   0  0  0  0  0  0  0  0  0  0  0  0
   -2.5337   -6.2396    1.0368 H   0  0  0  0  0  0  0  0  0  0  0  0
    3.1861   -7.2334    3.4273 H   0  0  0  0  0  0  0  0  0  0  0  0
   -0.2042  -10.9004    2.5821 H   0  0  0  0  0  0  0  0  0  0  0  0
    2.4481  -12.1226    4.3661 H   0  0  0  0  0  0  0  0  0  0  0  0
    2.6834  -12.9071    1.8318 H   0  0  0  0  0  0  0  0  0  0  0  0
    4.6475  -13.9701    3.2155 H   0  0  0  0  0  0  0  0  0  0  0  0
    6.4520  -12.0762    3.6801 H   0  0  0  0  0  0  0  0  0  0  0  0
    5.5988   -9.8469    2.5826 H   0  0  0  0  0  0  0  0  0  0  0  0
    3.3704  -10.3910    1.1835 H   0  0  0  0  0  0  0  0  0  0  0  0
    4.6714  -11.5266    0.7594 H   0  0  0  0  0  0  0  0  0  0  0  0
    4.2176  -10.2649    4.8225 H   0  0  0  0  0  0  0  0  0  0  0  0
  1  2  2  0  0  0  0
  2  3  1  0  0  0  0
  3  4  2  0  0  0  0
  3  5  1  0  0  0  0
  5  6  2  0  0  0  0
  6  7  1  0  0  0  0
  7  8  2  0  0  0  0
  8  9  1  0  0  0  0
  9 10  2  0  0  0  0
 10 11  1  0  0  0  0
 11 12  2  0  0  0  0
 12 13  1  0  0  0  0
 13 14  3  0  0  0  0
 12 15  1  0  0  0  0
 15 16  3  0  0  0  0
  8 17  1  0  0  0  0
 17 18  1  0  0  0  0
 18 19  1  0  0  0  0
 19 20  2  0  0  0  0
 20 21  1  0  0  0  0
 21 22  1  0  0  0  0
 21 23  1  0  0  0  0
  1 24  1  0  0  0  0
 24 25  2  0  0  0  0
 25 26  1  0  0  0  0
 26 27  1  0  0  0  0
 27 28  1  0  0  0  0
 28 29  2  0  0  0  0
 29 30  1  0  0  0  0
 30 31  2  0  0  0  0
 31 32  1  0  0  0  0
 32 33  2  0  0  0  0
 33 34  1  0  0  0  0
 34 35  1  0  0  0  0
 33 36  1  0  0  0  0
 29 37  1  0  0  0  0
 37 38  2  0  0  0  0
 38 39  1  0  0  0  0
 39 40  1  0  0  0  0
 40 41  2  0  0  0  0
 41 42  1  0  0  0  0
 42 43  2  0  0  0  0
 43 44  1  0  0  0  0
 44 45  1  0  0  0  0
 43 46  1  0  0  0  0
 39 47  2  0  0  0  0
 47 48  1  0  0  0  0
 48 49  1  0  0  0  0
 38 50  1  0  0  0  0
 50 51  1  0  0  0  0
 51 52  1  0  0  0  0
 52 53  2  0  0  0  0
 53 54  1  0  0  0  0
 54 55  1  0  0  0  0
 53 56  1  0  0  0  0
 56 57  2  0  0  0  0
 57 58  1  0  0  0  0
 58 59  2  0  0  0  0
 58 60  1  0  0  0  0
 60 61  2  0  0  0  0
 61 62  1  0  0  0  0
 62 63  2  0  0  0  0
 63 64  1  0  0  0  0
 64 65  2  0  0  0  0
 65 66  1  0  0  0  0
 66 67  2  0  0  0  0
 67 68  1  0  0  0  0
 68 69  3  0  0  0  0
 67 70  1  0  0  0  0
 70 71  3  0  0  0  0
 63 72  1  0  0  0  0
 72 73  1  0  0  0  0
 73 74  1  0  0  0  0
 74 75  2  0  0  0  0
 75 76  1  0  0  0  0
 76 77  1  0  0  0  0
 76 78  1  0  0  0  0
 11  2  1  0  0  0  0
 23 17  1  0  0  0  0
 49 24  1  0  0  0  0
 55 51  2  0  0  0  0
 66 57  1  0  0  0  0
 78 72  1  0  0  0  0
 10  5  1  0  0  0  0
 22 18  1  0  0  0  0
 48 26  2  0  0  0  0
 65 60  1  0  0  0  0
 77 73  1  0  0  0  0
 23  7  1  0  0  0  0
 47 28  1  0  0  0  0
 78 62  1  0  0  0  0
 36 30  1  0  0  0  0
 55 37  1  0  0  0  0
 46 40  1  0  0  0  0
  1 79  1  0  0  0  0
  6 80  1  0  0  0  0
  9 81  1  0  0  0  0
 17 82  1  0  0  0  0
 18 83  1  0  0  0  0
 19 84  1  0  0  0  0
 20 85  1  0  0  0  0
 21 86  1  0  0  0  0
 22 87  1  0  0  0  0
 22 88  1  0  0  0  0
 23 89  1  0  0  0  0
 25 90  1  0  0  0  0
 31 91  1  0  0  0  0
 32 92  1  0  0  0  0
 34 93  1  0  0  0  0
 34 94  1  0  0  0  0
 35 95  1  0  0  0  0
 35 96  1  0  0  0  0
 35 97  1  0  0  0  0
 41 98  1  0  0  0  0
 42 99  1  0  0  0  0
 44100  1  0  0  0  0
 44101  1  0  0  0  0
 45102  1  0  0  0  0
 45103  1  0  0  0  0
 45104  1  0  0  0  0
 52105  1  0  0  0  0
 56106  1  0  0  0  0
 61107  1  0  0  0  0
 64108  1  0  0  0  0
 72109  1  0  0  0  0
 73110  1  0  0  0  0
 74111  1  0  0  0  0
 75112  1  0  0  0  0
 76113  1  0  0  0  0
 77114  1  0  0  0  0
 77115  1  0  0  0  0
 78116  1  0  0  0  0
M  END
