
  xtb     02022200323D
 energy: -256.570569522078 gnorm: 0.000337269925 xtb: 6.4.1 (unknown)
159174  0     0  0            999 V2000
   -1.2400   -5.0479   -1.5415 C   0  0  0  0  0  0  0  0  0  0  0  0
   -0.2812   -5.9651   -1.1938 C   0  0  0  0  0  0  0  0  0  0  0  0
    0.7127   -5.8077   -0.1295 C   0  0  0  0  0  0  0  0  0  0  0  0
    0.9297   -4.8126    0.5419 O   0  0  0  0  0  0  0  0  0  0  0  0
    1.3948   -7.1098   -0.0112 C   0  0  0  0  0  0  0  0  0  0  0  0
    2.3989   -7.4544    0.8896 C   0  0  0  0  0  0  0  0  0  0  0  0
    2.8457   -8.7480    0.7620 C   0  0  0  0  0  0  0  0  0  0  0  0
    2.3325   -9.6347   -0.1932 C   0  0  0  0  0  0  0  0  0  0  0  0
    1.3436   -9.3067   -1.0904 C   0  0  0  0  0  0  0  0  0  0  0  0
    0.8741   -7.9959   -0.9769 C   0  0  0  0  0  0  0  0  0  0  0  0
   -0.1381   -7.2877   -1.7593 C   0  0  0  0  0  0  0  0  0  0  0  0
   -0.7639   -7.7681   -2.8828 C   0  0  0  0  0  0  0  0  0  0  0  0
   -0.5940   -9.0702   -3.3949 C   0  0  0  0  0  0  0  0  0  0  0  0
   -0.5127  -10.1164   -3.8619 N   0  0  0  0  0  0  0  0  0  0  0  0
   -1.6188   -7.0207   -3.7191 C   0  0  0  0  0  0  0  0  0  0  0  0
   -2.2893   -6.4759   -4.4775 N   0  0  0  0  0  0  0  0  0  0  0  0
    3.2341  -10.7598    0.2492 C   0  0  0  0  0  0  0  0  0  0  0  0
    2.6154  -11.8830    1.1173 C   0  0  0  0  0  0  0  0  0  0  0  0
    1.4462  -11.2672    1.8448 C   0  0  0  0  0  0  0  0  0  0  0  0
    1.9297  -10.4277    2.7506 C   0  0  0  0  0  0  0  0  0  0  0  0
    3.4348  -10.4610    2.6522 C   0  0  0  0  0  0  0  0  0  0  0  0
    3.6477  -11.9305    2.2551 C   0  0  0  0  0  0  0  0  0  0  0  0
    3.8050   -9.7722    1.3152 C   0  0  0  0  0  0  0  0  0  0  0  0
   -1.3962   -3.7165   -1.1529 C   0  0  0  0  0  0  0  0  0  0  0  0
   -2.4512   -2.9283   -1.6911 C   0  0  0  0  0  0  0  0  0  0  0  0
   -3.4161   -3.5987   -2.3401 O   0  0  0  0  0  0  0  0  0  0  0  0
   -4.1493   -2.9919   -3.3921 C   0  0  0  0  0  0  0  0  0  0  0  0
   -3.3300   -2.9610   -4.6752 C   0  0  0  0  0  0  0  0  0  0  0  0
   -2.3184   -1.5803   -1.3475 C   0  0  0  0  0  0  0  0  0  0  0  0
   -3.0133   -0.2527   -1.6075 C   0  0  0  0  0  0  0  0  0  0  0  0
   -2.9384    0.1060   -3.0864 C   0  0  0  0  0  0  0  0  0  0  0  0
   -4.0513    0.3240   -3.8858 C   0  0  0  0  0  0  0  0  0  0  0  0
   -3.9031    0.6365   -5.2260 C   0  0  0  0  0  0  0  0  0  0  0  0
   -2.6473    0.7369   -5.8063 C   0  0  0  0  0  0  0  0  0  0  0  0
   -2.4923    1.1200   -7.2489 C   0  0  0  0  0  0  0  0  0  0  0  0
   -2.3865    2.6402   -7.3884 C   0  0  0  0  0  0  0  0  0  0  0  0
   -1.5347    0.5172   -5.0036 C   0  0  0  0  0  0  0  0  0  0  0  0
   -1.6769    0.2047   -3.6663 C   0  0  0  0  0  0  0  0  0  0  0  0
   -4.4099   -0.1904   -1.0122 C   0  0  0  0  0  0  0  0  0  0  0  0
   -5.1696    0.9703   -1.1231 C   0  0  0  0  0  0  0  0  0  0  0  0
   -6.4343    1.0463   -0.5725 C   0  0  0  0  0  0  0  0  0  0  0  0
   -6.9835   -0.0310    0.1102 C   0  0  0  0  0  0  0  0  0  0  0  0
   -8.3423    0.0653    0.7404 C   0  0  0  0  0  0  0  0  0  0  0  0
   -8.2284    0.5677    2.1811 C   0  0  0  0  0  0  0  0  0  0  0  0
   -6.2193   -1.1819    0.2345 C   0  0  0  0  0  0  0  0  0  0  0  0
   -4.9518   -1.2616   -0.3137 C   0  0  0  0  0  0  0  0  0  0  0  0
   -2.1048    0.7035   -0.8375 C   0  0  0  0  0  0  0  0  0  0  0  0
   -1.0854   -0.0049   -0.1647 C   0  0  0  0  0  0  0  0  0  0  0  0
   -1.2205   -1.3822   -0.5128 C   0  0  0  0  0  0  0  0  0  0  0  0
   -0.3198   -2.7856   -0.1401 S   0  0  0  0  0  0  0  0  0  0  0  0
   -0.1213    0.6280    0.6158 C   0  0  0  0  0  0  0  0  0  0  0  0
   -0.1749    2.0000    0.6881 C   0  0  0  0  0  0  0  0  0  0  0  0
    0.7438    2.9581    1.4413 C   0  0  0  0  0  0  0  0  0  0  0  0
    2.1842    2.5814    1.1465 C   0  0  0  0  0  0  0  0  0  0  0  0
    2.5686    2.4802   -0.1878 C   0  0  0  0  0  0  0  0  0  0  0  0
    3.8591    2.1233   -0.5256 C   0  0  0  0  0  0  0  0  0  0  0  0
    4.8026    1.8499    0.4571 C   0  0  0  0  0  0  0  0  0  0  0  0
    6.2168    1.5036    0.0937 C   0  0  0  0  0  0  0  0  0  0  0  0
    7.0726    2.7700    0.0212 C   0  0  0  0  0  0  0  0  0  0  0  0
    4.4175    1.9566    1.7862 C   0  0  0  0  0  0  0  0  0  0  0  0
    3.1270    2.3161    2.1315 C   0  0  0  0  0  0  0  0  0  0  0  0
    0.3529    2.8691    2.9143 C   0  0  0  0  0  0  0  0  0  0  0  0
   -0.2263    3.9353    3.5922 C   0  0  0  0  0  0  0  0  0  0  0  0
   -0.5923    3.8111    4.9213 C   0  0  0  0  0  0  0  0  0  0  0  0
   -0.4047    2.6230    5.6118 C   0  0  0  0  0  0  0  0  0  0  0  0
   -0.7563    2.5134    7.0667 C   0  0  0  0  0  0  0  0  0  0  0  0
    0.4187    2.9709    7.9336 C   0  0  0  0  0  0  0  0  0  0  0  0
    0.1620    1.5548    4.9289 C   0  0  0  0  0  0  0  0  0  0  0  0
    0.5294    1.6725    3.6024 C   0  0  0  0  0  0  0  0  0  0  0  0
    0.3192    4.2962    0.8499 C   0  0  0  0  0  0  0  0  0  0  0  0
    0.6467    5.6621    0.9520 C   0  0  0  0  0  0  0  0  0  0  0  0
    1.6968    6.3081    1.4511 O   0  0  0  0  0  0  0  0  0  0  0  0
    2.8432    5.6604    1.9775 C   0  0  0  0  0  0  0  0  0  0  0  0
    2.7922    5.5483    3.4951 C   0  0  0  0  0  0  0  0  0  0  0  0
   -0.2979    6.4706    0.2633 C   0  0  0  0  0  0  0  0  0  0  0  0
   -1.4926    5.5145   -0.5879 S   0  0  0  0  0  0  0  0  0  0  0  0
   -0.8120    4.0941    0.0657 C   0  0  0  0  0  0  0  0  0  0  0  0
   -1.1361    2.7114   -0.0589 C   0  0  0  0  0  0  0  0  0  0  0  0
   -2.1192    2.0782   -0.8154 C   0  0  0  0  0  0  0  0  0  0  0  0
   -0.3380    7.8621    0.1445 C   0  0  0  0  0  0  0  0  0  0  0  0
    0.1458    8.7650    1.0663 C   0  0  0  0  0  0  0  0  0  0  0  0
    0.3082    8.4635    2.4971 C   0  0  0  0  0  0  0  0  0  0  0  0
    0.0666    7.4241    3.0731 O   0  0  0  0  0  0  0  0  0  0  0  0
    0.6865    9.7522    3.1279 C   0  0  0  0  0  0  0  0  0  0  0  0
    0.6966   10.7666    2.1539 C   0  0  0  0  0  0  0  0  0  0  0  0
    1.0015   12.0692    2.5118 C   0  0  0  0  0  0  0  0  0  0  0  0
    1.2999   12.3410    3.8396 C   0  0  0  0  0  0  0  0  0  0  0  0
    1.2963   11.3370    4.7948 C   0  0  0  0  0  0  0  0  0  0  0  0
    1.7253   11.7678    6.5862 Br  0  0  0  0  0  0  0  0  0  0  0  0
    0.9825   10.0174    4.4534 C   0  0  0  0  0  0  0  0  0  0  0  0
    0.9790    8.7733    5.6319 Cl  0  0  0  0  0  0  0  0  0  0  0  0
    0.3652   10.1708    0.8588 C   0  0  0  0  0  0  0  0  0  0  0  0
    0.3597   10.8333   -0.3447 C   0  0  0  0  0  0  0  0  0  0  0  0
    0.6021   12.2129   -0.4921 C   0  0  0  0  0  0  0  0  0  0  0  0
    0.7842   13.3323   -0.6741 N   0  0  0  0  0  0  0  0  0  0  0  0
    0.1364   10.2182   -1.5933 C   0  0  0  0  0  0  0  0  0  0  0  0
   -0.0142    9.7830   -2.6457 N   0  0  0  0  0  0  0  0  0  0  0  0
   -2.0029   -5.3672   -2.2416 H   0  0  0  0  0  0  0  0  0  0  0  0
    2.7690   -6.7389    1.6073 H   0  0  0  0  0  0  0  0  0  0  0  0
    0.9585  -10.0007   -1.8188 H   0  0  0  0  0  0  0  0  0  0  0  0
    3.9172  -11.1466   -0.5045 H   0  0  0  0  0  0  0  0  0  0  0  0
    2.4153  -12.8078    0.5829 H   0  0  0  0  0  0  0  0  0  0  0  0
    0.4187  -11.4557    1.5942 H   0  0  0  0  0  0  0  0  0  0  0  0
    1.3866   -9.7741    3.4080 H   0  0  0  0  0  0  0  0  0  0  0  0
    3.9807  -10.0920    3.5167 H   0  0  0  0  0  0  0  0  0  0  0  0
    3.3708  -12.6253    3.0466 H   0  0  0  0  0  0  0  0  0  0  0  0
    4.6595  -12.1456    1.9140 H   0  0  0  0  0  0  0  0  0  0  0  0
    4.8616   -9.5170    1.2591 H   0  0  0  0  0  0  0  0  0  0  0  0
   -5.0224   -3.6373   -3.5153 H   0  0  0  0  0  0  0  0  0  0  0  0
   -4.4813   -1.9918   -3.1055 H   0  0  0  0  0  0  0  0  0  0  0  0
   -3.0142   -3.9695   -4.9326 H   0  0  0  0  0  0  0  0  0  0  0  0
   -2.4489   -2.3352   -4.5481 H   0  0  0  0  0  0  0  0  0  0  0  0
   -3.9300   -2.5550   -5.4839 H   0  0  0  0  0  0  0  0  0  0  0  0
   -5.0473    0.2506   -3.4745 H   0  0  0  0  0  0  0  0  0  0  0  0
   -4.7843    0.8007   -5.8295 H   0  0  0  0  0  0  0  0  0  0  0  0
   -1.5932    0.6570   -7.6599 H   0  0  0  0  0  0  0  0  0  0  0  0
   -3.3518    0.7651   -7.8207 H   0  0  0  0  0  0  0  0  0  0  0  0
   -2.2696    2.9187   -8.4329 H   0  0  0  0  0  0  0  0  0  0  0  0
   -3.2820    3.1195   -6.9992 H   0  0  0  0  0  0  0  0  0  0  0  0
   -1.5300    3.0131   -6.8313 H   0  0  0  0  0  0  0  0  0  0  0  0
   -0.5451    0.5865   -5.4322 H   0  0  0  0  0  0  0  0  0  0  0  0
   -0.7973    0.0322   -3.0617 H   0  0  0  0  0  0  0  0  0  0  0  0
   -4.7791    1.8239   -1.6545 H   0  0  0  0  0  0  0  0  0  0  0  0
   -7.0052    1.9578   -0.6791 H   0  0  0  0  0  0  0  0  0  0  0  0
   -8.8213   -0.9159    0.7386 H   0  0  0  0  0  0  0  0  0  0  0  0
   -8.9683    0.7529    0.1681 H   0  0  0  0  0  0  0  0  0  0  0  0
   -7.7615    1.5499    2.2037 H   0  0  0  0  0  0  0  0  0  0  0  0
   -9.2128    0.6398    2.6375 H   0  0  0  0  0  0  0  0  0  0  0  0
   -7.6198   -0.1130    2.7722 H   0  0  0  0  0  0  0  0  0  0  0  0
   -6.6190   -2.0335    0.7662 H   0  0  0  0  0  0  0  0  0  0  0  0
   -4.3904   -2.1747   -0.1891 H   0  0  0  0  0  0  0  0  0  0  0  0
    0.6486    0.0438    1.0938 H   0  0  0  0  0  0  0  0  0  0  0  0
    1.8460    2.6845   -0.9658 H   0  0  0  0  0  0  0  0  0  0  0  0
    4.1362    2.0495   -1.5673 H   0  0  0  0  0  0  0  0  0  0  0  0
    6.2382    0.9983   -0.8736 H   0  0  0  0  0  0  0  0  0  0  0  0
    6.6363    0.8285    0.8421 H   0  0  0  0  0  0  0  0  0  0  0  0
    6.6811    3.4490   -0.7330 H   0  0  0  0  0  0  0  0  0  0  0  0
    7.0691    3.2849    0.9795 H   0  0  0  0  0  0  0  0  0  0  0  0
    8.0993    2.5208   -0.2354 H   0  0  0  0  0  0  0  0  0  0  0  0
    5.1359    1.7524    2.5671 H   0  0  0  0  0  0  0  0  0  0  0  0
    2.8635    2.4018    3.1744 H   0  0  0  0  0  0  0  0  0  0  0  0
   -0.3942    4.8839    3.1063 H   0  0  0  0  0  0  0  0  0  0  0  0
   -1.0315    4.6607    5.4233 H   0  0  0  0  0  0  0  0  0  0  0  0
   -1.0045    1.4787    7.3117 H   0  0  0  0  0  0  0  0  0  0  0  0
   -1.6267    3.1355    7.2843 H   0  0  0  0  0  0  0  0  0  0  0  0
    1.2933    2.3526    7.7428 H   0  0  0  0  0  0  0  0  0  0  0  0
    0.1650    2.8976    8.9884 H   0  0  0  0  0  0  0  0  0  0  0  0
    0.6744    4.0040    7.7087 H   0  0  0  0  0  0  0  0  0  0  0  0
    0.3150    0.6145    5.4391 H   0  0  0  0  0  0  0  0  0  0  0  0
    0.9651    0.8211    3.1042 H   0  0  0  0  0  0  0  0  0  0  0  0
    2.9821    4.6830    1.5128 H   0  0  0  0  0  0  0  0  0  0  0  0
    3.6744    6.3116    1.6849 H   0  0  0  0  0  0  0  0  0  0  0  0
    1.9925    4.8827    3.8071 H   0  0  0  0  0  0  0  0  0  0  0  0
    2.6116    6.5272    3.9306 H   0  0  0  0  0  0  0  0  0  0  0  0
    3.7412    5.1644    3.8588 H   0  0  0  0  0  0  0  0  0  0  0  0
   -2.8229    2.6681   -1.3800 H   0  0  0  0  0  0  0  0  0  0  0  0
   -0.8406    8.2442   -0.7360 H   0  0  0  0  0  0  0  0  0  0  0  0
    1.0093   12.8697    1.7911 H   0  0  0  0  0  0  0  0  0  0  0  0
    1.5408   13.3491    4.1398 H   0  0  0  0  0  0  0  0  0  0  0  0
  1  2  2  0  0  0  0
  2  3  1  0  0  0  0
  3  4  2  0  0  0  0
  3  5  1  0  0  0  0
  5  6  2  0  0  0  0
  6  7  1  0  0  0  0
  7  8  2  0  0  0  0
  8  9  1  0  0  0  0
  9 10  2  0  0  0  0
 10 11  1  0  0  0  0
 11 12  2  0  0  0  0
 12 13  1  0  0  0  0
 13 14  3  0  0  0  0
 12 15  1  0  0  0  0
 15 16  3  0  0  0  0
  8 17  1  0  0  0  0
 17 18  1  0  0  0  0
 18 19  1  0  0  0  0
 19 20  2  0  0  0  0
 20 21  1  0  0  0  0
 21 22  1  0  0  0  0
 21 23  1  0  0  0  0
  1 24  1  0  0  0  0
 24 25  2  0  0  0  0
 25 26  1  0  0  0  0
 26 27  1  0  0  0  0
 27 28  1  0  0  0  0
 25 29  1  0  0  0  0
 29 30  1  0  0  0  0
 30 31  1  0  0  0  0
 31 32  2  0  0  0  0
 32 33  1  0  0  0  0
 33 34  2  0  0  0  0
 34 35  1  0  0  0  0
 35 36  1  0  0  0  0
 34 37  1  0  0  0  0
 37 38  2  0  0  0  0
 30 39  1  0  0  0  0
 39 40  2  0  0  0  0
 40 41  1  0  0  0  0
 41 42  2  0  0  0  0
 42 43  1  0  0  0  0
 43 44  1  0  0  0  0
 42 45  1  0  0  0  0
 45 46  2  0  0  0  0
 30 47  1  0  0  0  0
 47 48  2  0  0  0  0
 48 49  1  0  0  0  0
 49 50  1  0  0  0  0
 48 51  1  0  0  0  0
 51 52  2  0  0  0  0
 52 53  1  0  0  0  0
 53 54  1  0  0  0  0
 54 55  2  0  0  0  0
 55 56  1  0  0  0  0
 56 57  2  0  0  0  0
 57 58  1  0  0  0  0
 58 59  1  0  0  0  0
 57 60  1  0  0  0  0
 60 61  2  0  0  0  0
 53 62  1  0  0  0  0
 62 63  2  0  0  0  0
 63 64  1  0  0  0  0
 64 65  2  0  0  0  0
 65 66  1  0  0  0  0
 66 67  1  0  0  0  0
 65 68  1  0  0  0  0
 68 69  2  0  0  0  0
 53 70  1  0  0  0  0
 70 71  1  0  0  0  0
 71 72  1  0  0  0  0
 72 73  1  0  0  0  0
 73 74  1  0  0  0  0
 71 75  2  0  0  0  0
 75 76  1  0  0  0  0
 76 77  1  0  0  0  0
 77 78  1  0  0  0  0
 78 79  2  0  0  0  0
 75 80  1  0  0  0  0
 80 81  2  0  0  0  0
 81 82  1  0  0  0  0
 82 83  2  0  0  0  0
 82 84  1  0  0  0  0
 84 85  2  0  0  0  0
 85 86  1  0  0  0  0
 86 87  2  0  0  0  0
 87 88  1  0  0  0  0
 88 89  1  0  0  0  0
 88 90  2  0  0  0  0
 90 91  1  0  0  0  0
 85 92  1  0  0  0  0
 92 93  2  0  0  0  0
 93 94  1  0  0  0  0
 94 95  3  0  0  0  0
 93 96  1  0  0  0  0
 96 97  3  0  0  0  0
 11  2  1  0  0  0  0
 23 17  1  0  0  0  0
 50 24  1  0  0  0  0
 78 52  1  0  0  0  0
 92 81  1  0  0  0  0
 10  5  1  0  0  0  0
 22 18  1  0  0  0  0
 49 29  2  0  0  0  0
 61 54  1  0  0  0  0
 69 62  1  0  0  0  0
 77 70  2  0  0  0  0
 90 84  1  0  0  0  0
 23  7  1  0  0  0  0
 38 31  1  0  0  0  0
 46 39  1  0  0  0  0
 79 47  1  0  0  0  0
  1 98  1  0  0  0  0
  6 99  1  0  0  0  0
  9100  1  0  0  0  0
 17101  1  0  0  0  0
 18102  1  0  0  0  0
 19103  1  0  0  0  0
 20104  1  0  0  0  0
 21105  1  0  0  0  0
 22106  1  0  0  0  0
 22107  1  0  0  0  0
 23108  1  0  0  0  0
 27109  1  0  0  0  0
 27110  1  0  0  0  0
 28111  1  0  0  0  0
 28112  1  0  0  0  0
 28113  1  0  0  0  0
 32114  1  0  0  0  0
 33115  1  0  0  0  0
 35116  1  0  0  0  0
 35117  1  0  0  0  0
 36118  1  0  0  0  0
 36119  1  0  0  0  0
 36120  1  0  0  0  0
 37121  1  0  0  0  0
 38122  1  0  0  0  0
 40123  1  0  0  0  0
 41124  1  0  0  0  0
 43125  1  0  0  0  0
 43126  1  0  0  0  0
 44127  1  0  0  0  0
 44128  1  0  0  0  0
 44129  1  0  0  0  0
 45130  1  0  0  0  0
 46131  1  0  0  0  0
 51132  1  0  0  0  0
 55133  1  0  0  0  0
 56134  1  0  0  0  0
 58135  1  0  0  0  0
 58136  1  0  0  0  0
 59137  1  0  0  0  0
 59138  1  0  0  0  0
 59139  1  0  0  0  0
 60140  1  0  0  0  0
 61141  1  0  0  0  0
 63142  1  0  0  0  0
 64143  1  0  0  0  0
 66144  1  0  0  0  0
 66145  1  0  0  0  0
 67146  1  0  0  0  0
 67147  1  0  0  0  0
 67148  1  0  0  0  0
 68149  1  0  0  0  0
 69150  1  0  0  0  0
 73151  1  0  0  0  0
 73152  1  0  0  0  0
 74153  1  0  0  0  0
 74154  1  0  0  0  0
 74155  1  0  0  0  0
 79156  1  0  0  0  0
 80157  1  0  0  0  0
 86158  1  0  0  0  0
 87159  1  0  0  0  0
M  END
