
  xtb     02102218573D
 energy: -238.862216464081 gnorm: 0.000264997351 xtb: 6.4.1 (unknown)
151167  0     0  0            999 V2000
    0.0885    3.9206    5.1963 C   0  0  0  0  0  0  0  0  0  0  0  0
    0.0881    3.8648    6.5624 C   0  0  0  0  0  0  0  0  0  0  0  0
    0.3387    2.6988    7.4413 C   0  0  0  0  0  0  0  0  0  0  0  0
    0.8392    1.6282    7.1621 O   0  0  0  0  0  0  0  0  0  0  0  0
   -0.1646    3.0864    8.7724 C   0  0  0  0  0  0  0  0  0  0  0  0
   -0.2366    2.2739    9.9017 C   0  0  0  0  0  0  0  0  0  0  0  0
   -0.7798    2.8923   11.0015 C   0  0  0  0  0  0  0  0  0  0  0  0
   -1.2158    4.2243   10.9824 C   0  0  0  0  0  0  0  0  0  0  0  0
   -1.1403    5.0398    9.8787 C   0  0  0  0  0  0  0  0  0  0  0  0
   -0.5933    4.4277    8.7471 C   0  0  0  0  0  0  0  0  0  0  0  0
   -0.3619    4.9593    7.4079 C   0  0  0  0  0  0  0  0  0  0  0  0
   -0.4762    6.2763    7.0465 C   0  0  0  0  0  0  0  0  0  0  0  0
   -0.1412    6.8134    5.7849 C   0  0  0  0  0  0  0  0  0  0  0  0
    0.1286    7.3392    4.7999 N   0  0  0  0  0  0  0  0  0  0  0  0
   -0.8996    7.3056    7.9134 C   0  0  0  0  0  0  0  0  0  0  0  0
   -1.2416    8.1927    8.5572 N   0  0  0  0  0  0  0  0  0  0  0  0
   -1.6687    4.1801   12.4201 C   0  0  0  0  0  0  0  0  0  0  0  0
   -3.1875    4.0477   12.6934 C   0  0  0  0  0  0  0  0  0  0  0  0
   -3.7810    3.3517   11.4938 C   0  0  0  0  0  0  0  0  0  0  0  0
   -3.3683    2.0914   11.5116 C   0  0  0  0  0  0  0  0  0  0  0  0
   -2.4882    1.9123   12.7240 C   0  0  0  0  0  0  0  0  0  0  0  0
   -3.1700    2.8854   13.6991 C   0  0  0  0  0  0  0  0  0  0  0  0
   -1.1826    2.6967   12.4417 C   0  0  0  0  0  0  0  0  0  0  0  0
    0.4536    2.9642    4.2286 C   0  0  0  0  0  0  0  0  0  0  0  0
    1.1162    1.7506    4.3131 C   0  0  0  0  0  0  0  0  0  0  0  0
    1.2328    1.1361    3.0743 C   0  0  0  0  0  0  0  0  0  0  0  0
    1.9012   -0.3856    2.5539 S   0  0  0  0  0  0  0  0  0  0  0  0
    1.3817   -0.0395    0.9399 C   0  0  0  0  0  0  0  0  0  0  0  0
    1.3941   -0.7451   -0.3030 C   0  0  0  0  0  0  0  0  0  0  0  0
    1.8819   -2.0066   -0.6331 C   0  0  0  0  0  0  0  0  0  0  0  0
    1.6718   -2.4437   -1.9201 C   0  0  0  0  0  0  0  0  0  0  0  0
    2.0705   -3.7757   -2.5336 C   0  0  0  0  0  0  0  0  0  0  0  0
    3.5655   -3.9109   -2.7685 C   0  0  0  0  0  0  0  0  0  0  0  0
    4.4256   -2.8262   -2.6865 C   0  0  0  0  0  0  0  0  0  0  0  0
    5.7734   -2.9800   -2.9589 C   0  0  0  0  0  0  0  0  0  0  0  0
    6.2926   -4.2122   -3.3301 C   0  0  0  0  0  0  0  0  0  0  0  0
    7.7627   -4.3842   -3.5824 C   0  0  0  0  0  0  0  0  0  0  0  0
    8.4887   -4.7452   -2.2848 C   0  0  0  0  0  0  0  0  0  0  0  0
    5.4247   -5.2936   -3.4187 C   0  0  0  0  0  0  0  0  0  0  0  0
    4.0791   -5.1462   -3.1463 C   0  0  0  0  0  0  0  0  0  0  0  0
    1.5340   -4.8946   -1.6634 C   0  0  0  0  0  0  0  0  0  0  0  0
    0.2652   -5.4173   -1.8693 C   0  0  0  0  0  0  0  0  0  0  0  0
   -0.2275   -6.4088   -1.0409 C   0  0  0  0  0  0  0  0  0  0  0  0
    0.5277   -6.8970    0.0166 C   0  0  0  0  0  0  0  0  0  0  0  0
   -0.0250   -7.9443    0.9396 C   0  0  0  0  0  0  0  0  0  0  0  0
   -0.7515   -7.2900    2.1166 C   0  0  0  0  0  0  0  0  0  0  0  0
    1.7901   -6.3581    0.2291 C   0  0  0  0  0  0  0  0  0  0  0  0
    2.2884   -5.3695   -0.5976 C   0  0  0  0  0  0  0  0  0  0  0  0
    1.4136   -3.6708   -3.8873 C   0  0  0  0  0  0  0  0  0  0  0  0
    0.8148   -2.4190   -4.0452 C   0  0  0  0  0  0  0  0  0  0  0  0
    0.9586   -1.6500   -2.8502 C   0  0  0  0  0  0  0  0  0  0  0  0
    0.5014   -0.3732   -2.5290 C   0  0  0  0  0  0  0  0  0  0  0  0
    0.7397    0.0772   -1.2524 C   0  0  0  0  0  0  0  0  0  0  0  0
    0.3399    1.4059   -0.6346 C   0  0  0  0  0  0  0  0  0  0  0  0
   -1.1437    1.6404   -0.8327 C   0  0  0  0  0  0  0  0  0  0  0  0
   -1.5997    2.2550   -1.9921 C   0  0  0  0  0  0  0  0  0  0  0  0
   -2.9523    2.4467   -2.1978 C   0  0  0  0  0  0  0  0  0  0  0  0
   -3.8839    2.0284   -1.2562 C   0  0  0  0  0  0  0  0  0  0  0  0
   -5.3485    2.2899   -1.4577 C   0  0  0  0  0  0  0  0  0  0  0  0
   -5.7265    3.6634   -0.8992 C   0  0  0  0  0  0  0  0  0  0  0  0
   -3.4231    1.4059   -0.1044 C   0  0  0  0  0  0  0  0  0  0  0  0
   -2.0707    1.2064    0.1038 C   0  0  0  0  0  0  0  0  0  0  0  0
    1.1643    2.5804   -1.1396 C   0  0  0  0  0  0  0  0  0  0  0  0
    2.3137    2.4060   -1.8953 C   0  0  0  0  0  0  0  0  0  0  0  0
    3.0666    3.5005   -2.2829 C   0  0  0  0  0  0  0  0  0  0  0  0
    2.7011    4.7876   -1.9153 C   0  0  0  0  0  0  0  0  0  0  0  0
    3.4981    5.9762   -2.3688 C   0  0  0  0  0  0  0  0  0  0  0  0
    2.9299    6.5333   -3.6756 C   0  0  0  0  0  0  0  0  0  0  0  0
    1.5518    4.9547   -1.1519 C   0  0  0  0  0  0  0  0  0  0  0  0
    0.7933    3.8672   -0.7670 C   0  0  0  0  0  0  0  0  0  0  0  0
    0.7429    1.1814    0.7980 C   0  0  0  0  0  0  0  0  0  0  0  0
    0.6645    1.8646    2.0083 C   0  0  0  0  0  0  0  0  0  0  0  0
    0.0011    3.3484    2.5604 S   0  0  0  0  0  0  0  0  0  0  0  0
    0.0534   -2.2140   -5.5610 S   0  0  0  0  0  0  0  0  0  0  0  0
    0.5387   -3.8402   -6.0205 C   0  0  0  0  0  0  0  0  0  0  0  0
    1.2718   -4.4670   -5.0018 C   0  0  0  0  0  0  0  0  0  0  0  0
    0.2417   -4.4960   -7.2229 C   0  0  0  0  0  0  0  0  0  0  0  0
   -0.4941   -4.0895   -8.3069 C   0  0  0  0  0  0  0  0  0  0  0  0
   -1.1710   -2.7932   -8.4518 C   0  0  0  0  0  0  0  0  0  0  0  0
   -1.1614   -1.8594   -7.6686 O   0  0  0  0  0  0  0  0  0  0  0  0
   -1.8736   -2.8434   -9.7434 C   0  0  0  0  0  0  0  0  0  0  0  0
   -2.6710   -1.8871  -10.3411 C   0  0  0  0  0  0  0  0  0  0  0  0
   -3.2331   -2.1770  -11.5741 C   0  0  0  0  0  0  0  0  0  0  0  0
   -3.0061   -3.3993  -12.2030 C   0  0  0  0  0  0  0  0  0  0  0  0
   -3.6457   -3.6974  -13.5219 C   0  0  0  0  0  0  0  0  0  0  0  0
   -2.1990   -4.3584  -11.5916 C   0  0  0  0  0  0  0  0  0  0  0  0
   -1.6302   -4.0827  -10.3606 C   0  0  0  0  0  0  0  0  0  0  0  0
   -0.7608   -4.8786   -9.4931 C   0  0  0  0  0  0  0  0  0  0  0  0
   -0.2980   -6.1367   -9.7823 C   0  0  0  0  0  0  0  0  0  0  0  0
    0.5382   -6.9220   -8.9619 C   0  0  0  0  0  0  0  0  0  0  0  0
    1.2147   -7.6303   -8.3608 N   0  0  0  0  0  0  0  0  0  0  0  0
   -0.5961   -6.8374  -10.9698 C   0  0  0  0  0  0  0  0  0  0  0  0
   -0.7936   -7.4659  -11.9104 N   0  0  0  0  0  0  0  0  0  0  0  0
   -0.3041    4.8314    4.7576 H   0  0  0  0  0  0  0  0  0  0  0  0
    0.1105    1.2528    9.8719 H   0  0  0  0  0  0  0  0  0  0  0  0
   -1.4832    6.0609    9.8789 H   0  0  0  0  0  0  0  0  0  0  0  0
   -1.1860    4.8852   13.0938 H   0  0  0  0  0  0  0  0  0  0  0  0
   -3.6724    4.9701   13.0016 H   0  0  0  0  0  0  0  0  0  0  0  0
   -4.3746    3.8464   10.7474 H   0  0  0  0  0  0  0  0  0  0  0  0
   -3.5480    1.3227   10.7828 H   0  0  0  0  0  0  0  0  0  0  0  0
   -2.3372    0.8900   13.0605 H   0  0  0  0  0  0  0  0  0  0  0  0
   -4.1694    2.5622   13.9867 H   0  0  0  0  0  0  0  0  0  0  0  0
   -2.5792    3.0917   14.5904 H   0  0  0  0  0  0  0  0  0  0  0  0
   -0.3827    2.4322   13.1305 H   0  0  0  0  0  0  0  0  0  0  0  0
    1.4760    1.3439    5.2397 H   0  0  0  0  0  0  0  0  0  0  0  0
    2.3909   -2.6124    0.1006 H   0  0  0  0  0  0  0  0  0  0  0  0
    4.0461   -1.8542   -2.4071 H   0  0  0  0  0  0  0  0  0  0  0  0
    6.4304   -2.1247   -2.8863 H   0  0  0  0  0  0  0  0  0  0  0  0
    8.1808   -3.4585   -3.9830 H   0  0  0  0  0  0  0  0  0  0  0  0
    7.9217   -5.1770   -4.3159 H   0  0  0  0  0  0  0  0  0  0  0  0
    8.0923   -5.6716   -1.8751 H   0  0  0  0  0  0  0  0  0  0  0  0
    9.5531   -4.8732   -2.4669 H   0  0  0  0  0  0  0  0  0  0  0  0
    8.3546   -3.9591   -1.5450 H   0  0  0  0  0  0  0  0  0  0  0  0
    5.8067   -6.2616   -3.7098 H   0  0  0  0  0  0  0  0  0  0  0  0
    3.4194   -5.9987   -3.2175 H   0  0  0  0  0  0  0  0  0  0  0  0
   -0.3425   -5.0516   -2.6843 H   0  0  0  0  0  0  0  0  0  0  0  0
   -1.2143   -6.8109   -1.2218 H   0  0  0  0  0  0  0  0  0  0  0  0
   -0.7230   -8.5850    0.3971 H   0  0  0  0  0  0  0  0  0  0  0  0
    0.7866   -8.5679    1.3200 H   0  0  0  0  0  0  0  0  0  0  0  0
   -1.1511   -8.0482    2.7861 H   0  0  0  0  0  0  0  0  0  0  0  0
   -1.5733   -6.6739    1.7583 H   0  0  0  0  0  0  0  0  0  0  0  0
   -0.0687   -6.6556    2.6774 H   0  0  0  0  0  0  0  0  0  0  0  0
    2.3930   -6.7202    1.0497 H   0  0  0  0  0  0  0  0  0  0  0  0
    3.2781   -4.9728   -0.4223 H   0  0  0  0  0  0  0  0  0  0  0  0
   -0.0273    0.2225   -3.2566 H   0  0  0  0  0  0  0  0  0  0  0  0
   -0.8905    2.5968   -2.7320 H   0  0  0  0  0  0  0  0  0  0  0  0
   -3.2899    2.9283   -3.1043 H   0  0  0  0  0  0  0  0  0  0  0  0
   -5.5872    2.2565   -2.5226 H   0  0  0  0  0  0  0  0  0  0  0  0
   -5.9357    1.5213   -0.9512 H   0  0  0  0  0  0  0  0  0  0  0  0
   -5.1591    4.4446   -1.4001 H   0  0  0  0  0  0  0  0  0  0  0  0
   -6.7869    3.8555   -1.0457 H   0  0  0  0  0  0  0  0  0  0  0  0
   -5.5080    3.7122    0.1652 H   0  0  0  0  0  0  0  0  0  0  0  0
   -4.1307    1.0688    0.6397 H   0  0  0  0  0  0  0  0  0  0  0  0
   -1.7385    0.7096    1.0040 H   0  0  0  0  0  0  0  0  0  0  0  0
    2.6257    1.4139   -2.1870 H   0  0  0  0  0  0  0  0  0  0  0  0
    3.9571    3.3474   -2.8760 H   0  0  0  0  0  0  0  0  0  0  0  0
    3.4681    6.7543   -1.6035 H   0  0  0  0  0  0  0  0  0  0  0  0
    4.5397    5.6875   -2.5231 H   0  0  0  0  0  0  0  0  0  0  0  0
    2.9603    5.7750   -4.4550 H   0  0  0  0  0  0  0  0  0  0  0  0
    3.5071    7.3939   -4.0052 H   0  0  0  0  0  0  0  0  0  0  0  0
    1.8957    6.8407   -3.5375 H   0  0  0  0  0  0  0  0  0  0  0  0
    1.2508    5.9471   -0.8494 H   0  0  0  0  0  0  0  0  0  0  0  0
   -0.0981    4.0157   -0.1747 H   0  0  0  0  0  0  0  0  0  0  0  0
    1.6514   -5.4675   -5.1081 H   0  0  0  0  0  0  0  0  0  0  0  0
    0.6610   -5.4941   -7.2687 H   0  0  0  0  0  0  0  0  0  0  0  0
   -2.8438   -0.9420   -9.8496 H   0  0  0  0  0  0  0  0  0  0  0  0
   -3.8605   -1.4447  -12.0610 H   0  0  0  0  0  0  0  0  0  0  0  0
   -3.7266   -2.7978  -14.1276 H   0  0  0  0  0  0  0  0  0  0  0  0
   -4.6524   -4.0856  -13.3625 H   0  0  0  0  0  0  0  0  0  0  0  0
   -3.0793   -4.4471  -14.0682 H   0  0  0  0  0  0  0  0  0  0  0  0
   -2.0328   -5.3002  -12.0891 H   0  0  0  0  0  0  0  0  0  0  0  0
  1  2  2  0  0  0  0
  2  3  1  0  0  0  0
  3  4  2  0  0  0  0
  3  5  1  0  0  0  0
  5  6  2  0  0  0  0
  6  7  1  0  0  0  0
  7  8  2  0  0  0  0
  8  9  1  0  0  0  0
  9 10  2  0  0  0  0
 10 11  1  0  0  0  0
 11 12  2  0  0  0  0
 12 13  1  0  0  0  0
 13 14  3  0  0  0  0
 12 15  1  0  0  0  0
 15 16  3  0  0  0  0
  8 17  1  0  0  0  0
 17 18  1  0  0  0  0
 18 19  1  0  0  0  0
 19 20  2  0  0  0  0
 20 21  1  0  0  0  0
 21 22  1  0  0  0  0
 21 23  1  0  0  0  0
  1 24  1  0  0  0  0
 24 25  2  0  0  0  0
 25 26  1  0  0  0  0
 26 27  1  0  0  0  0
 27 28  1  0  0  0  0
 28 29  1  0  0  0  0
 29 30  2  0  0  0  0
 30 31  1  0  0  0  0
 31 32  1  0  0  0  0
 32 33  1  0  0  0  0
 33 34  2  0  0  0  0
 34 35  1  0  0  0  0
 35 36  2  0  0  0  0
 36 37  1  0  0  0  0
 37 38  1  0  0  0  0
 36 39  1  0  0  0  0
 39 40  2  0  0  0  0
 32 41  1  0  0  0  0
 41 42  2  0  0  0  0
 42 43  1  0  0  0  0
 43 44  2  0  0  0  0
 44 45  1  0  0  0  0
 45 46  1  0  0  0  0
 44 47  1  0  0  0  0
 47 48  2  0  0  0  0
 32 49  1  0  0  0  0
 49 50  2  0  0  0  0
 50 51  1  0  0  0  0
 51 52  1  0  0  0  0
 52 53  2  0  0  0  0
 53 54  1  0  0  0  0
 54 55  1  0  0  0  0
 55 56  2  0  0  0  0
 56 57  1  0  0  0  0
 57 58  2  0  0  0  0
 58 59  1  0  0  0  0
 59 60  1  0  0  0  0
 58 61  1  0  0  0  0
 61 62  2  0  0  0  0
 54 63  1  0  0  0  0
 63 64  2  0  0  0  0
 64 65  1  0  0  0  0
 65 66  2  0  0  0  0
 66 67  1  0  0  0  0
 67 68  1  0  0  0  0
 66 69  1  0  0  0  0
 69 70  2  0  0  0  0
 54 71  1  0  0  0  0
 71 72  1  0  0  0  0
 72 73  1  0  0  0  0
 50 74  1  0  0  0  0
 74 75  1  0  0  0  0
 75 76  2  0  0  0  0
 75 77  1  0  0  0  0
 77 78  2  0  0  0  0
 78 79  1  0  0  0  0
 79 80  2  0  0  0  0
 79 81  1  0  0  0  0
 81 82  2  0  0  0  0
 82 83  1  0  0  0  0
 83 84  2  0  0  0  0
 84 85  1  0  0  0  0
 84 86  1  0  0  0  0
 86 87  2  0  0  0  0
 87 88  1  0  0  0  0
 88 89  2  0  0  0  0
 89 90  1  0  0  0  0
 90 91  3  0  0  0  0
 89 92  1  0  0  0  0
 92 93  3  0  0  0  0
 11  2  1  0  0  0  0
 23 17  1  0  0  0  0
 73 24  1  0  0  0  0
 88 78  1  0  0  0  0
 10  5  1  0  0  0  0
 22 18  1  0  0  0  0
 72 26  2  0  0  0  0
 87 81  1  0  0  0  0
 23  7  1  0  0  0  0
 71 28  2  0  0  0  0
 53 29  1  0  0  0  0
 62 55  1  0  0  0  0
 70 63  1  0  0  0  0
 51 31  2  0  0  0  0
 40 33  1  0  0  0  0
 48 41  1  0  0  0  0
 76 49  1  0  0  0  0
  1 94  1  0  0  0  0
  6 95  1  0  0  0  0
  9 96  1  0  0  0  0
 17 97  1  0  0  0  0
 18 98  1  0  0  0  0
 19 99  1  0  0  0  0
 20100  1  0  0  0  0
 21101  1  0  0  0  0
 22102  1  0  0  0  0
 22103  1  0  0  0  0
 23104  1  0  0  0  0
 25105  1  0  0  0  0
 30106  1  0  0  0  0
 34107  1  0  0  0  0
 35108  1  0  0  0  0
 37109  1  0  0  0  0
 37110  1  0  0  0  0
 38111  1  0  0  0  0
 38112  1  0  0  0  0
 38113  1  0  0  0  0
 39114  1  0  0  0  0
 40115  1  0  0  0  0
 42116  1  0  0  0  0
 43117  1  0  0  0  0
 45118  1  0  0  0  0
 45119  1  0  0  0  0
 46120  1  0  0  0  0
 46121  1  0  0  0  0
 46122  1  0  0  0  0
 47123  1  0  0  0  0
 48124  1  0  0  0  0
 52125  1  0  0  0  0
 56126  1  0  0  0  0
 57127  1  0  0  0  0
 59128  1  0  0  0  0
 59129  1  0  0  0  0
 60130  1  0  0  0  0
 60131  1  0  0  0  0
 60132  1  0  0  0  0
 61133  1  0  0  0  0
 62134  1  0  0  0  0
 64135  1  0  0  0  0
 65136  1  0  0  0  0
 67137  1  0  0  0  0
 67138  1  0  0  0  0
 68139  1  0  0  0  0
 68140  1  0  0  0  0
 68141  1  0  0  0  0
 69142  1  0  0  0  0
 70143  1  0  0  0  0
 76144  1  0  0  0  0
 77145  1  0  0  0  0
 82146  1  0  0  0  0
 83147  1  0  0  0  0
 85148  1  0  0  0  0
 85149  1  0  0  0  0
 85150  1  0  0  0  0
 86151  1  0  0  0  0
M  END
