116

C         -2.79530        6.43750       -3.44620
C         -1.65100        7.16310       -3.36340
C         -1.68790        8.65370       -3.36970
O         -2.57680        9.35760       -3.78790
C         -0.44730        9.06430       -2.67900
C         -0.09520       10.34650       -2.25870
C          1.10320       10.40760       -1.58810
C          1.90260        9.28000       -1.35050
C          1.57820        8.01250       -1.76870
C          0.36190        7.93060       -2.45100
C         -0.29000        6.76990       -3.04180
C          0.34130        5.62870       -3.45730
C          1.68880        5.32590       -3.18340
N          2.77240        5.01780       -2.96200
C         -0.29660        4.64370       -4.24240
N         -0.77760        3.84460       -4.91070
C          2.94250       10.07290       -0.60100
C          2.91880        9.95330        0.93770
C          3.69080       11.16560        1.40600
C          2.93770       12.23460        1.18090
C          1.64340       11.76280        0.55820
C          1.49040       10.40850        1.26310
C          2.05420       11.33070       -0.86590
C         -2.98350        5.11080       -2.97440
C         -4.00460        4.23000       -3.27230
C         -3.85820        3.01720       -2.59370
S         -4.71540        1.50300       -2.59810
C         -3.52010        0.80190       -1.51760
C         -3.46760       -0.53630       -1.14920
C         -4.48000       -1.48310       -1.58140
C         -4.30760       -2.66490       -2.24200
C         -5.52220       -3.31870       -2.52910
C         -6.61800       -2.64690       -2.08240
C         -8.05410       -3.01440       -2.22330
C         -8.75090       -2.12970       -3.25930
S         -6.16750       -1.16460       -1.30750
C         -2.36770       -0.93600       -0.36780
C         -1.36320        0.00010       -0.00180
C         -1.41680        1.33390       -0.36740
C         -0.35030        2.27840       -0.05840
C          0.92720        2.26440       -0.52980
C          1.67950        3.38790       -0.12450
C          0.98320        4.25050        0.66140
C          1.44090        5.53500        1.26280
C          1.48180        5.46550        2.78960
S         -0.63110        3.67570        0.94000
C         -2.52100        1.72980       -1.13620
C         -2.75390        2.98040       -1.74800
S         -1.88910        4.45670       -1.77030
S         -0.07620       -0.69410        0.96130
C         -0.87030       -2.23890        0.90940
C         -0.55260       -3.48010        1.45010
C         -1.50270       -4.43460        1.13520
S         -2.81390       -3.74960        0.16780
C         -2.05890       -2.20870        0.17420
C         -1.61000       -5.81470        1.41240
C         -0.74750       -6.68870        2.01010
C          0.62340       -6.44100        2.51960
O          1.19780       -5.38330        2.67760
C          1.18970       -7.76840        2.81500
C          2.48580       -8.03510        3.25310
C          2.75220       -9.37110        3.42680
C          1.79890      -10.37010        3.18360
C          0.51510      -10.11950        2.76240
C          0.22150       -8.76340        2.58010
C         -1.01360       -8.11480        2.15000
C         -2.21330       -8.75160        1.96870
C         -3.44150       -8.14260        1.63100
N         -4.48690       -7.74200        1.37300
C         -2.41180      -10.13950        2.13310
N         -2.65340      -11.25670        2.24140
C          2.75480      -11.48060        3.54290
C          3.37610      -12.26280        2.36620
C          4.59170      -12.92500        2.97390
C          5.49300      -11.97920        3.20590
C          4.90170      -10.66170        2.75920
C          4.05730      -11.14100        1.57150
C          3.81590      -10.36670        3.81620
H         -3.67330        6.95370       -3.81880
H         -0.73420       11.19190       -2.46000
H          2.19040        7.14610       -1.57970
H          3.94840       10.04750       -1.01500
H          3.23840        8.98920        1.32410
H          4.69420       11.12720        1.78750
H          3.18660       13.26770        1.33700
H          0.80150       12.44830        0.60130
H          0.71400        9.77330        0.84050
H          1.32740       10.51870        2.33390
H          2.46810       12.14580       -1.45610
H         -4.78490        4.44500       -3.97900
H         -3.34470       -3.03290       -2.54810
H         -5.57840       -4.26020       -3.04530
H         -8.55850       -2.90370       -1.26040
H         -8.12020       -4.06120       -2.52620
H         -8.27180       -2.23490       -4.23010
H         -8.69740       -1.08550       -2.95950
H         -9.79610       -2.41240       -3.35410
H          1.30630        1.49110       -1.17370
H          2.69630        3.55540       -0.43080
H          0.76620        6.34140        0.95880
H          2.43680        5.76030        0.87530
H          1.82340        6.41170        3.20210
H          0.49050        5.25200        3.18290
H          2.15870        4.67860        3.11370
H          0.32190       -3.68840        2.03750
H         -2.53370       -6.23960        1.03680
H          3.18610       -7.23340        3.42730
H         -0.20420      -10.90040        2.58210
H          2.44810      -12.12260        4.36610
H          2.68340      -12.90710        1.83180
H          4.64750      -13.97010        3.21550
H          6.45200      -12.07620        3.68010
H          5.59880       -9.84690        2.58260
H          3.37040      -10.39100        1.18350
H          4.67140      -11.52660        0.75940
H          4.21760      -10.26490        4.82250
