215

C          7.89820        3.15900        4.16690
C          8.05380        4.40920        4.69280
C          6.98970        5.25950        5.25810
O          5.84320        4.94560        5.51220
C          7.59410        6.58830        5.45800
C          6.94840        7.74280        5.89440
C          7.75870        8.85120        5.94540
C          9.11550        8.81270        5.59610
C          9.76730        7.67810        5.17560
C          8.95890        6.53930        5.10910
C          9.28520        5.17930        4.68720
C         10.54030        4.72500        4.37420
C         10.87190        3.40320        4.00930
N         11.23580        2.35470        3.71160
C         11.70620        5.51910        4.39680
N         12.69720        6.09920        4.38950
C          9.30570       10.28630        5.85320
C          9.37100       11.22640        4.62380
C          8.59310       10.54860        3.52330
C          7.30900       10.58510        3.85340
C          7.19540       11.28850        5.18330
C          8.35230       12.29250        5.05770
C          7.79440       10.32940        6.24230
C          6.74600        2.35650        4.03100
C          6.77790        1.17070        3.31890
C          5.53300        0.53620        3.20910
C          5.20060       -0.63440        2.48560
C          6.24180       -1.44410        1.89170
C          7.45110       -1.76720        2.44620
C          8.24660       -2.57930        1.61670
C          7.65730       -2.87760        0.42600
C          8.20860       -3.66680       -0.71040
C          8.62910       -2.75570       -1.86570
S          6.08540       -2.15850        0.31150
C          3.85030       -0.92800        2.38440
S          3.21460       -2.19580        1.35260
C          1.61540       -1.72120        1.78250
C          0.32900       -2.00850        1.22710
C         -0.02200       -2.77850        0.12290
C         -1.30700       -2.64480       -0.34830
C         -1.93850       -3.26210       -1.59330
C         -0.99050       -3.12780       -2.76840
C         -0.67820       -1.84410       -3.20420
C          0.20020       -1.64800       -4.25050
C          0.79830       -2.72690       -4.88910
C          1.78990       -2.51610       -5.99640
C          3.20830       -2.41640       -5.43130
C          0.49100       -4.00420       -4.44530
C         -0.39180       -4.20590       -3.39990
C         -2.32840       -4.69190       -1.24210
C         -1.36250       -5.60410       -0.83020
C         -1.70220       -6.90830       -0.52500
C         -3.01940       -7.34110       -0.60010
C         -3.38030       -8.77310       -0.33060
C         -3.29300       -9.59470       -1.61870
C         -3.98690       -6.42130       -0.97590
C         -3.64950       -5.11720       -1.28860
C         -3.16650       -2.39110       -1.74610
C         -3.32780       -1.62760       -0.61230
C         -2.20380       -1.74370        0.26400
C         -1.86910       -1.01420        1.40160
C         -0.59080       -1.16410        1.88440
C          0.09410       -0.43230        3.03550
C         -0.23660        1.04450        2.99210
C         -1.00110        1.68960        3.95170
C         -1.28570        3.03770        3.83160
C         -0.81530        3.77720        2.75690
C         -1.15590        5.23290        2.61850
C         -2.46980        5.40560        1.85400
C         -0.05780        3.12580        1.79170
C          0.22450        1.77960        1.90470
C         -0.32790       -1.14560        4.31490
C         -1.67390       -1.24830        4.64940
C         -2.06930       -1.87790        5.81420
C         -1.13690       -2.44300        6.67360
C         -1.55860       -3.06240        7.97420
C         -1.53530       -2.01380        9.08850
C          0.20230       -2.37300        6.32020
C          0.60200       -1.73870        5.15840
C          1.54790       -0.72200        2.72500
C          2.82360       -0.21060        3.07830
C          3.17820        0.89790        3.86760
C          4.51770        1.27340        3.86740
S          5.13840        2.70870        4.63270
C          2.25810        1.70400        4.66120
C          2.06620        3.05120        4.57290
C          1.24170        3.56320        5.59460
C          0.82850        2.61760        6.47920
C         -0.02540        2.77730        7.68980
C          0.77400        2.54200        8.97220
S          1.44780        1.05710        6.05450
S         -4.70960       -0.60000       -0.63120
C         -5.06230       -1.13140       -2.26660
C         -6.07340       -0.58220       -3.03480
C         -7.00190        0.39900       -2.51540
C         -7.44200        1.55000       -3.10880
C         -8.35600        2.27000       -2.31620
C         -8.63070        1.66980       -1.12500
C         -9.52290        2.14170       -0.03000
C         -8.71370        2.59090        1.18830
S         -7.73670        0.19750       -0.94930
C         -6.14160       -1.00700       -4.38450
C         -7.05720       -0.64110       -5.37530
C         -6.81790       -1.22600       -6.61130
S         -5.43470       -2.30320       -6.56000
C         -5.19650       -1.94600       -4.87370
C         -4.21360       -2.52890       -4.08420
C         -3.35130       -3.51770       -4.72450
C         -2.54710       -3.32210       -5.80730
C         -1.98940       -4.51650       -6.30760
C         -2.39650       -5.62560       -5.63560
C         -2.04460       -7.05350       -5.87850
C         -1.30710       -7.67440       -4.69160
S         -3.46790       -5.20680       -4.34010
C         -4.12990       -2.10740       -2.74510
C         -7.61320       -0.91310       -7.72660
C         -7.52750       -1.31720       -9.03420
C         -6.54840       -2.26750       -9.58200
O         -5.65960       -2.84620       -8.99260
C         -6.86920       -2.38750      -11.02200
C         -7.96840       -1.56420      -11.32710
C         -8.45430       -1.51370      -12.62410
C         -7.83420       -2.28420      -13.59680
C         -6.75000       -3.09200      -13.29090
Br        -5.94830       -4.11460      -14.66220
C         -6.24440       -3.15940      -11.98780
Cl        -4.90630       -4.15470      -11.60260
C         -8.39350       -0.87750      -10.10760
C         -9.41960        0.03160      -10.03710
C         -9.83040        0.73140       -8.88340
N        -10.22960        1.35150       -8.00210
C        -10.21910        0.41310      -11.13480
N        -10.90840        0.77010      -11.98090
H          8.77770        2.70120        3.72910
H          5.90090        7.72690        6.15180
H         10.81050        7.66770        4.90790
H         10.03700       10.54840        6.61500
H         10.37130       11.56390        4.36650
H          9.04760       10.07640        2.67200
H          6.47640       10.14870        3.33330
H          6.21460       11.68350        5.43510
H          8.17610       13.04370        4.28920
H          8.60800       12.78020        5.99730
H          7.53740       10.62080        7.25880
H          7.67690        0.81020        2.85100
H          7.74090       -1.46820        3.43770
H          9.22270       -2.93350        1.89690
H          7.45440       -4.37230       -1.06750
H          9.07150       -4.23530       -0.35740
H          7.77270       -2.19440       -2.23240
H          9.03480       -3.34640       -2.68310
H          9.38860       -2.05140       -1.53440
H          0.72060       -3.38090       -0.37730
H         -1.13030       -0.99140       -2.71630
H          0.42540       -0.64240       -4.57720
H          1.74120       -3.34970       -6.70010
H          1.55230       -1.59790       -6.53740
H          3.27960       -1.58520       -4.73320
H          3.46910       -3.32960       -4.90100
H          3.92800       -2.26140       -6.23190
H          0.94520       -4.85790       -4.92850
H         -0.62350       -5.21240       -3.09020
H         -0.33130       -5.29970       -0.74520
H         -0.92970       -7.60010       -0.21980
H         -2.70090       -9.19500        0.41280
H         -4.39700       -8.82980        0.06320
H         -3.95720       -9.18190       -2.37500
H         -2.27760       -9.58030       -2.00880
H         -3.57790      -10.62760       -1.43190
H         -5.02200       -6.72640       -1.03050
H         -4.43350       -4.43580       -1.58070
H         -2.56780       -0.30510        1.81910
H         -1.36640        1.14890        4.81110
H         -1.87780        3.52280        4.59480
H         -0.35710        5.75100        2.08400
H         -1.25400        5.68450        3.60790
H         -2.38930        4.96920        0.86090
H         -2.71670        6.45990        1.75200
H         -3.28120        4.90760        2.38040
H          0.31770        3.68070        0.94340
H          0.81440        1.28830        1.14320
H         -2.42670       -0.83270        3.99800
H         -3.12140       -1.93310        6.05660
H         -0.88050       -3.87780        8.23380
H         -2.56710       -3.47110        7.88360
H         -2.22210       -1.20230        8.85780
H         -1.82810       -2.45760       10.03710
H         -0.53620       -1.59640        9.19210
H          0.94860       -2.81660        6.96340
H          1.65450       -1.70180        4.92340
H          2.47860        3.65230        3.78310
H          0.97080        4.60120        5.66830
H         -0.85410        2.06470        7.65020
H         -0.44170        3.78700        7.69400
H          1.17840        1.53240        8.98030
H          1.60120        3.24510        9.03470
H          0.13850        2.67080        9.84510
H         -7.08570        1.89370       -4.06350
H         -8.79930        3.20050       -2.62330
H        -10.19810        1.33520        0.26730
H        -10.12550        2.97300       -0.40130
H         -8.04320        3.40370        0.91840
H         -9.37870        2.93470        1.97650
H         -8.11800        1.76440        1.56940
H         -7.88490        0.02590       -5.21210
H         -2.34030       -2.34930       -6.21590
H         -1.31980       -4.54650       -7.14860
H         -1.42370       -7.11290       -6.77500
H         -2.95950       -7.62400       -6.06290
H         -0.35270       -7.17750       -4.53500
H         -1.12080       -8.73010       -4.87470
H         -1.90270       -7.57640       -3.78600
H         -8.41160       -0.22060       -7.48830
H         -9.29450       -0.89670      -12.89410
H         -8.19750       -2.25810      -14.61260
