151

C         -5.55860        0.94900       -2.32350
C         -6.86480        0.63370       -2.10480
C         -7.87720        0.92270       -3.15670
O         -7.72010        1.60700       -4.14270
C         -9.07960        0.16290       -2.76340
C        -10.26720        0.03170       -3.48070
C        -11.21490       -0.74530       -2.85870
C        -11.00040       -1.35360       -1.61420
C         -9.83680       -1.23090       -0.89300
C         -8.86160       -0.43960       -1.50640
C         -7.54380       -0.03740       -1.02010
C         -7.14970       -0.05210        0.29390
C         -6.01270        0.62320        0.77660
N         -5.13200        1.19620        1.24030
C         -7.88130       -0.64810        1.34050
N         -8.41790       -1.13720        2.22990
C        -12.37140       -1.98150       -1.59380
C        -12.45020       -3.48570       -1.92870
C        -13.90020       -3.69760       -2.30000
C        -14.10300       -3.12270       -3.47850
C        -12.79350       -2.51240       -3.92380
C        -11.81180       -3.52690       -3.32310
C        -12.61120       -1.30380       -2.98110
C         -4.40160        0.45220       -1.68400
O         -3.23680        1.14910       -1.85150
C         -2.29970        0.46580       -1.20210
C         -0.92100        0.63420       -0.87610
C         -0.55820       -0.50150       -0.10600
C         -1.71810       -1.47930        0.03620
C         -1.95330       -1.76910        1.50580
C         -1.27710       -2.81250        2.12630
C         -1.46460       -3.06550        3.47160
C         -2.32760       -2.28540        4.23100
C         -2.50160       -2.54550        5.69950
C         -1.42100       -1.81920        6.50300
C         -2.98630       -1.23400        3.60860
C         -2.79960       -0.97230        2.26340
C         -1.52840       -2.76000       -0.76160
C         -0.49680       -2.92230       -1.67360
C         -0.38830       -4.09280       -2.40400
C         -1.30520       -5.12240       -2.24750
C         -1.20990       -6.37100       -3.07580
C         -2.01230       -6.21400       -4.36930
C         -2.34470       -4.94810       -1.34180
C         -2.45790       -3.78260       -0.61010
C         -2.81140       -0.69970       -0.63870
C         -4.16620       -0.71290       -0.94510
C          0.69660       -0.60120        0.44690
C          1.58220        0.44970        0.21340
C          2.91580        0.68700        0.66110
C          3.40830        1.89220        0.16180
C          2.37130        2.57410       -0.68390
C          1.22700        1.57360       -0.57660
C         -0.02560        1.66870       -1.13670
C          2.07920        3.93040       -0.06690
C          3.00360        4.95280       -0.24830
C          2.80190        6.19050        0.32900
C          1.67870        6.43840        1.10890
C          1.43890        7.79770        1.70010
C          0.64820        8.67390        0.72630
C          0.76490        5.41080        1.29390
C          0.96250        4.16700        0.71990
C          2.74890        2.69720       -2.14960
C          2.10610        3.62620       -2.95780
C          2.40990        3.71410       -4.30310
C          3.35490        2.87440       -4.87810
C          3.71960        3.00450       -6.32870
C          4.88770        3.97780       -6.49970
C          3.98900        1.94310       -4.06690
C          3.68770        1.84990       -2.72070
C          4.67790        2.04910        0.69680
C          4.89680        0.92010        1.49890
O          3.79670        0.08920        1.45110
C          5.94730        0.46320        2.31260
C          7.11420        1.06710        2.70060
C          7.54960        2.45650        2.43450
O          7.06590        3.27530        1.67970
C          8.72480        2.67830        3.29840
C          9.44300        3.82550        3.47210
C         10.52960        3.82710        4.37440
C         11.30090        4.98550        4.59930
C         12.34600        4.97550        5.48060
C         12.64520        3.78870        6.16310
F         13.67780        3.79830        7.02680
C         11.93020        2.63780        5.98180
C         10.84940        2.63010        5.07840
C         10.08910        1.45510        4.87210
C          9.04000        1.47800        3.99200
C          8.08810        0.44860        3.58290
C          8.16230       -0.87310        3.94150
C          7.31160       -1.90510        3.49270
N          6.68560       -2.81140        3.16620
C          9.14880       -1.40250        4.79960
N          9.91890       -1.89870        5.49200
H         -5.37290        1.62890       -3.14910
H        -10.39600        0.52140       -4.43320
H         -9.68130       -1.70470        0.06220
H        -13.00790       -1.69730       -0.75810
H        -12.03840       -4.14350       -1.16820
H        -14.61840       -4.17850       -1.66230
H        -15.02460       -3.02760       -4.02200
H        -12.69430       -2.28480       -4.98170
H        -10.77220       -3.20490       -3.34510
H        -11.89920       -4.50800       -3.78690
H        -13.40960       -0.56980       -3.07100
H         -0.61200       -3.44040        1.55060
H         -0.93680       -3.88560        3.93750
H         -3.48500       -2.19870        6.02230
H         -2.43510       -3.61780        5.89560
H         -1.48030       -0.74670        6.33190
H         -1.54500       -2.00950        7.56660
H         -0.43240       -2.15900        6.20210
H         -3.65940       -0.61010        4.17870
H         -3.32490       -0.14680        1.80590
H          0.23010       -2.13620       -1.81630
H          0.42600       -4.20600       -3.10540
H         -0.16590       -6.57360       -3.32250
H         -1.59950       -7.22080       -2.51180
H         -1.62990       -5.37900       -4.95220
H         -3.05910       -6.02190       -4.14410
H         -1.94610       -7.11740       -4.97090
H         -3.07170       -5.73610       -1.20650
H         -3.26690       -3.66460        0.09640
H         -4.89430       -1.46030       -0.70270
H          0.98850       -1.44660        1.04980
H         -0.32060        2.51710       -1.73370
H          3.88300        4.77450       -0.84940
H          3.52990        6.97450        0.17750
H          0.87960        7.70200        2.63280
H          2.39420        8.27780        1.92160
H         -0.31480        8.21910        0.50490
H          0.47700        9.65910        1.15390
H          1.19440        8.79010       -0.20720
H         -0.11320        5.57990        1.90070
H          0.24030        3.38230        0.89060
H          1.37300        4.29380       -2.52900
H          1.90300        4.44520       -4.91670
H          2.86080        3.36970       -6.89540
H          4.00330        2.02870       -6.72830
H          5.75760        3.62480       -5.95040
H          5.15420        4.07200       -7.54980
H          4.61930        4.96090       -6.11940
H          4.72670        1.27870       -4.49400
H          4.19190        1.11390       -2.11130
H          5.37400        2.84940        0.55840
H          5.74440       -0.52220        2.71580
H          9.18140        4.72200        2.93010
H         11.05010        5.88750        4.06150
H         12.94500        5.85310        5.66560
H         12.18990        1.74210        6.52420
H         10.35500        0.56870        5.42480
