160

C          1.12250       -7.31640       -0.47260
C          1.71890       -8.08670        0.49380
C          2.29400       -7.58730        1.74600
O          2.39160       -6.42570        2.10560
C          2.73660       -8.77100        2.50110
C          3.32140       -8.78900        3.76540
C          3.61860      -10.04960        4.22480
C          3.35880      -11.20670        3.47890
C          2.78690      -11.20170        2.22840
C          2.47110       -9.92920        1.74300
C          1.85600       -9.52850        0.47730
C          1.49940      -10.38390       -0.53480
C          0.93250      -10.00890       -1.77030
N          0.47410       -9.79530       -2.80230
C          1.66160      -11.78420       -0.49340
N          1.76150      -12.92750       -0.53600
C          3.90090      -12.11750        4.55240
C          2.85980      -12.85890        5.41730
C          3.63630      -13.26780        6.64820
C          3.87850      -12.17150        7.35530
C          3.27020      -11.00290        6.61390
C          2.04770      -11.69180        5.99380
C          4.18820      -10.82710        5.38530
C          0.92770       -5.93060       -0.53190
S          1.44840       -4.73390        0.63770
C          0.76190       -3.48030       -0.32180
C          0.65940       -2.10650       -0.02670
C         -0.23320       -1.33910       -0.77470
O         -0.96860       -1.82150       -1.78420
C         -0.43920       -2.97860       -2.47390
C          0.15370       -3.95490       -1.48800
C          0.24970       -5.32640       -1.59750
C          0.61540       -2.47690       -3.45540
C          1.83590       -3.10970       -3.63760
C          2.75340       -2.60310       -4.54060
C          2.47790       -1.45780       -5.27520
C          3.49910       -0.88370       -6.21420
C          4.40430        0.10580       -5.47720
C          1.25310       -0.82940       -5.08620
C          0.32980       -1.33370       -4.19150
C         -1.59940       -3.63110       -3.20200
C         -2.87800       -3.57380       -2.66690
C         -3.92750       -4.21260       -3.30010
C         -3.72320       -4.93350       -4.46900
C         -4.87080       -5.59790       -5.17280
C         -5.50580       -4.63820       -6.18120
C         -2.43940       -4.98790       -4.99670
C         -1.38650       -4.34460       -4.37380
C         -0.32220       -0.03320       -0.27650
S         -1.23530        1.37170       -0.70800
C         -0.48830        2.25480        0.59600
C         -0.77820        3.55560        1.05320
S         -2.10560        4.56850        0.63380
C         -1.57990        5.76290        1.80390
C         -0.42200        5.33770        2.46640
C          0.03520        4.10530        2.04930
C          1.28700        3.38190        2.47920
C          2.46850        3.74440        1.58480
C          2.45440        4.82490        0.71590
C          3.55760        5.09600       -0.07390
C          4.69190        4.29810       -0.01800
C          5.86620        4.56650       -0.91410
C          5.72830        3.78500       -2.22250
C          4.69730        3.21610        0.85420
C          3.60210        2.94320        1.64950
C          1.58860        3.69030        3.93380
C          1.02480        2.91870        4.93950
C          1.26830        3.21800        6.26650
C          2.06510        4.29910        6.61960
C          2.36350        4.59260        8.06130
C          3.59340        3.80610        8.51980
C          2.61870        5.07150        5.60660
C          2.38580        4.77370        4.27700
O          1.10360        1.94900        2.38380
C          0.43960        1.49920        1.31250
C          0.51840        0.19040        0.82090
S          1.42150       -1.21690        1.26340
C         -2.18460        6.99290        2.09180
C         -3.31800        7.56650        1.57240
C         -4.18530        6.96750        0.55420
O         -4.02820        5.90260       -0.02010
C         -5.29970        7.90790        0.35160
C         -6.38470        7.75030       -0.50780
C         -7.27800        8.79420       -0.47610
C         -7.10610        9.91070        0.35240
C         -6.04090       10.07720        1.20580
C         -5.11650        9.02850        1.18670
C         -3.87810        8.84910        1.94510
C         -3.35540        9.75710        2.83140
C         -3.94260       11.00110        3.14220
N         -4.35630       12.02860        3.44600
C         -2.15620        9.60550        3.55760
N         -1.19280        9.57070        4.18350
C         -8.37620       10.56550       -0.13080
C         -8.21500       11.72050       -1.14170
C         -9.57910       11.83160       -1.78380
C         -9.74280       10.77430       -2.56870
C         -8.49210        9.93090       -2.47050
C         -7.44420       11.03460       -2.27710
C         -8.56810        9.32030       -1.05500
H          0.71320       -7.83550       -1.33060
H          3.50760       -7.87220        4.30250
H          2.59640      -12.10200        1.66900
H          4.73940      -12.74740        4.26140
H          2.31370      -13.64290        4.89990
H          3.96650      -14.27120        6.84330
H          4.45150      -12.07600        8.25890
H          3.09740      -10.09600        7.18710
H          1.33400      -12.01990        6.74770
H          1.53470      -11.09420        5.24260
H          5.21800      -10.59780        5.65300
H         -0.15010       -5.89660       -2.41770
H          2.07500       -4.00420       -3.08140
H          3.69890       -3.10880       -4.67520
H          2.99800       -0.36930       -7.03640
H          4.10940       -1.68600       -6.63350
H          5.14440        0.52250       -6.15620
H          3.81580        0.92070       -5.06150
H          4.92280       -0.39180       -4.66070
H          1.01720        0.06140       -5.65030
H         -0.62170       -0.84200       -4.05260
H         -3.04960       -3.02090       -1.75610
H         -4.91910       -4.15730       -2.87400
H         -4.51820       -6.48860       -5.69620
H         -5.62420       -5.90450       -4.44450
H         -4.77300       -4.33120       -6.92400
H         -5.87360       -3.74790       -5.67600
H         -6.33800       -5.11800       -6.69090
H         -2.25950       -5.54430       -5.90530
H         -0.39510       -4.39750       -4.79970
H          0.05500        5.93390        3.22450
H          1.58660        5.46510        0.65480
H          3.53370        5.94360       -0.74390
H          5.92630        5.63360       -1.13680
H          6.78940        4.26880       -0.41310
H          4.81980        4.07820       -2.74400
H          5.67760        2.71700       -2.02270
H          6.57920        3.97730       -2.87170
H          5.57160        2.58410        0.91530
H          3.61390        2.10250        2.32740
H          0.40220        2.07650        4.67890
H          0.82690        2.60590        7.04000
H          2.54900        5.66020        8.19180
H          1.50810        4.31530        8.68050
H          3.81070        4.01450        9.56470
H          4.46060        4.07910        7.92270
H          3.42330        2.73780        8.40600
H          3.23930        5.91870        5.86050
H          2.82730        5.38420        3.50280
H         -1.65850        7.55110        2.85650
H         -6.47980        6.86970       -1.12360
H         -5.92960       10.94020        1.84040
H         -9.12530       10.76900        0.63200
H         -7.79260       12.63190       -0.72760
H        -10.28330       12.61270       -1.56500
H        -10.61130       10.49580       -3.13640
H         -8.32240        9.21260       -3.26820
H         -6.46120       10.66760       -1.98780
H         -7.35110       11.67200       -3.15480
H         -9.44550        8.69310       -0.90830
