228

C         -6.74270        6.23640        5.64850
C         -6.34440        7.37260        6.29250
C         -5.01140        8.01750        6.20950
O         -4.13090        7.84150        5.39250
C         -4.92470        8.90020        7.38800
C         -3.81710        9.64750        7.78490
C         -4.01250       10.36690        8.93870
C         -5.22080       10.34590        9.64890
C         -6.32280        9.61940        9.26530
C         -6.14450        8.87910        8.09220
C         -7.06660        7.99390        7.38890
C         -8.39990        7.84080        7.66360
C         -9.29600        7.06510        6.89690
N        -10.09170        6.47220        6.31910
C         -9.07230        8.48070        8.72510
N         -9.67770        8.96970        9.56930
C         -4.70270       11.27910       10.71490
C         -4.29620       10.63430       12.05700
C         -3.40360       11.67080       12.70060
C         -2.26040       11.69310       12.02730
C         -2.36110       10.67190       10.91720
C         -3.23800        9.61870       11.60680
C         -3.35680       11.30480        9.92170
C         -6.10190        5.57850        4.57330
C         -5.26970        6.06860        3.59780
C         -4.77410        5.07970        2.72630
C         -3.87520        5.22440        1.64740
C         -3.31550        6.51920        1.32090
C         -2.87290        7.48940        2.17640
C         -2.38830        8.63620        1.51620
C         -2.46410        8.55720        0.15970
C         -2.06650        9.54850       -0.88270
C         -1.59050       10.87390       -0.30070
S         -3.13070        7.03410       -0.33550
C         -3.53700        4.06530        0.96270
S         -2.38870        4.03710       -0.36110
C         -2.52340        2.32200       -0.42210
C         -1.87280        1.31530       -1.20160
C         -0.91080        1.42480       -2.20040
C         -0.41540        0.25180       -2.71870
C          0.65500        0.05040       -3.79010
C         -0.02700        0.44410       -5.08910
C         -0.51280       -0.52090       -5.96290
C         -1.18390       -0.16020       -7.11720
C         -1.39730        1.17410       -7.43250
C         -2.15150        1.56220       -8.67130
C         -3.65360        1.62300       -8.38670
C         -0.94430        2.13640       -6.54030
C         -0.28020        1.77930       -5.38210
C          1.91340        0.81200       -3.42660
C          2.54620        1.72000       -4.25880
C          3.69500        2.37130       -3.84200
C          4.24800        2.12820       -2.59480
C          5.52390        2.79040       -2.16020
C          6.68150        1.79020       -2.15890
C          3.60950        1.21660       -1.76170
C          2.46080        0.57160       -2.16900
C          0.89120       -1.44420       -3.68390
C         -0.04490       -1.99090       -2.83720
C         -0.87350       -0.99110       -2.23790
C         -1.86680       -1.09970       -1.27070
C         -2.36310        0.07290       -0.75020
C         -3.38480        0.26850        0.36980
C         -4.75090       -0.21510       -0.08980
C         -5.55500       -1.06970        0.64650
C         -6.79590       -1.45330        0.16840
C         -7.27710       -0.98160       -1.04270
C         -8.65790       -1.33390       -1.51400
C         -9.65710       -0.27080       -1.05280
C         -6.47130       -0.12000       -1.77670
C         -5.22650        0.25240       -1.31170
C         -2.81110       -0.41750        1.59430
C         -2.83290       -1.80360        1.71050
C         -2.25850       -2.43300        2.79810
C         -1.62640       -1.70420        3.79660
C         -0.96670       -2.39520        4.95490
C          0.47980       -2.75360        4.60890
C         -1.57300       -0.32450        3.66210
C         -2.15290        0.30960        2.57800
C         -3.39950        1.77970        0.48720
C         -4.02300        2.76330        1.29900
C         -4.95490        2.63890        2.34290
C         -5.29420        3.79640        3.02640
S         -6.38220        3.84980        4.38090
C         -5.63310        1.40690        2.74760
C         -5.25100        0.45450        3.63830
C         -6.27130       -0.48270        3.91690
C         -7.43200       -0.23340        3.25580
C         -8.72860       -0.96210        3.34750
C         -9.72100       -0.20400        4.23150
S         -7.28870        1.17670        2.25900
S          0.13920       -3.67900       -2.55150
C          1.58640       -3.66930       -3.54050
C          2.38220       -4.78980       -3.71870
C          2.05060       -6.07670       -3.14280
C          1.57770       -6.36080       -1.89070
C          1.40110       -7.73870       -1.66420
C          1.71530       -8.51000       -2.74230
C          1.73880       -9.99440       -2.85750
C          3.17490      -10.51470       -2.74670
S          2.24460       -7.53830       -4.06880
C          3.55670       -4.61100       -4.48250
C          4.57750       -5.54560       -4.72710
C          5.60130       -5.05840       -5.50250
S          5.31000       -3.38260       -5.97170
C          3.82510       -3.34840       -5.06970
C          2.99100       -2.24330       -4.94300
C          3.32270       -1.03830       -5.69240
C          2.62740       -0.46440       -6.71330
C          3.32370        0.59250       -7.33300
C          4.55580        0.81890       -6.79930
C          5.55990        1.83180       -7.24350
C          6.74110        1.96740       -6.29270
S          4.87780       -0.27980       -5.50160
C          1.85680       -2.39010       -4.12080
C          6.80620       -5.64240       -5.95010
C          7.36830       -6.86470       -5.70590
C          6.88870       -7.96670       -4.83790
O          5.80700       -8.11050       -4.30290
C          8.00710       -8.92150       -4.74020
C          8.04250      -10.07590       -3.96100
C          9.22600      -10.76800       -4.04190
C         10.29460      -10.34500       -4.84420
C         10.26770       -9.21450       -5.62510
C          9.07180       -8.49320       -5.55510
C          8.67150       -7.25900       -6.22530
C          9.39270       -6.63370       -7.20860
C         10.64670       -7.07700       -7.68060
N         11.66780       -7.37070       -8.11620
C          9.00470       -5.48910       -7.93880
N          8.78250       -4.57840       -8.60290
C         11.16810      -11.50220       -4.42910
C         12.28650      -11.22610       -3.39380
C         11.83080      -10.04460       -2.57410
C         10.81960      -10.44450       -1.81460
C         10.57330      -11.90400       -2.10720
C         12.00910      -12.36690       -2.40170
C          9.97780      -11.97340       -3.53550
H         -7.60890        5.71570        6.04060
H         -2.90520        9.63490        7.20850
H         -7.24480        9.61080        9.82220
H         -5.25280       12.20980       10.83930
H         -5.12530       10.26380       12.65350
H         -3.70640       12.29920       13.51750
H         -1.41760       12.34380       12.16930
H         -1.42690       10.33520       10.47570
H         -3.61740        8.84920       10.93690
H         -2.73240        9.15040       12.44970
H         -3.00920       12.25320        9.51640
H         -5.05710        7.11360        3.48990
H         -2.86030        7.37870        3.24560
H         -2.00020        9.48740        2.04480
H         -1.27220        9.11380       -1.49830
H         -2.92000        9.72510       -1.54460
H         -0.70970       10.72680        0.31960
H         -1.33330       11.55930       -1.10460
H         -2.37150       11.32930        0.30330
H         -0.55640        2.39500       -2.51080
H         -0.36570       -1.56930       -5.74670
H         -1.54280       -0.93080       -7.78510
H         -1.96480        0.83250       -9.46190
H         -1.81190        2.53940       -9.02080
H         -4.20050        1.89890       -9.28520
H         -3.86240        2.35780       -7.61250
H         -4.01280        0.65510       -8.04410
H         -1.11650        3.18240       -6.75210
H          0.04120        2.55330       -4.70260
H          2.16450        1.91370       -5.24880
H          4.16640        3.07950       -4.50860
H          5.75890        3.61780       -2.83300
H          5.40240        3.19790       -1.15330
H          7.61050        2.28420       -1.88350
H          6.49140        0.98890       -1.44920
H          6.80140        1.34530       -3.14410
H          4.01530        1.01400       -0.78090
H          1.97640       -0.13000       -1.50380
H         -2.19610       -2.07110       -0.93970
H         -5.23410       -1.42980        1.61080
H         -7.40040       -2.12690        0.75910
H         -8.67570       -1.39570       -2.60410
H         -8.95140       -2.30560       -1.11130
H        -10.66440       -0.52810       -1.37210
H         -9.39580        0.69910       -1.46930
H         -9.64540       -0.18430        0.03160
H         -6.82270        0.26270       -2.72440
H         -4.61530        0.91950       -1.90320
H         -3.30690       -2.40420        0.94920
H         -2.30070       -3.51080        2.87080
H         -0.97620       -1.74270        5.83040
H         -1.51380       -3.30740        5.20230
H          1.04540       -1.85510        4.37250
H          0.95880       -3.25630        5.44600
H          0.50960       -3.41250        3.74380
H         -1.07430        0.26700        4.41750
H         -2.09170        1.38540        2.50820
H         -4.27470        0.42250        4.08670
H         -6.14050       -1.31090        4.59130
H         -8.54810       -1.95540        3.76470
H         -9.15810       -1.08010        2.34980
H        -10.66220       -0.74460        4.29400
H         -9.31870       -0.08540        5.23480
H         -9.91190        0.78400        3.81900
H          1.40780       -5.61180       -1.13840
H          1.05550       -8.14480       -0.72990
H          1.12490      -10.42690       -2.06430
H          1.32110      -10.29670       -3.82070
H          3.80210      -10.05130       -3.50530
H          3.58720      -10.27450       -1.76910
H          3.19770      -11.59350       -2.88060
H          4.58810       -6.54520       -4.33660
H          1.65860       -0.80190       -7.03110
H          2.92270        1.15890       -8.15540
H          5.92680        1.54490       -8.23490
H          5.05800        2.79810       -7.35520
H          6.40100        2.26660       -5.30450
H          7.26440        1.01790       -6.20330
H          7.44000        2.71430       -6.66190
H          7.38760       -4.96950       -6.56980
H          7.19490      -10.36250       -3.35790
H         11.10030       -8.90490       -6.23380
H         11.49770      -12.16170       -5.22940
H         13.28570      -11.16060       -3.81590
H         12.24000       -9.05590       -2.66960
H         10.21500       -9.85640       -1.14920
H         10.01330      -12.45610       -1.35690
H         12.06200      -13.35680       -2.85290
H         12.65270      -12.32770       -1.52410
H          9.53020      -12.94160       -3.75170
