
  xtb     02022212263D
 energy: -190.737375205742 gnorm: 0.000195313264 xtb: 6.4.1 (unknown)
124138  0     0  0            999 V2000
   -1.1362   -1.8847   -5.4450 C   0  0  0  0  0  0  0  0  0  0  0  0
   -1.9716   -0.9486   -5.9558 C   0  0  0  0  0  0  0  0  0  0  0  0
   -2.7432    0.0552   -5.1691 C   0  0  0  0  0  0  0  0  0  0  0  0
   -2.5666    0.4188   -4.0279 O   0  0  0  0  0  0  0  0  0  0  0  0
   -3.8398    0.4867   -6.0572 C   0  0  0  0  0  0  0  0  0  0  0  0
   -4.8900    1.3388   -5.7212 C   0  0  0  0  0  0  0  0  0  0  0  0
   -5.7892    1.5468   -6.7382 C   0  0  0  0  0  0  0  0  0  0  0  0
   -5.6561    0.9523   -8.0014 C   0  0  0  0  0  0  0  0  0  0  0  0
   -4.6221    0.1172   -8.3492 C   0  0  0  0  0  0  0  0  0  0  0  0
   -3.6956   -0.1097   -7.3260 C   0  0  0  0  0  0  0  0  0  0  0  0
   -2.4973   -0.9384   -7.3151 C   0  0  0  0  0  0  0  0  0  0  0  0
   -1.9217   -1.5407   -8.4000 C   0  0  0  0  0  0  0  0  0  0  0  0
   -2.4438   -1.4912   -9.7098 C   0  0  0  0  0  0  0  0  0  0  0  0
   -2.8194   -1.4946  -10.7945 N   0  0  0  0  0  0  0  0  0  0  0  0
   -0.7055   -2.2576   -8.3663 C   0  0  0  0  0  0  0  0  0  0  0  0
    0.2848   -2.8355   -8.4214 N   0  0  0  0  0  0  0  0  0  0  0  0
   -6.9283    1.5767   -8.5167 C   0  0  0  0  0  0  0  0  0  0  0  0
   -8.1866    0.6775   -8.6041 C   0  0  0  0  0  0  0  0  0  0  0  0
   -8.0164   -0.4023   -7.5644 C   0  0  0  0  0  0  0  0  0  0  0  0
   -8.1409    0.1616   -6.3704 C   0  0  0  0  0  0  0  0  0  0  0  0
   -8.3979    1.6334   -6.5813 C   0  0  0  0  0  0  0  0  0  0  0  0
   -9.2029    1.5827   -7.8896 C   0  0  0  0  0  0  0  0  0  0  0  0
   -7.0750    2.2406   -7.1113 C   0  0  0  0  0  0  0  0  0  0  0  0
   -0.6362   -1.9464   -4.0917 C   0  0  0  0  0  0  0  0  0  0  0  0
   -0.5670   -3.2010   -3.4710 C   0  0  0  0  0  0  0  0  0  0  0  0
   -0.2048   -3.3272   -2.1419 C   0  0  0  0  0  0  0  0  0  0  0  0
    0.1270   -2.1920   -1.4268 C   0  0  0  0  0  0  0  0  0  0  0  0
    0.5054   -2.0484    0.0269 C   0  0  0  0  0  0  0  0  0  0  0  0
   -0.7154   -2.2576    0.9542 C   0  0  0  0  0  0  0  0  0  0  0  0
   -1.3677   -3.6325    0.8972 C   0  0  0  0  0  0  0  0  0  0  0  0
    1.6800   -2.9580    0.4200 C   0  0  0  0  0  0  0  0  0  0  0  0
    2.9341   -2.6717   -0.3979 C   0  0  0  0  0  0  0  0  0  0  0  0
    0.8807   -0.5834    0.0972 C   0  0  0  0  0  0  0  0  0  0  0  0
    0.6837    0.0436   -1.1427 C   0  0  0  0  0  0  0  0  0  0  0  0
    0.1788   -0.9468   -2.0774 C   0  0  0  0  0  0  0  0  0  0  0  0
   -0.2119   -0.8117   -3.3949 C   0  0  0  0  0  0  0  0  0  0  0  0
    0.9889    1.3842   -1.3409 C   0  0  0  0  0  0  0  0  0  0  0  0
    1.4987    2.0906   -0.2699 C   0  0  0  0  0  0  0  0  0  0  0  0
    1.6073    1.4810    0.9909 C   0  0  0  0  0  0  0  0  0  0  0  0
    1.3149    0.1378    1.1879 C   0  0  0  0  0  0  0  0  0  0  0  0
    2.0775    2.4702    1.9396 C   0  0  0  0  0  0  0  0  0  0  0  0
    2.3037    2.3554    3.2945 C   0  0  0  0  0  0  0  0  0  0  0  0
    2.8302    3.4454    3.9954 C   0  0  0  0  0  0  0  0  0  0  0  0
    3.0902    4.6339    3.3026 C   0  0  0  0  0  0  0  0  0  0  0  0
    2.8475    4.7497    1.9448 C   0  0  0  0  0  0  0  0  0  0  0  0
    2.3118    3.6766    1.2587 C   0  0  0  0  0  0  0  0  0  0  0  0
    1.9571    3.5361   -0.2063 C   0  0  0  0  0  0  0  0  0  0  0  0
    0.7761    4.4352   -0.6270 C   0  0  0  0  0  0  0  0  0  0  0  0
    1.0213    5.9376   -0.5786 C   0  0  0  0  0  0  0  0  0  0  0  0
    3.2491    3.7743   -1.0183 C   0  0  0  0  0  0  0  0  0  0  0  0
    3.1334    3.5968   -2.5264 C   0  0  0  0  0  0  0  0  0  0  0  0
    3.0658    3.3914    5.4163 C   0  0  0  0  0  0  0  0  0  0  0  0
    3.2668    2.3145    6.2089 C   0  0  0  0  0  0  0  0  0  0  0  0
    3.0582    2.4367    7.6814 C   0  0  0  0  0  0  0  0  0  0  0  0
    3.0203    3.4605    8.3238 O   0  0  0  0  0  0  0  0  0  0  0  0
    2.8394    1.0572    8.1560 C   0  0  0  0  0  0  0  0  0  0  0  0
    2.4345    0.6578    9.4281 C   0  0  0  0  0  0  0  0  0  0  0  0
    2.2678   -0.6992    9.5631 C   0  0  0  0  0  0  0  0  0  0  0  0
    2.4782   -1.5996    8.5089 C   0  0  0  0  0  0  0  0  0  0  0  0
    2.8840   -1.2227    7.2515 C   0  0  0  0  0  0  0  0  0  0  0  0
    3.0687    0.1539    7.0960 C   0  0  0  0  0  0  0  0  0  0  0  0
    3.5084    0.9098    5.9276 C   0  0  0  0  0  0  0  0  0  0  0  0
    4.2242    0.4097    4.8740 C   0  0  0  0  0  0  0  0  0  0  0  0
    4.4782   -0.9615    4.6712 C   0  0  0  0  0  0  0  0  0  0  0  0
    4.6787   -2.0687    4.4428 N   0  0  0  0  0  0  0  0  0  0  0  0
    4.8347    1.2219    3.8934 C   0  0  0  0  0  0  0  0  0  0  0  0
    5.3969    1.8331    3.1017 N   0  0  0  0  0  0  0  0  0  0  0  0
    2.1129   -2.7953    9.3520 C   0  0  0  0  0  0  0  0  0  0  0  0
    3.2664   -3.6857    9.8756 C   0  0  0  0  0  0  0  0  0  0  0  0
    4.4845   -2.7996    9.9632 C   0  0  0  0  0  0  0  0  0  0  0  0
    4.2938   -1.9477   10.9618 C   0  0  0  0  0  0  0  0  0  0  0  0
    2.9435   -2.2420   11.5672 C   0  0  0  0  0  0  0  0  0  0  0  0
    2.8803   -3.7639   11.3612 C   0  0  0  0  0  0  0  0  0  0  0  0
    1.8862   -1.7935   10.5279 C   0  0  0  0  0  0  0  0  0  0  0  0
   -0.8724   -2.7290   -6.0723 H   0  0  0  0  0  0  0  0  0  0  0  0
   -4.9558    1.7731   -4.7358 H   0  0  0  0  0  0  0  0  0  0  0  0
   -4.5346   -0.3378   -9.3218 H   0  0  0  0  0  0  0  0  0  0  0  0
   -6.8239    2.2288   -9.3814 H   0  0  0  0  0  0  0  0  0  0  0  0
   -8.4326    0.3425   -9.6080 H   0  0  0  0  0  0  0  0  0  0  0  0
   -7.7739   -1.4231   -7.7954 H   0  0  0  0  0  0  0  0  0  0  0  0
   -8.0227   -0.2936   -5.4045 H   0  0  0  0  0  0  0  0  0  0  0  0
   -8.8369    2.1688   -5.7434 H   0  0  0  0  0  0  0  0  0  0  0  0
  -10.1756    1.1087   -7.7671 H   0  0  0  0  0  0  0  0  0  0  0  0
   -9.3248    2.5562   -8.3624 H   0  0  0  0  0  0  0  0  0  0  0  0
   -7.0660    3.3275   -7.0572 H   0  0  0  0  0  0  0  0  0  0  0  0
   -0.8439   -4.0798   -4.0357 H   0  0  0  0  0  0  0  0  0  0  0  0
   -0.1749   -4.3053   -1.6864 H   0  0  0  0  0  0  0  0  0  0  0  0
   -1.4634   -1.5035    0.6953 H   0  0  0  0  0  0  0  0  0  0  0  0
   -0.3885   -2.0608    1.9778 H   0  0  0  0  0  0  0  0  0  0  0  0
   -2.1719   -3.6792    1.6287 H   0  0  0  0  0  0  0  0  0  0  0  0
   -0.6558   -4.4200    1.1299 H   0  0  0  0  0  0  0  0  0  0  0  0
   -1.7950   -3.8185   -0.0842 H   0  0  0  0  0  0  0  0  0  0  0  0
    1.3911   -3.9999    0.2752 H   0  0  0  0  0  0  0  0  0  0  0  0
    1.8996   -2.8134    1.4799 H   0  0  0  0  0  0  0  0  0  0  0  0
    2.7413   -2.8130   -1.4594 H   0  0  0  0  0  0  0  0  0  0  0  0
    3.7356   -3.3433   -0.0995 H   0  0  0  0  0  0  0  0  0  0  0  0
    3.2695   -1.6486   -0.2434 H   0  0  0  0  0  0  0  0  0  0  0  0
   -0.1661    0.1442   -3.8895 H   0  0  0  0  0  0  0  0  0  0  0  0
    0.8235    1.8404   -2.3039 H   0  0  0  0  0  0  0  0  0  0  0  0
    1.4383   -0.3199    2.1584 H   0  0  0  0  0  0  0  0  0  0  0  0
    2.0421    1.4454    3.8128 H   0  0  0  0  0  0  0  0  0  0  0  0
    3.5121    5.4689    3.8424 H   0  0  0  0  0  0  0  0  0  0  0  0
    3.0863    5.6745    1.4431 H   0  0  0  0  0  0  0  0  0  0  0  0
    0.4876    4.1551   -1.6412 H   0  0  0  0  0  0  0  0  0  0  0  0
   -0.0674    4.1940    0.0260 H   0  0  0  0  0  0  0  0  0  0  0  0
    1.1872    6.2743    0.4407 H   0  0  0  0  0  0  0  0  0  0  0  0
    1.8746    6.2212   -1.1888 H   0  0  0  0  0  0  0  0  0  0  0  0
    0.1453    6.4563   -0.9634 H   0  0  0  0  0  0  0  0  0  0  0  0
    3.6009    4.7847   -0.8040 H   0  0  0  0  0  0  0  0  0  0  0  0
    4.0048    3.0818   -0.6383 H   0  0  0  0  0  0  0  0  0  0  0  0
    2.9024    2.5664   -2.7807 H   0  0  0  0  0  0  0  0  0  0  0  0
    2.3698    4.2461   -2.9469 H   0  0  0  0  0  0  0  0  0  0  0  0
    4.0844    3.8508   -2.9903 H   0  0  0  0  0  0  0  0  0  0  0  0
    3.0011    4.3387    5.9434 H   0  0  0  0  0  0  0  0  0  0  0  0
    2.2743    1.3818   10.2116 H   0  0  0  0  0  0  0  0  0  0  0  0
    3.0350   -1.9208    6.4442 H   0  0  0  0  0  0  0  0  0  0  0  0
    1.2607   -3.3781    9.0081 H   0  0  0  0  0  0  0  0  0  0  0  0
    3.3921   -4.6227    9.3398 H   0  0  0  0  0  0  0  0  0  0  0  0
    5.3078   -2.8447    9.2747 H   0  0  0  0  0  0  0  0  0  0  0  0
    4.9267   -1.1381   11.2749 H   0  0  0  0  0  0  0  0  0  0  0  0
    2.7755   -1.8653   12.5727 H   0  0  0  0  0  0  0  0  0  0  0  0
    1.8898   -4.1841   11.5309 H   0  0  0  0  0  0  0  0  0  0  0  0
    3.6150   -4.3006   11.9594 H   0  0  0  0  0  0  0  0  0  0  0  0
    0.8876   -1.7255   10.9555 H   0  0  0  0  0  0  0  0  0  0  0  0
  1  2  2  0  0  0  0
  2  3  1  0  0  0  0
  3  4  2  0  0  0  0
  3  5  1  0  0  0  0
  5  6  2  0  0  0  0
  6  7  1  0  0  0  0
  7  8  2  0  0  0  0
  8  9  1  0  0  0  0
  9 10  2  0  0  0  0
 10 11  1  0  0  0  0
 11 12  2  0  0  0  0
 12 13  1  0  0  0  0
 13 14  3  0  0  0  0
 12 15  1  0  0  0  0
 15 16  3  0  0  0  0
  8 17  1  0  0  0  0
 17 18  1  0  0  0  0
 18 19  1  0  0  0  0
 19 20  2  0  0  0  0
 20 21  1  0  0  0  0
 21 22  1  0  0  0  0
 21 23  1  0  0  0  0
  1 24  1  0  0  0  0
 24 25  2  0  0  0  0
 25 26  1  0  0  0  0
 26 27  2  0  0  0  0
 27 28  1  0  0  0  0
 28 29  1  0  0  0  0
 29 30  1  0  0  0  0
 28 31  1  0  0  0  0
 31 32  1  0  0  0  0
 28 33  1  0  0  0  0
 33 34  2  0  0  0  0
 34 35  1  0  0  0  0
 35 36  2  0  0  0  0
 34 37  1  0  0  0  0
 37 38  2  0  0  0  0
 38 39  1  0  0  0  0
 39 40  2  0  0  0  0
 39 41  1  0  0  0  0
 41 42  2  0  0  0  0
 42 43  1  0  0  0  0
 43 44  2  0  0  0  0
 44 45  1  0  0  0  0
 45 46  2  0  0  0  0
 46 47  1  0  0  0  0
 47 48  1  0  0  0  0
 48 49  1  0  0  0  0
 47 50  1  0  0  0  0
 50 51  1  0  0  0  0
 43 52  1  0  0  0  0
 52 53  2  0  0  0  0
 53 54  1  0  0  0  0
 54 55  2  0  0  0  0
 54 56  1  0  0  0  0
 56 57  2  0  0  0  0
 57 58  1  0  0  0  0
 58 59  2  0  0  0  0
 59 60  1  0  0  0  0
 60 61  2  0  0  0  0
 61 62  1  0  0  0  0
 62 63  2  0  0  0  0
 63 64  1  0  0  0  0
 64 65  3  0  0  0  0
 63 66  1  0  0  0  0
 66 67  3  0  0  0  0
 59 68  1  0  0  0  0
 68 69  1  0  0  0  0
 69 70  1  0  0  0  0
 70 71  2  0  0  0  0
 71 72  1  0  0  0  0
 72 73  1  0  0  0  0
 72 74  1  0  0  0  0
 11  2  1  0  0  0  0
 23 17  1  0  0  0  0
 36 24  1  0  0  0  0
 47 38  1  0  0  0  0
 62 53  1  0  0  0  0
 74 68  1  0  0  0  0
 10  5  1  0  0  0  0
 22 18  1  0  0  0  0
 35 27  1  0  0  0  0
 46 41  1  0  0  0  0
 61 56  1  0  0  0  0
 73 69  1  0  0  0  0
 23  7  1  0  0  0  0
 40 33  1  0  0  0  0
 74 58  1  0  0  0  0
  1 75  1  0  0  0  0
  6 76  1  0  0  0  0
  9 77  1  0  0  0  0
 17 78  1  0  0  0  0
 18 79  1  0  0  0  0
 19 80  1  0  0  0  0
 20 81  1  0  0  0  0
 21 82  1  0  0  0  0
 22 83  1  0  0  0  0
 22 84  1  0  0  0  0
 23 85  1  0  0  0  0
 25 86  1  0  0  0  0
 26 87  1  0  0  0  0
 29 88  1  0  0  0  0
 29 89  1  0  0  0  0
 30 90  1  0  0  0  0
 30 91  1  0  0  0  0
 30 92  1  0  0  0  0
 31 93  1  0  0  0  0
 31 94  1  0  0  0  0
 32 95  1  0  0  0  0
 32 96  1  0  0  0  0
 32 97  1  0  0  0  0
 36 98  1  0  0  0  0
 37 99  1  0  0  0  0
 40100  1  0  0  0  0
 42101  1  0  0  0  0
 44102  1  0  0  0  0
 45103  1  0  0  0  0
 48104  1  0  0  0  0
 48105  1  0  0  0  0
 49106  1  0  0  0  0
 49107  1  0  0  0  0
 49108  1  0  0  0  0
 50109  1  0  0  0  0
 50110  1  0  0  0  0
 51111  1  0  0  0  0
 51112  1  0  0  0  0
 51113  1  0  0  0  0
 52114  1  0  0  0  0
 57115  1  0  0  0  0
 60116  1  0  0  0  0
 68117  1  0  0  0  0
 69118  1  0  0  0  0
 70119  1  0  0  0  0
 71120  1  0  0  0  0
 72121  1  0  0  0  0
 73122  1  0  0  0  0
 73123  1  0  0  0  0
 74124  1  0  0  0  0
M  END
