
  xtb     02022200173D
 energy: -252.525301817989 gnorm: 0.000297475815 xtb: 6.4.1 (unknown)
159174  0     0  0            999 V2000
    2.7587   -0.7925   -4.1335 C   0  0  0  0  0  0  0  0  0  0  0  0
    3.9034   -1.5398   -4.0414 C   0  0  0  0  0  0  0  0  0  0  0  0
    4.5423   -1.9829   -2.7989 C   0  0  0  0  0  0  0  0  0  0  0  0
    4.0710   -1.9718   -1.6746 O   0  0  0  0  0  0  0  0  0  0  0  0
    5.8996   -2.4209   -3.1761 C   0  0  0  0  0  0  0  0  0  0  0  0
    6.9191   -2.8310   -2.3202 C   0  0  0  0  0  0  0  0  0  0  0  0
    8.0981   -3.1324   -2.9592 C   0  0  0  0  0  0  0  0  0  0  0  0
    8.2524   -3.0397   -4.3484 C   0  0  0  0  0  0  0  0  0  0  0  0
    7.2509   -2.6504   -5.2065 C   0  0  0  0  0  0  0  0  0  0  0  0
    6.0447   -2.3328   -4.5761 C   0  0  0  0  0  0  0  0  0  0  0  0
    4.7818   -1.8645   -5.1434 C   0  0  0  0  0  0  0  0  0  0  0  0
    4.4623   -1.8187   -6.4766 C   0  0  0  0  0  0  0  0  0  0  0  0
    5.3484   -2.1591   -7.5183 C   0  0  0  0  0  0  0  0  0  0  0  0
    6.0231   -2.4172   -8.4112 N   0  0  0  0  0  0  0  0  0  0  0  0
    3.1895   -1.4825   -6.9839 C   0  0  0  0  0  0  0  0  0  0  0  0
    2.1736   -1.2530   -7.4693 N   0  0  0  0  0  0  0  0  0  0  0  0
    9.7009   -3.4582   -4.2964 C   0  0  0  0  0  0  0  0  0  0  0  0
   10.7462   -2.3325   -4.4473 C   0  0  0  0  0  0  0  0  0  0  0  0
   12.0127   -2.9364   -3.8849 C   0  0  0  0  0  0  0  0  0  0  0  0
   11.8668   -3.0272   -2.5692 C   0  0  0  0  0  0  0  0  0  0  0  0
   10.4991   -2.4859   -2.2204 C   0  0  0  0  0  0  0  0  0  0  0  0
   10.3656   -1.3967   -3.2926 C   0  0  0  0  0  0  0  0  0  0  0  0
    9.5282   -3.5642   -2.7472 C   0  0  0  0  0  0  0  0  0  0  0  0
    1.8425   -0.4235   -3.1454 C   0  0  0  0  0  0  0  0  0  0  0  0
    0.7842    0.4772   -3.4395 C   0  0  0  0  0  0  0  0  0  0  0  0
    0.8257    1.0723   -4.6453 O   0  0  0  0  0  0  0  0  0  0  0  0
   -0.3791    1.4133   -5.3122 C   0  0  0  0  0  0  0  0  0  0  0  0
   -1.0857    0.1705   -5.8366 C   0  0  0  0  0  0  0  0  0  0  0  0
   -0.0597    0.6645   -2.3423 C   0  0  0  0  0  0  0  0  0  0  0  0
   -1.2978    1.4637   -1.9660 C   0  0  0  0  0  0  0  0  0  0  0  0
   -1.1452    2.9622   -2.1288 C   0  0  0  0  0  0  0  0  0  0  0  0
   -2.2317    3.8072   -1.9196 C   0  0  0  0  0  0  0  0  0  0  0  0
   -2.0930    5.1777   -2.0222 C   0  0  0  0  0  0  0  0  0  0  0  0
   -0.8664    5.7517   -2.3303 C   0  0  0  0  0  0  0  0  0  0  0  0
   -0.7337    7.2380   -2.4914 C   0  0  0  0  0  0  0  0  0  0  0  0
   -1.0803    7.6529   -3.9228 C   0  0  0  0  0  0  0  0  0  0  0  0
    0.2182    4.9094   -2.5267 C   0  0  0  0  0  0  0  0  0  0  0  0
    0.0852    3.5365   -2.4201 C   0  0  0  0  0  0  0  0  0  0  0  0
   -2.5023    0.8600   -2.6881 C   0  0  0  0  0  0  0  0  0  0  0  0
   -2.8332   -0.4651   -2.4192 C   0  0  0  0  0  0  0  0  0  0  0  0
   -3.8843   -1.0803   -3.0696 C   0  0  0  0  0  0  0  0  0  0  0  0
   -4.6402   -0.3946   -4.0121 C   0  0  0  0  0  0  0  0  0  0  0  0
   -5.7454   -1.0802   -4.7603 C   0  0  0  0  0  0  0  0  0  0  0  0
   -5.1963   -1.7491   -6.0223 C   0  0  0  0  0  0  0  0  0  0  0  0
   -4.3074    0.9245   -4.2806 C   0  0  0  0  0  0  0  0  0  0  0  0
   -3.2554    1.5462   -3.6307 C   0  0  0  0  0  0  0  0  0  0  0  0
   -1.4152    1.1299   -0.4800 C   0  0  0  0  0  0  0  0  0  0  0  0
   -0.4504    0.1679   -0.1057 C   0  0  0  0  0  0  0  0  0  0  0  0
    0.3640   -0.0893   -1.2494 C   0  0  0  0  0  0  0  0  0  0  0  0
    1.7880   -0.9994   -1.4980 S   0  0  0  0  0  0  0  0  0  0  0  0
   -0.3854   -0.3675    1.1783 C   0  0  0  0  0  0  0  0  0  0  0  0
   -1.2819    0.1140    2.1016 C   0  0  0  0  0  0  0  0  0  0  0  0
   -1.4412   -0.2784    3.5655 C   0  0  0  0  0  0  0  0  0  0  0  0
   -2.0582   -1.6683    3.6891 C   0  0  0  0  0  0  0  0  0  0  0  0
   -3.0791   -2.0192    2.8109 C   0  0  0  0  0  0  0  0  0  0  0  0
   -3.7284   -3.2315    2.9284 C   0  0  0  0  0  0  0  0  0  0  0  0
   -3.3859   -4.1310    3.9302 C   0  0  0  0  0  0  0  0  0  0  0  0
   -4.0728   -5.4613    4.0342 C   0  0  0  0  0  0  0  0  0  0  0  0
   -3.4167   -6.4788    3.0986 C   0  0  0  0  0  0  0  0  0  0  0  0
   -2.3686   -3.7788    4.8042 C   0  0  0  0  0  0  0  0  0  0  0  0
   -1.7162   -2.5631    4.6929 C   0  0  0  0  0  0  0  0  0  0  0  0
   -0.0802   -0.1005    4.2035 C   0  0  0  0  0  0  0  0  0  0  0  0
    0.2719    1.1111    4.7864 C   0  0  0  0  0  0  0  0  0  0  0  0
    1.5330    1.2970    5.3207 C   0  0  0  0  0  0  0  0  0  0  0  0
    2.4853    0.2885    5.2670 C   0  0  0  0  0  0  0  0  0  0  0  0
    3.8353    0.4673    5.8976 C   0  0  0  0  0  0  0  0  0  0  0  0
    3.8140   -0.0228    7.3472 C   0  0  0  0  0  0  0  0  0  0  0  0
    2.1438   -0.9069    4.6479 C   0  0  0  0  0  0  0  0  0  0  0  0
    0.8833   -1.0990    4.1152 C   0  0  0  0  0  0  0  0  0  0  0  0
   -2.5071    0.7059    4.0195 C   0  0  0  0  0  0  0  0  0  0  0  0
   -3.2572    0.9948    5.1702 C   0  0  0  0  0  0  0  0  0  0  0  0
   -3.2523    0.4552    6.3959 O   0  0  0  0  0  0  0  0  0  0  0  0
   -2.0534   -0.0401    6.9749 C   0  0  0  0  0  0  0  0  0  0  0  0
   -1.4216    1.0189    7.8715 C   0  0  0  0  0  0  0  0  0  0  0  0
   -4.2322    1.9897    4.9258 C   0  0  0  0  0  0  0  0  0  0  0  0
   -4.2070    2.5363    3.2633 S   0  0  0  0  0  0  0  0  0  0  0  0
   -2.9255    1.4583    2.9291 C   0  0  0  0  0  0  0  0  0  0  0  0
   -2.1966    1.1291    1.7484 C   0  0  0  0  0  0  0  0  0  0  0  0
   -2.2941    1.6288    0.4519 C   0  0  0  0  0  0  0  0  0  0  0  0
   -4.9985    2.5746    5.9405 C   0  0  0  0  0  0  0  0  0  0  0  0
   -6.0006    3.5041    5.8629 C   0  0  0  0  0  0  0  0  0  0  0  0
   -6.2616    4.3930    7.0177 C   0  0  0  0  0  0  0  0  0  0  0  0
   -5.8503    4.2675    8.1502 O   0  0  0  0  0  0  0  0  0  0  0  0
   -7.0735    5.5046    6.4704 C   0  0  0  0  0  0  0  0  0  0  0  0
   -7.4915    6.6670    7.0887 C   0  0  0  0  0  0  0  0  0  0  0  0
   -8.2142    7.5896    6.3473 C   0  0  0  0  0  0  0  0  0  0  0  0
   -8.4970    7.3282    5.0139 C   0  0  0  0  0  0  0  0  0  0  0  0
   -9.4650    8.6223    4.0130 Br  0  0  0  0  0  0  0  0  0  0  0  0
   -8.0960    6.1593    4.3779 C   0  0  0  0  0  0  0  0  0  0  0  0
   -7.3782    5.2410    5.1226 C   0  0  0  0  0  0  0  0  0  0  0  0
   -6.8450    3.9226    4.7734 C   0  0  0  0  0  0  0  0  0  0  0  0
   -7.3016    3.1321    3.7495 C   0  0  0  0  0  0  0  0  0  0  0  0
   -8.1886    3.5756    2.7502 C   0  0  0  0  0  0  0  0  0  0  0  0
   -8.8928    3.9004    1.9034 N   0  0  0  0  0  0  0  0  0  0  0  0
   -7.0134    1.7547    3.6568 C   0  0  0  0  0  0  0  0  0  0  0  0
   -6.8505    0.6206    3.5827 N   0  0  0  0  0  0  0  0  0  0  0  0
    2.5148   -0.3736   -5.1031 H   0  0  0  0  0  0  0  0  0  0  0  0
    6.7592   -2.8879   -1.2548 H   0  0  0  0  0  0  0  0  0  0  0  0
    7.3831   -2.5820   -6.2735 H   0  0  0  0  0  0  0  0  0  0  0  0
    9.9581   -4.3556   -4.8555 H   0  0  0  0  0  0  0  0  0  0  0  0
   10.8096   -1.9007   -5.4424 H   0  0  0  0  0  0  0  0  0  0  0  0
   12.8348   -3.2752   -4.4876 H   0  0  0  0  0  0  0  0  0  0  0  0
   12.5425   -3.4572   -1.8533 H   0  0  0  0  0  0  0  0  0  0  0  0
   10.3378   -2.1934   -1.1862 H   0  0  0  0  0  0  0  0  0  0  0  0
    9.3660   -0.9740   -3.3742 H   0  0  0  0  0  0  0  0  0  0  0  0
   11.0898   -0.5949   -3.1570 H   0  0  0  0  0  0  0  0  0  0  0  0
    9.6694   -4.5335   -2.2727 H   0  0  0  0  0  0  0  0  0  0  0  0
   -0.0531    2.0452   -6.1417 H   0  0  0  0  0  0  0  0  0  0  0  0
   -1.0296    1.9937   -4.6544 H   0  0  0  0  0  0  0  0  0  0  0  0
   -1.4036   -0.4634   -5.0111 H   0  0  0  0  0  0  0  0  0  0  0  0
   -1.9620    0.4611   -6.4079 H   0  0  0  0  0  0  0  0  0  0  0  0
   -0.4112   -0.3934   -6.4771 H   0  0  0  0  0  0  0  0  0  0  0  0
   -3.2015    3.3944   -1.6858 H   0  0  0  0  0  0  0  0  0  0  0  0
   -2.9527    5.8116   -1.8575 H   0  0  0  0  0  0  0  0  0  0  0  0
   -1.4059    7.7465   -1.7972 H   0  0  0  0  0  0  0  0  0  0  0  0
    0.2891    7.5454   -2.2649 H   0  0  0  0  0  0  0  0  0  0  0  0
   -0.4137    7.1645   -4.6301 H   0  0  0  0  0  0  0  0  0  0  0  0
   -2.1023    7.3679   -4.1628 H   0  0  0  0  0  0  0  0  0  0  0  0
   -0.9837    8.7296   -4.0407 H   0  0  0  0  0  0  0  0  0  0  0  0
    1.1856    5.3300   -2.7613 H   0  0  0  0  0  0  0  0  0  0  0  0
    0.9556    2.9152   -2.5667 H   0  0  0  0  0  0  0  0  0  0  0  0
   -2.2604   -1.0250   -1.6939 H   0  0  0  0  0  0  0  0  0  0  0  0
   -4.1210   -2.1096   -2.8412 H   0  0  0  0  0  0  0  0  0  0  0  0
   -6.5098   -0.3533   -5.0411 H   0  0  0  0  0  0  0  0  0  0  0  0
   -6.2093   -1.8366   -4.1244 H   0  0  0  0  0  0  0  0  0  0  0  0
   -4.4365   -2.4828   -5.7627 H   0  0  0  0  0  0  0  0  0  0  0  0
   -5.9942   -2.2514   -6.5638 H   0  0  0  0  0  0  0  0  0  0  0  0
   -4.7443   -1.0083   -6.6782 H   0  0  0  0  0  0  0  0  0  0  0  0
   -4.8780    1.4811   -5.0101 H   0  0  0  0  0  0  0  0  0  0  0  0
   -3.0338    2.5747   -3.8738 H   0  0  0  0  0  0  0  0  0  0  0  0
    0.3480   -1.1208    1.4170 H   0  0  0  0  0  0  0  0  0  0  0  0
   -3.3769   -1.3339    2.0309 H   0  0  0  0  0  0  0  0  0  0  0  0
   -4.5226   -3.4767    2.2386 H   0  0  0  0  0  0  0  0  0  0  0  0
   -4.0177   -5.8279    5.0610 H   0  0  0  0  0  0  0  0  0  0  0  0
   -5.1255   -5.3529    3.7657 H   0  0  0  0  0  0  0  0  0  0  0  0
   -3.4721   -6.1362    2.0678 H   0  0  0  0  0  0  0  0  0  0  0  0
   -3.9177   -7.4411    3.1723 H   0  0  0  0  0  0  0  0  0  0  0  0
   -2.3688   -6.6119    3.3587 H   0  0  0  0  0  0  0  0  0  0  0  0
   -2.0834   -4.4587    5.5945 H   0  0  0  0  0  0  0  0  0  0  0  0
   -0.9342   -2.3299    5.4001 H   0  0  0  0  0  0  0  0  0  0  0  0
   -0.4472    1.9177    4.8200 H   0  0  0  0  0  0  0  0  0  0  0  0
    1.7825    2.2434    5.7787 H   0  0  0  0  0  0  0  0  0  0  0  0
    4.5828   -0.0981    5.3378 H   0  0  0  0  0  0  0  0  0  0  0  0
    4.1177    1.5216    5.8780 H   0  0  0  0  0  0  0  0  0  0  0  0
    3.5438   -1.0757    7.3871 H   0  0  0  0  0  0  0  0  0  0  0  0
    3.0851    0.5401    7.9264 H   0  0  0  0  0  0  0  0  0  0  0  0
    4.7921    0.1020    7.8053 H   0  0  0  0  0  0  0  0  0  0  0  0
    2.8767   -1.6974    4.5743 H   0  0  0  0  0  0  0  0  0  0  0  0
    0.6474   -2.0347    3.6307 H   0  0  0  0  0  0  0  0  0  0  0  0
   -1.3456   -0.3500    6.2067 H   0  0  0  0  0  0  0  0  0  0  0  0
   -2.3549   -0.9093    7.5655 H   0  0  0  0  0  0  0  0  0  0  0  0
   -0.5419    0.6057    8.3566 H   0  0  0  0  0  0  0  0  0  0  0  0
   -2.1296    1.3404    8.6310 H   0  0  0  0  0  0  0  0  0  0  0  0
   -1.1229    1.8840    7.2842 H   0  0  0  0  0  0  0  0  0  0  0  0
   -3.0315    2.3796    0.2207 H   0  0  0  0  0  0  0  0  0  0  0  0
   -4.6660    2.3342    6.9464 H   0  0  0  0  0  0  0  0  0  0  0  0
   -7.2557    6.8469    8.1260 H   0  0  0  0  0  0  0  0  0  0  0  0
   -8.5546    8.5096    6.7968 H   0  0  0  0  0  0  0  0  0  0  0  0
   -8.3326    5.9947    3.3388 H   0  0  0  0  0  0  0  0  0  0  0  0
  1  2  2  0  0  0  0
  2  3  1  0  0  0  0
  3  4  2  0  0  0  0
  3  5  1  0  0  0  0
  5  6  2  0  0  0  0
  6  7  1  0  0  0  0
  7  8  2  0  0  0  0
  8  9  1  0  0  0  0
  9 10  2  0  0  0  0
 10 11  1  0  0  0  0
 11 12  2  0  0  0  0
 12 13  1  0  0  0  0
 13 14  3  0  0  0  0
 12 15  1  0  0  0  0
 15 16  3  0  0  0  0
  8 17  1  0  0  0  0
 17 18  1  0  0  0  0
 18 19  1  0  0  0  0
 19 20  2  0  0  0  0
 20 21  1  0  0  0  0
 21 22  1  0  0  0  0
 21 23  1  0  0  0  0
  1 24  1  0  0  0  0
 24 25  2  0  0  0  0
 25 26  1  0  0  0  0
 26 27  1  0  0  0  0
 27 28  1  0  0  0  0
 25 29  1  0  0  0  0
 29 30  1  0  0  0  0
 30 31  1  0  0  0  0
 31 32  2  0  0  0  0
 32 33  1  0  0  0  0
 33 34  2  0  0  0  0
 34 35  1  0  0  0  0
 35 36  1  0  0  0  0
 34 37  1  0  0  0  0
 37 38  2  0  0  0  0
 30 39  1  0  0  0  0
 39 40  2  0  0  0  0
 40 41  1  0  0  0  0
 41 42  2  0  0  0  0
 42 43  1  0  0  0  0
 43 44  1  0  0  0  0
 42 45  1  0  0  0  0
 45 46  2  0  0  0  0
 30 47  1  0  0  0  0
 47 48  2  0  0  0  0
 48 49  1  0  0  0  0
 49 50  1  0  0  0  0
 48 51  1  0  0  0  0
 51 52  2  0  0  0  0
 52 53  1  0  0  0  0
 53 54  1  0  0  0  0
 54 55  2  0  0  0  0
 55 56  1  0  0  0  0
 56 57  2  0  0  0  0
 57 58  1  0  0  0  0
 58 59  1  0  0  0  0
 57 60  1  0  0  0  0
 60 61  2  0  0  0  0
 53 62  1  0  0  0  0
 62 63  2  0  0  0  0
 63 64  1  0  0  0  0
 64 65  2  0  0  0  0
 65 66  1  0  0  0  0
 66 67  1  0  0  0  0
 65 68  1  0  0  0  0
 68 69  2  0  0  0  0
 53 70  1  0  0  0  0
 70 71  1  0  0  0  0
 71 72  1  0  0  0  0
 72 73  1  0  0  0  0
 73 74  1  0  0  0  0
 71 75  2  0  0  0  0
 75 76  1  0  0  0  0
 76 77  1  0  0  0  0
 77 78  1  0  0  0  0
 78 79  2  0  0  0  0
 75 80  1  0  0  0  0
 80 81  2  0  0  0  0
 81 82  1  0  0  0  0
 82 83  2  0  0  0  0
 82 84  1  0  0  0  0
 84 85  2  0  0  0  0
 85 86  1  0  0  0  0
 86 87  2  0  0  0  0
 87 88  1  0  0  0  0
 87 89  1  0  0  0  0
 89 90  2  0  0  0  0
 90 91  1  0  0  0  0
 91 92  2  0  0  0  0
 92 93  1  0  0  0  0
 93 94  3  0  0  0  0
 92 95  1  0  0  0  0
 95 96  3  0  0  0  0
 11  2  1  0  0  0  0
 23 17  1  0  0  0  0
 50 24  1  0  0  0  0
 78 52  1  0  0  0  0
 91 81  1  0  0  0  0
 10  5  1  0  0  0  0
 22 18  1  0  0  0  0
 49 29  2  0  0  0  0
 61 54  1  0  0  0  0
 69 62  1  0  0  0  0
 77 70  2  0  0  0  0
 90 84  1  0  0  0  0
 23  7  1  0  0  0  0
 38 31  1  0  0  0  0
 46 39  1  0  0  0  0
 79 47  1  0  0  0  0
  1 97  1  0  0  0  0
  6 98  1  0  0  0  0
  9 99  1  0  0  0  0
 17100  1  0  0  0  0
 18101  1  0  0  0  0
 19102  1  0  0  0  0
 20103  1  0  0  0  0
 21104  1  0  0  0  0
 22105  1  0  0  0  0
 22106  1  0  0  0  0
 23107  1  0  0  0  0
 27108  1  0  0  0  0
 27109  1  0  0  0  0
 28110  1  0  0  0  0
 28111  1  0  0  0  0
 28112  1  0  0  0  0
 32113  1  0  0  0  0
 33114  1  0  0  0  0
 35115  1  0  0  0  0
 35116  1  0  0  0  0
 36117  1  0  0  0  0
 36118  1  0  0  0  0
 36119  1  0  0  0  0
 37120  1  0  0  0  0
 38121  1  0  0  0  0
 40122  1  0  0  0  0
 41123  1  0  0  0  0
 43124  1  0  0  0  0
 43125  1  0  0  0  0
 44126  1  0  0  0  0
 44127  1  0  0  0  0
 44128  1  0  0  0  0
 45129  1  0  0  0  0
 46130  1  0  0  0  0
 51131  1  0  0  0  0
 55132  1  0  0  0  0
 56133  1  0  0  0  0
 58134  1  0  0  0  0
 58135  1  0  0  0  0
 59136  1  0  0  0  0
 59137  1  0  0  0  0
 59138  1  0  0  0  0
 60139  1  0  0  0  0
 61140  1  0  0  0  0
 63141  1  0  0  0  0
 64142  1  0  0  0  0
 66143  1  0  0  0  0
 66144  1  0  0  0  0
 67145  1  0  0  0  0
 67146  1  0  0  0  0
 67147  1  0  0  0  0
 68148  1  0  0  0  0
 69149  1  0  0  0  0
 73150  1  0  0  0  0
 73151  1  0  0  0  0
 74152  1  0  0  0  0
 74153  1  0  0  0  0
 74154  1  0  0  0  0
 79155  1  0  0  0  0
 80156  1  0  0  0  0
 85157  1  0  0  0  0
 86158  1  0  0  0  0
 89159  1  0  0  0  0
M  END
