
  xtb     02112200033D
 energy: -265.118682075058 gnorm: 0.000410908629 xtb: 6.4.1 (unknown)
159174  0     0  0            999 V2000
    4.8958   -2.6558   -1.8739 C   0  0  0  0  0  0  0  0  0  0  0  0
    4.8309   -4.0063   -1.6390 C   0  0  0  0  0  0  0  0  0  0  0  0
    3.6016   -4.6796   -1.1566 C   0  0  0  0  0  0  0  0  0  0  0  0
    2.4603   -4.2666   -1.1885 O   0  0  0  0  0  0  0  0  0  0  0  0
    4.0697   -5.9255   -0.5180 C   0  0  0  0  0  0  0  0  0  0  0  0
    3.2875   -6.8469    0.1728 C   0  0  0  0  0  0  0  0  0  0  0  0
    3.9993   -7.8973    0.7011 C   0  0  0  0  0  0  0  0  0  0  0  0
    5.3873   -8.0239    0.5550 C   0  0  0  0  0  0  0  0  0  0  0  0
    6.1702   -7.1256   -0.1316 C   0  0  0  0  0  0  0  0  0  0  0  0
    5.4655   -6.0482   -0.6738 C   0  0  0  0  0  0  0  0  0  0  0  0
    5.9465   -4.8988   -1.4332 C   0  0  0  0  0  0  0  0  0  0  0  0
    7.2005   -4.7205   -1.9587 C   0  0  0  0  0  0  0  0  0  0  0  0
    8.2777   -5.6073   -1.7708 C   0  0  0  0  0  0  0  0  0  0  0  0
    9.1893   -6.2935   -1.6418 N   0  0  0  0  0  0  0  0  0  0  0  0
    7.5188   -3.6415   -2.8089 C   0  0  0  0  0  0  0  0  0  0  0  0
    7.8021   -2.8010   -3.5383 N   0  0  0  0  0  0  0  0  0  0  0  0
    5.4365   -9.2945    1.3663 C   0  0  0  0  0  0  0  0  0  0  0  0
    5.9410   -9.1972    2.8277 C   0  0  0  0  0  0  0  0  0  0  0  0
    5.6497   -7.7913    3.2907 C   0  0  0  0  0  0  0  0  0  0  0  0
    4.3355   -7.6732    3.4254 C   0  0  0  0  0  0  0  0  0  0  0  0
    3.7144   -8.9977    3.0560 C   0  0  0  0  0  0  0  0  0  0  0  0
    4.8122   -9.9566    3.5434 C   0  0  0  0  0  0  0  0  0  0  0  0
    3.8896   -9.1556    1.5251 C   0  0  0  0  0  0  0  0  0  0  0  0
    3.7629   -1.8495   -2.0890 C   0  0  0  0  0  0  0  0  0  0  0  0
    2.5352   -2.1382   -2.7102 C   0  0  0  0  0  0  0  0  0  0  0  0
    2.2322   -3.0521   -3.6326 O   0  0  0  0  0  0  0  0  0  0  0  0
    3.2097   -3.8147   -4.3112 C   0  0  0  0  0  0  0  0  0  0  0  0
    4.1869   -2.9683   -5.1189 C   0  0  0  0  0  0  0  0  0  0  0  0
    1.5590   -1.1897   -2.3464 C   0  0  0  0  0  0  0  0  0  0  0  0
    0.0625   -1.0994   -2.4937 C   0  0  0  0  0  0  0  0  0  0  0  0
   -0.4875   -2.3966   -1.9216 C   0  0  0  0  0  0  0  0  0  0  0  0
   -0.5936   -3.5158   -2.7363 C   0  0  0  0  0  0  0  0  0  0  0  0
   -0.9779   -4.7315   -2.2063 C   0  0  0  0  0  0  0  0  0  0  0  0
   -1.2567   -4.8644   -0.8527 C   0  0  0  0  0  0  0  0  0  0  0  0
   -1.6990   -6.1835   -0.2862 C   0  0  0  0  0  0  0  0  0  0  0  0
   -3.2191   -6.3270   -0.3836 C   0  0  0  0  0  0  0  0  0  0  0  0
   -1.1526   -3.7414   -0.0449 C   0  0  0  0  0  0  0  0  0  0  0  0
   -0.7647   -2.5219   -0.5682 C   0  0  0  0  0  0  0  0  0  0  0  0
   -0.4108   -0.8294   -3.9065 C   0  0  0  0  0  0  0  0  0  0  0  0
   -1.7375   -1.0535   -4.2525 C   0  0  0  0  0  0  0  0  0  0  0  0
   -2.1873   -0.7695   -5.5278 C   0  0  0  0  0  0  0  0  0  0  0  0
   -1.3292   -0.2499   -6.4886 C   0  0  0  0  0  0  0  0  0  0  0  0
   -1.8073    0.0113   -7.8878 C   0  0  0  0  0  0  0  0  0  0  0  0
   -1.6040   -1.2277   -8.7623 C   0  0  0  0  0  0  0  0  0  0  0  0
   -0.0060   -0.0221   -6.1358 C   0  0  0  0  0  0  0  0  0  0  0  0
    0.4480   -0.3017   -4.8600 C   0  0  0  0  0  0  0  0  0  0  0  0
   -0.2316    0.1186   -1.6341 C   0  0  0  0  0  0  0  0  0  0  0  0
    0.9608    0.6596   -1.0961 C   0  0  0  0  0  0  0  0  0  0  0  0
    2.0320   -0.1821   -1.5338 C   0  0  0  0  0  0  0  0  0  0  0  0
    3.7137   -0.3030   -1.2279 S   0  0  0  0  0  0  0  0  0  0  0  0
    0.9594    1.7652   -0.2518 C   0  0  0  0  0  0  0  0  0  0  0  0
   -0.2633    2.3074    0.0711 C   0  0  0  0  0  0  0  0  0  0  0  0
   -0.5620    3.4570    1.0183 C   0  0  0  0  0  0  0  0  0  0  0  0
   -0.1629    4.8148    0.4611 C   0  0  0  0  0  0  0  0  0  0  0  0
   -0.0654    5.9036    1.3185 C   0  0  0  0  0  0  0  0  0  0  0  0
    0.2292    7.1589    0.8228 C   0  0  0  0  0  0  0  0  0  0  0  0
    0.4286    7.3622   -0.5373 C   0  0  0  0  0  0  0  0  0  0  0  0
    0.6934    8.7394   -1.0740 C   0  0  0  0  0  0  0  0  0  0  0  0
   -0.6233    9.4851   -1.3019 C   0  0  0  0  0  0  0  0  0  0  0  0
    0.3232    6.2712   -1.3886 C   0  0  0  0  0  0  0  0  0  0  0  0
    0.0281    5.0111   -0.8990 C   0  0  0  0  0  0  0  0  0  0  0  0
    0.0920    3.1761    2.3570 C   0  0  0  0  0  0  0  0  0  0  0  0
   -0.6049    2.5592    3.3856 C   0  0  0  0  0  0  0  0  0  0  0  0
    0.0261    2.2743    4.5824 C   0  0  0  0  0  0  0  0  0  0  0  0
    1.3655    2.5816    4.7784 C   0  0  0  0  0  0  0  0  0  0  0  0
    2.0290    2.3101    6.0979 C   0  0  0  0  0  0  0  0  0  0  0  0
    1.7906    3.4732    7.0629 C   0  0  0  0  0  0  0  0  0  0  0  0
    2.0597    3.1928    3.7424 C   0  0  0  0  0  0  0  0  0  0  0  0
    1.4338    3.4855    2.5456 C   0  0  0  0  0  0  0  0  0  0  0  0
   -2.0698    3.4191    1.0354 C   0  0  0  0  0  0  0  0  0  0  0  0
   -3.0883    4.1268    1.6949 C   0  0  0  0  0  0  0  0  0  0  0  0
   -2.7927    5.1931    2.4315 O   0  0  0  0  0  0  0  0  0  0  0  0
   -3.7595    6.1793    2.7292 C   0  0  0  0  0  0  0  0  0  0  0  0
   -3.0312    7.5079    2.8658 C   0  0  0  0  0  0  0  0  0  0  0  0
   -4.3621    3.6316    1.3388 C   0  0  0  0  0  0  0  0  0  0  0  0
   -4.2486    2.4291    0.0461 S   0  0  0  0  0  0  0  0  0  0  0  0
   -2.5397    2.4708    0.1475 C   0  0  0  0  0  0  0  0  0  0  0  0
   -1.4567    1.7550   -0.4519 C   0  0  0  0  0  0  0  0  0  0  0  0
   -1.4528    0.6709   -1.3256 C   0  0  0  0  0  0  0  0  0  0  0  0
   -5.6208    3.8341    1.9197 C   0  0  0  0  0  0  0  0  0  0  0  0
   -5.8391    4.0218    3.2672 C   0  0  0  0  0  0  0  0  0  0  0  0
   -4.8702    3.6210    4.2958 C   0  0  0  0  0  0  0  0  0  0  0  0
   -3.7128    3.2914    4.1463 O   0  0  0  0  0  0  0  0  0  0  0  0
   -5.6501    3.5672    5.5575 C   0  0  0  0  0  0  0  0  0  0  0  0
   -5.2280    3.1439    6.8041 C   0  0  0  0  0  0  0  0  0  0  0  0
   -3.5980    2.7358    7.0988 Cl  0  0  0  0  0  0  0  0  0  0  0  0
   -6.1783    3.0537    7.8311 C   0  0  0  0  0  0  0  0  0  0  0  0
   -5.6977    2.5663    9.3985 Cl  0  0  0  0  0  0  0  0  0  0  0  0
   -7.5190    3.3235    7.5655 C   0  0  0  0  0  0  0  0  0  0  0  0
   -8.6755    3.1181    8.8095 Cl  0  0  0  0  0  0  0  0  0  0  0  0
   -7.9427    3.7461    6.2939 C   0  0  0  0  0  0  0  0  0  0  0  0
   -9.6262    3.9054    6.0065 Cl  0  0  0  0  0  0  0  0  0  0  0  0
   -6.9895    3.9280    5.3013 C   0  0  0  0  0  0  0  0  0  0  0  0
   -7.0803    4.3756    3.9124 C   0  0  0  0  0  0  0  0  0  0  0  0
   -8.0161    5.1931    3.3318 C   0  0  0  0  0  0  0  0  0  0  0  0
   -9.0986    5.8465    3.9542 C   0  0  0  0  0  0  0  0  0  0  0  0
   -9.9545    6.4921    4.3644 N   0  0  0  0  0  0  0  0  0  0  0  0
   -7.8721    5.6459    2.0004 C   0  0  0  0  0  0  0  0  0  0  0  0
   -7.7861    6.0659    0.9355 N   0  0  0  0  0  0  0  0  0  0  0  0
    5.8413   -2.1429   -1.7367 H   0  0  0  0  0  0  0  0  0  0  0  0
    2.2214   -6.7074    0.2641 H   0  0  0  0  0  0  0  0  0  0  0  0
    7.2383   -7.2276   -0.2330 H   0  0  0  0  0  0  0  0  0  0  0  0
    5.8201  -10.1743    0.8535 H   0  0  0  0  0  0  0  0  0  0  0  0
    6.9572   -9.5512    2.9786 H   0  0  0  0  0  0  0  0  0  0  0  0
    6.4012   -7.0336    3.4140 H   0  0  0  0  0  0  0  0  0  0  0  0
    3.7698   -6.7968    3.6825 H   0  0  0  0  0  0  0  0  0  0  0  0
    2.7031   -9.1703    3.4151 H   0  0  0  0  0  0  0  0  0  0  0  0
    4.6843  -10.9786    3.1895 H   0  0  0  0  0  0  0  0  0  0  0  0
    4.9236   -9.9534    4.6266 H   0  0  0  0  0  0  0  0  0  0  0  0
    3.2624   -9.9445    1.1144 H   0  0  0  0  0  0  0  0  0  0  0  0
    2.6156   -4.4428   -4.9811 H   0  0  0  0  0  0  0  0  0  0  0  0
    3.7551   -4.4676   -3.6179 H   0  0  0  0  0  0  0  0  0  0  0  0
    4.7816   -3.6177   -5.7546 H   0  0  0  0  0  0  0  0  0  0  0  0
    4.8638   -2.4126   -4.4745 H   0  0  0  0  0  0  0  0  0  0  0  0
    3.6393   -2.2671   -5.7445 H   0  0  0  0  0  0  0  0  0  0  0  0
   -0.3610   -3.4362   -3.7871 H   0  0  0  0  0  0  0  0  0  0  0  0
   -1.0467   -5.5958   -2.8520 H   0  0  0  0  0  0  0  0  0  0  0  0
   -1.3978   -6.2564    0.7610 H   0  0  0  0  0  0  0  0  0  0  0  0
   -1.2252   -6.9992   -0.8366 H   0  0  0  0  0  0  0  0  0  0  0  0
   -3.5382   -6.2686   -1.4219 H   0  0  0  0  0  0  0  0  0  0  0  0
   -3.5403   -7.2823    0.0255 H   0  0  0  0  0  0  0  0  0  0  0  0
   -3.7096   -5.5292    0.1697 H   0  0  0  0  0  0  0  0  0  0  0  0
   -1.3607   -3.8224    1.0129 H   0  0  0  0  0  0  0  0  0  0  0  0
   -0.6686   -1.6676    0.0867 H   0  0  0  0  0  0  0  0  0  0  0  0
   -2.4182   -1.4671   -3.5227 H   0  0  0  0  0  0  0  0  0  0  0  0
   -3.2220   -0.9524   -5.7812 H   0  0  0  0  0  0  0  0  0  0  0  0
   -1.2547    0.8492   -8.3178 H   0  0  0  0  0  0  0  0  0  0  0  0
   -2.8675    0.2720   -7.8744 H   0  0  0  0  0  0  0  0  0  0  0  0
   -1.9494   -1.0395   -9.7761 H   0  0  0  0  0  0  0  0  0  0  0  0
   -2.1582   -2.0714   -8.3571 H   0  0  0  0  0  0  0  0  0  0  0  0
   -0.5506   -1.4965   -8.7983 H   0  0  0  0  0  0  0  0  0  0  0  0
    0.6779    0.3842   -6.8678 H   0  0  0  0  0  0  0  0  0  0  0  0
    1.4801   -0.1076   -4.6059 H   0  0  0  0  0  0  0  0  0  0  0  0
    1.8825    2.1549    0.1471 H   0  0  0  0  0  0  0  0  0  0  0  0
   -0.2235    5.7625    2.3764 H   0  0  0  0  0  0  0  0  0  0  0  0
    0.3074    7.9958    1.5026 H   0  0  0  0  0  0  0  0  0  0  0  0
    1.3063    9.3015   -0.3662 H   0  0  0  0  0  0  0  0  0  0  0  0
    1.2365    8.6716   -2.0184 H   0  0  0  0  0  0  0  0  0  0  0  0
   -1.1703    9.5843   -0.3667 H   0  0  0  0  0  0  0  0  0  0  0  0
   -0.4343   10.4794   -1.6994 H   0  0  0  0  0  0  0  0  0  0  0  0
   -1.2482    8.9417   -2.0073 H   0  0  0  0  0  0  0  0  0  0  0  0
    0.4729    6.4061   -2.4504 H   0  0  0  0  0  0  0  0  0  0  0  0
   -0.0518    4.1785   -1.5831 H   0  0  0  0  0  0  0  0  0  0  0  0
   -1.6489    2.3166    3.2686 H   0  0  0  0  0  0  0  0  0  0  0  0
   -0.5357    1.8038    5.3764 H   0  0  0  0  0  0  0  0  0  0  0  0
    3.1028    2.1747    5.9536 H   0  0  0  0  0  0  0  0  0  0  0  0
    1.6242    1.3940    6.5334 H   0  0  0  0  0  0  0  0  0  0  0  0
    2.2636    3.2767    8.0224 H   0  0  0  0  0  0  0  0  0  0  0  0
    2.2023    4.3934    6.6541 H   0  0  0  0  0  0  0  0  0  0  0  0
    0.7245    3.6174    7.2231 H   0  0  0  0  0  0  0  0  0  0  0  0
    3.1032    3.4431    3.8730 H   0  0  0  0  0  0  0  0  0  0  0  0
    1.9888    3.9750    1.7578 H   0  0  0  0  0  0  0  0  0  0  0  0
   -4.2732    5.9318    3.6690 H   0  0  0  0  0  0  0  0  0  0  0  0
   -4.5114    6.2276    1.9309 H   0  0  0  0  0  0  0  0  0  0  0  0
   -2.5219    7.7482    1.9362 H   0  0  0  0  0  0  0  0  0  0  0  0
   -2.2937    7.4451    3.6609 H   0  0  0  0  0  0  0  0  0  0  0  0
   -3.7440    8.2932    3.0996 H   0  0  0  0  0  0  0  0  0  0  0  0
   -2.3770    0.2697   -1.7110 H   0  0  0  0  0  0  0  0  0  0  0  0
   -6.4787    3.6790    1.2756 H   0  0  0  0  0  0  0  0  0  0  0  0
  1  2  2  0  0  0  0
  2  3  1  0  0  0  0
  3  4  2  0  0  0  0
  3  5  1  0  0  0  0
  5  6  2  0  0  0  0
  6  7  1  0  0  0  0
  7  8  2  0  0  0  0
  8  9  1  0  0  0  0
  9 10  2  0  0  0  0
 10 11  1  0  0  0  0
 11 12  2  0  0  0  0
 12 13  1  0  0  0  0
 13 14  3  0  0  0  0
 12 15  1  0  0  0  0
 15 16  3  0  0  0  0
  8 17  1  0  0  0  0
 17 18  1  0  0  0  0
 18 19  1  0  0  0  0
 19 20  2  0  0  0  0
 20 21  1  0  0  0  0
 21 22  1  0  0  0  0
 21 23  1  0  0  0  0
  1 24  1  0  0  0  0
 24 25  2  0  0  0  0
 25 26  1  0  0  0  0
 26 27  1  0  0  0  0
 27 28  1  0  0  0  0
 25 29  1  0  0  0  0
 29 30  1  0  0  0  0
 30 31  1  0  0  0  0
 31 32  2  0  0  0  0
 32 33  1  0  0  0  0
 33 34  2  0  0  0  0
 34 35  1  0  0  0  0
 35 36  1  0  0  0  0
 34 37  1  0  0  0  0
 37 38  2  0  0  0  0
 30 39  1  0  0  0  0
 39 40  2  0  0  0  0
 40 41  1  0  0  0  0
 41 42  2  0  0  0  0
 42 43  1  0  0  0  0
 43 44  1  0  0  0  0
 42 45  1  0  0  0  0
 45 46  2  0  0  0  0
 30 47  1  0  0  0  0
 47 48  2  0  0  0  0
 48 49  1  0  0  0  0
 49 50  1  0  0  0  0
 48 51  1  0  0  0  0
 51 52  2  0  0  0  0
 52 53  1  0  0  0  0
 53 54  1  0  0  0  0
 54 55  2  0  0  0  0
 55 56  1  0  0  0  0
 56 57  2  0  0  0  0
 57 58  1  0  0  0  0
 58 59  1  0  0  0  0
 57 60  1  0  0  0  0
 60 61  2  0  0  0  0
 53 62  1  0  0  0  0
 62 63  2  0  0  0  0
 63 64  1  0  0  0  0
 64 65  2  0  0  0  0
 65 66  1  0  0  0  0
 66 67  1  0  0  0  0
 65 68  1  0  0  0  0
 68 69  2  0  0  0  0
 53 70  1  0  0  0  0
 70 71  1  0  0  0  0
 71 72  1  0  0  0  0
 72 73  1  0  0  0  0
 73 74  1  0  0  0  0
 71 75  2  0  0  0  0
 75 76  1  0  0  0  0
 76 77  1  0  0  0  0
 77 78  1  0  0  0  0
 78 79  2  0  0  0  0
 75 80  1  0  0  0  0
 80 81  2  0  0  0  0
 81 82  1  0  0  0  0
 82 83  2  0  0  0  0
 82 84  1  0  0  0  0
 84 85  2  0  0  0  0
 85 86  1  0  0  0  0
 85 87  1  0  0  0  0
 87 88  1  0  0  0  0
 87 89  2  0  0  0  0
 89 90  1  0  0  0  0
 89 91  1  0  0  0  0
 91 92  1  0  0  0  0
 91 93  2  0  0  0  0
 93 94  1  0  0  0  0
 94 95  2  0  0  0  0
 95 96  1  0  0  0  0
 96 97  3  0  0  0  0
 95 98  1  0  0  0  0
 98 99  3  0  0  0  0
 11  2  1  0  0  0  0
 23 17  1  0  0  0  0
 50 24  1  0  0  0  0
 78 52  1  0  0  0  0
 94 81  1  0  0  0  0
 10  5  1  0  0  0  0
 22 18  1  0  0  0  0
 49 29  2  0  0  0  0
 61 54  1  0  0  0  0
 69 62  1  0  0  0  0
 77 70  2  0  0  0  0
 93 84  1  0  0  0  0
 23  7  1  0  0  0  0
 38 31  1  0  0  0  0
 46 39  1  0  0  0  0
 79 47  1  0  0  0  0
  1100  1  0  0  0  0
  6101  1  0  0  0  0
  9102  1  0  0  0  0
 17103  1  0  0  0  0
 18104  1  0  0  0  0
 19105  1  0  0  0  0
 20106  1  0  0  0  0
 21107  1  0  0  0  0
 22108  1  0  0  0  0
 22109  1  0  0  0  0
 23110  1  0  0  0  0
 27111  1  0  0  0  0
 27112  1  0  0  0  0
 28113  1  0  0  0  0
 28114  1  0  0  0  0
 28115  1  0  0  0  0
 32116  1  0  0  0  0
 33117  1  0  0  0  0
 35118  1  0  0  0  0
 35119  1  0  0  0  0
 36120  1  0  0  0  0
 36121  1  0  0  0  0
 36122  1  0  0  0  0
 37123  1  0  0  0  0
 38124  1  0  0  0  0
 40125  1  0  0  0  0
 41126  1  0  0  0  0
 43127  1  0  0  0  0
 43128  1  0  0  0  0
 44129  1  0  0  0  0
 44130  1  0  0  0  0
 44131  1  0  0  0  0
 45132  1  0  0  0  0
 46133  1  0  0  0  0
 51134  1  0  0  0  0
 55135  1  0  0  0  0
 56136  1  0  0  0  0
 58137  1  0  0  0  0
 58138  1  0  0  0  0
 59139  1  0  0  0  0
 59140  1  0  0  0  0
 59141  1  0  0  0  0
 60142  1  0  0  0  0
 61143  1  0  0  0  0
 63144  1  0  0  0  0
 64145  1  0  0  0  0
 66146  1  0  0  0  0
 66147  1  0  0  0  0
 67148  1  0  0  0  0
 67149  1  0  0  0  0
 67150  1  0  0  0  0
 68151  1  0  0  0  0
 69152  1  0  0  0  0
 73153  1  0  0  0  0
 73154  1  0  0  0  0
 74155  1  0  0  0  0
 74156  1  0  0  0  0
 74157  1  0  0  0  0
 79158  1  0  0  0  0
 80159  1  0  0  0  0
M  END
