
  xtb     02102221433D
 energy: -257.214193582305 gnorm: 0.000241689020 xtb: 6.4.1 (unknown)
159174  0     0  0            999 V2000
   -2.3002    1.8148    4.9076 C   0  0  0  0  0  0  0  0  0  0  0  0
   -1.6296    2.8779    5.4424 C   0  0  0  0  0  0  0  0  0  0  0  0
   -0.3001    3.3403    4.9640 C   0  0  0  0  0  0  0  0  0  0  0  0
    0.3251    2.9557    4.0004 O   0  0  0  0  0  0  0  0  0  0  0  0
    0.1916    4.2579    6.0125 C   0  0  0  0  0  0  0  0  0  0  0  0
    1.4203    4.9131    6.0332 C   0  0  0  0  0  0  0  0  0  0  0  0
    1.6321    5.6722    7.1587 C   0  0  0  0  0  0  0  0  0  0  0  0
    0.6966    5.7653    8.1979 C   0  0  0  0  0  0  0  0  0  0  0  0
   -0.5209    5.1271    8.1898 C   0  0  0  0  0  0  0  0  0  0  0  0
   -0.7588    4.3557    7.0486 C   0  0  0  0  0  0  0  0  0  0  0  0
   -1.9193    3.5476    6.6890 C   0  0  0  0  0  0  0  0  0  0  0  0
   -3.1213    3.5108    7.3492 C   0  0  0  0  0  0  0  0  0  0  0  0
   -4.2548    2.8215    6.8711 C   0  0  0  0  0  0  0  0  0  0  0  0
   -5.2217    2.3125    6.5171 N   0  0  0  0  0  0  0  0  0  0  0  0
   -3.3952    4.1926    8.5510 C   0  0  0  0  0  0  0  0  0  0  0  0
   -3.6767    4.7170    9.5333 N   0  0  0  0  0  0  0  0  0  0  0  0
    1.5829    6.6654    9.0219 C   0  0  0  0  0  0  0  0  0  0  0  0
    2.3448    6.0334   10.2134 C   0  0  0  0  0  0  0  0  0  0  0  0
    2.5341    4.5747    9.8791 C   0  0  0  0  0  0  0  0  0  0  0  0
    3.4171    4.4961    8.8927 C   0  0  0  0  0  0  0  0  0  0  0  0
    3.8405    5.9010    8.5417 C   0  0  0  0  0  0  0  0  0  0  0  0
    3.7594    6.5622    9.9268 C   0  0  0  0  0  0  0  0  0  0  0  0
    2.6212    6.5695    7.8600 C   0  0  0  0  0  0  0  0  0  0  0  0
   -2.0860    1.3596    3.5892 C   0  0  0  0  0  0  0  0  0  0  0  0
   -1.8182    2.1555    2.4647 C   0  0  0  0  0  0  0  0  0  0  0  0
   -1.8062    3.4983    2.5819 O   0  0  0  0  0  0  0  0  0  0  0  0
   -2.6368    4.2378    1.6975 C   0  0  0  0  0  0  0  0  0  0  0  0
   -4.1013    4.1490    2.1132 C   0  0  0  0  0  0  0  0  0  0  0  0
   -1.6132    1.3689    1.3184 C   0  0  0  0  0  0  0  0  0  0  0  0
   -1.0595    1.5839   -0.0750 C   0  0  0  0  0  0  0  0  0  0  0  0
   -2.0322    2.1790   -1.0725 C   0  0  0  0  0  0  0  0  0  0  0  0
   -1.5749    2.7565   -2.2507 C   0  0  0  0  0  0  0  0  0  0  0  0
   -2.4693    3.2470   -3.1834 C   0  0  0  0  0  0  0  0  0  0  0  0
   -3.8400    3.1655   -2.9738 C   0  0  0  0  0  0  0  0  0  0  0  0
   -4.8066    3.6651   -4.0080 C   0  0  0  0  0  0  0  0  0  0  0  0
   -5.1211    2.5623   -5.0210 C   0  0  0  0  0  0  0  0  0  0  0  0
   -4.2931    2.5596   -1.8096 C   0  0  0  0  0  0  0  0  0  0  0  0
   -3.4030    2.0660   -0.8743 C   0  0  0  0  0  0  0  0  0  0  0  0
    0.2366    2.3554    0.1103 C   0  0  0  0  0  0  0  0  0  0  0  0
    1.3646    1.6814    0.5620 C   0  0  0  0  0  0  0  0  0  0  0  0
    2.5214    2.3709    0.8657 C   0  0  0  0  0  0  0  0  0  0  0  0
    2.5833    3.7516    0.7356 C   0  0  0  0  0  0  0  0  0  0  0  0
    3.8100    4.5090    1.1533 C   0  0  0  0  0  0  0  0  0  0  0  0
    3.6990    4.8936    2.6300 C   0  0  0  0  0  0  0  0  0  0  0  0
    1.4572    4.4199    0.2780 C   0  0  0  0  0  0  0  0  0  0  0  0
    0.2965    3.7346   -0.0280 C   0  0  0  0  0  0  0  0  0  0  0  0
   -0.8379    0.1460   -0.5233 C   0  0  0  0  0  0  0  0  0  0  0  0
   -1.2860   -0.7656    0.4605 C   0  0  0  0  0  0  0  0  0  0  0  0
   -1.7175    0.0118    1.5794 C   0  0  0  0  0  0  0  0  0  0  0  0
   -2.1464   -0.3430    3.1996 S   0  0  0  0  0  0  0  0  0  0  0  0
   -1.2056   -2.1436    0.2814 C   0  0  0  0  0  0  0  0  0  0  0  0
   -0.6482   -2.5898   -0.8945 C   0  0  0  0  0  0  0  0  0  0  0  0
   -0.3956   -4.0248   -1.3230 C   0  0  0  0  0  0  0  0  0  0  0  0
    0.4174   -4.7158   -0.2461 C   0  0  0  0  0  0  0  0  0  0  0  0
   -0.2144   -5.4016    0.7834 C   0  0  0  0  0  0  0  0  0  0  0  0
    0.5250   -5.9982    1.7868 C   0  0  0  0  0  0  0  0  0  0  0  0
    1.9118   -5.9227    1.7947 C   0  0  0  0  0  0  0  0  0  0  0  0
    2.7078   -6.5389    2.9085 C   0  0  0  0  0  0  0  0  0  0  0  0
    2.8540   -5.5518    4.0685 C   0  0  0  0  0  0  0  0  0  0  0  0
    2.5378   -5.2170    0.7762 C   0  0  0  0  0  0  0  0  0  0  0  0
    1.8018   -4.6161   -0.2289 C   0  0  0  0  0  0  0  0  0  0  0  0
   -1.6696   -4.7815   -1.6623 C   0  0  0  0  0  0  0  0  0  0  0  0
   -2.8796   -4.1278   -1.8439 C   0  0  0  0  0  0  0  0  0  0  0  0
   -4.0138   -4.8405   -2.1911 C   0  0  0  0  0  0  0  0  0  0  0  0
   -3.9675   -6.2155   -2.3714 C   0  0  0  0  0  0  0  0  0  0  0  0
   -5.1899   -6.9796   -2.7917 C   0  0  0  0  0  0  0  0  0  0  0  0
   -5.2720   -7.0563   -4.3176 C   0  0  0  0  0  0  0  0  0  0  0  0
   -2.7486   -6.8613   -2.2045 C   0  0  0  0  0  0  0  0  0  0  0  0
   -1.6132   -6.1563   -1.8567 C   0  0  0  0  0  0  0  0  0  0  0  0
    0.3663   -3.7992   -2.6055 C   0  0  0  0  0  0  0  0  0  0  0  0
    1.0384   -4.6020   -3.5225 C   0  0  0  0  0  0  0  0  0  0  0  0
    1.0934   -5.9287   -3.3510 O   0  0  0  0  0  0  0  0  0  0  0  0
    2.2789   -6.6798   -3.6062 C   0  0  0  0  0  0  0  0  0  0  0  0
    2.5121   -7.5968   -2.4125 C   0  0  0  0  0  0  0  0  0  0  0  0
    1.5951   -3.8284   -4.5843 C   0  0  0  0  0  0  0  0  0  0  0  0
    1.3252   -2.1016   -4.3257 S   0  0  0  0  0  0  0  0  0  0  0  0
    0.4370   -2.4461   -2.9077 C   0  0  0  0  0  0  0  0  0  0  0  0
   -0.1685   -1.6779   -1.8642 C   0  0  0  0  0  0  0  0  0  0  0  0
   -0.2763   -0.2992   -1.6962 C   0  0  0  0  0  0  0  0  0  0  0  0
    2.1659   -4.3820   -5.7276 C   0  0  0  0  0  0  0  0  0  0  0  0
    2.7484   -3.7871   -6.8296 C   0  0  0  0  0  0  0  0  0  0  0  0
    2.9902   -2.3566   -7.0142 C   0  0  0  0  0  0  0  0  0  0  0  0
    2.6995   -1.4396   -6.2681 O   0  0  0  0  0  0  0  0  0  0  0  0
    3.6905   -2.2262   -8.3114 C   0  0  0  0  0  0  0  0  0  0  0  0
    4.1427   -1.0788   -8.9285 C   0  0  0  0  0  0  0  0  0  0  0  0
    4.7805   -1.2013  -10.1576 C   0  0  0  0  0  0  0  0  0  0  0  0
    5.3703    0.1882  -10.9831 Cl  0  0  0  0  0  0  0  0  0  0  0  0
    4.9406   -2.4680  -10.7211 C   0  0  0  0  0  0  0  0  0  0  0  0
    5.5563   -2.5801  -11.9051 F   0  0  0  0  0  0  0  0  0  0  0  0
    4.4879   -3.6248  -10.1041 C   0  0  0  0  0  0  0  0  0  0  0  0
    3.8533   -3.5004   -8.8788 C   0  0  0  0  0  0  0  0  0  0  0  0
    3.2723   -4.4953   -7.9755 C   0  0  0  0  0  0  0  0  0  0  0  0
    3.2563   -5.8481   -8.2149 C   0  0  0  0  0  0  0  0  0  0  0  0
    3.8088   -6.4547   -9.3623 C   0  0  0  0  0  0  0  0  0  0  0  0
    4.2386   -7.0166  -10.2665 N   0  0  0  0  0  0  0  0  0  0  0  0
    2.7041   -6.8319   -7.3733 C   0  0  0  0  0  0  0  0  0  0  0  0
    2.2844   -7.6998   -6.7457 N   0  0  0  0  0  0  0  0  0  0  0  0
   -3.0047    1.2572    5.5128 H   0  0  0  0  0  0  0  0  0  0  0  0
    2.1168    4.8092    5.2163 H   0  0  0  0  0  0  0  0  0  0  0  0
   -1.2306    5.2012    8.9972 H   0  0  0  0  0  0  0  0  0  0  0  0
    1.1763    7.6452    9.2644 H   0  0  0  0  0  0  0  0  0  0  0  0
    1.9168    6.2503   11.1884 H   0  0  0  0  0  0  0  0  0  0  0  0
    1.9809    3.7779   10.3409 H   0  0  0  0  0  0  0  0  0  0  0  0
    3.7485    3.6210    8.3650 H   0  0  0  0  0  0  0  0  0  0  0  0
    4.7744    5.9986    7.9941 H   0  0  0  0  0  0  0  0  0  0  0  0
    3.8177    7.6493    9.8929 H   0  0  0  0  0  0  0  0  0  0  0  0
    4.5027    6.1755   10.6223 H   0  0  0  0  0  0  0  0  0  0  0  0
    2.8876    7.4870    7.3388 H   0  0  0  0  0  0  0  0  0  0  0  0
   -2.2760    5.2658    1.7768 H   0  0  0  0  0  0  0  0  0  0  0  0
   -2.5217    3.8914    0.6666 H   0  0  0  0  0  0  0  0  0  0  0  0
   -4.2243    4.4809    3.1413 H   0  0  0  0  0  0  0  0  0  0  0  0
   -4.7051    4.7746    1.4620 H   0  0  0  0  0  0  0  0  0  0  0  0
   -4.4554    3.1228    2.0396 H   0  0  0  0  0  0  0  0  0  0  0  0
   -0.5137    2.8310   -2.4361 H   0  0  0  0  0  0  0  0  0  0  0  0
   -2.0955    3.7010   -4.0899 H   0  0  0  0  0  0  0  0  0  0  0  0
   -5.7323    3.9857   -3.5260 H   0  0  0  0  0  0  0  0  0  0  0  0
   -4.3786    4.5224   -4.5314 H   0  0  0  0  0  0  0  0  0  0  0  0
   -5.8213    2.9231   -5.7705 H   0  0  0  0  0  0  0  0  0  0  0  0
   -5.5602    1.7024   -4.5200 H   0  0  0  0  0  0  0  0  0  0  0  0
   -4.2118    2.2377   -5.5218 H   0  0  0  0  0  0  0  0  0  0  0  0
   -5.3553    2.4717   -1.6314 H   0  0  0  0  0  0  0  0  0  0  0  0
   -3.7783    1.5880    0.0196 H   0  0  0  0  0  0  0  0  0  0  0  0
    1.3339    0.6086    0.6887 H   0  0  0  0  0  0  0  0  0  0  0  0
    3.3853    1.8286    1.2224 H   0  0  0  0  0  0  0  0  0  0  0  0
    3.9167    5.4131    0.5501 H   0  0  0  0  0  0  0  0  0  0  0  0
    4.6983    3.8914    1.0060 H   0  0  0  0  0  0  0  0  0  0  0  0
    4.5898    5.4258    2.9576 H   0  0  0  0  0  0  0  0  0  0  0  0
    3.5781    3.9991    3.2371 H   0  0  0  0  0  0  0  0  0  0  0  0
    2.8314    5.5318    2.7848 H   0  0  0  0  0  0  0  0  0  0  0  0
    1.4811    5.4951    0.1693 H   0  0  0  0  0  0  0  0  0  0  0  0
   -0.5630    4.2886   -0.3750 H   0  0  0  0  0  0  0  0  0  0  0  0
   -1.5529   -2.8234    1.0440 H   0  0  0  0  0  0  0  0  0  0  0  0
   -1.2918   -5.4791    0.7942 H   0  0  0  0  0  0  0  0  0  0  0  0
    0.0168   -6.5338    2.5759 H   0  0  0  0  0  0  0  0  0  0  0  0
    3.6992   -6.8184    2.5464 H   0  0  0  0  0  0  0  0  0  0  0  0
    2.2073   -7.4412    3.2655 H   0  0  0  0  0  0  0  0  0  0  0  0
    3.3632   -4.6499    3.7361 H   0  0  0  0  0  0  0  0  0  0  0  0
    3.4282   -5.9975    4.8773 H   0  0  0  0  0  0  0  0  0  0  0  0
    1.8756   -5.2696    4.4508 H   0  0  0  0  0  0  0  0  0  0  0  0
    3.6160   -5.1361    0.7683 H   0  0  0  0  0  0  0  0  0  0  0  0
    2.3122   -4.0642   -1.0054 H   0  0  0  0  0  0  0  0  0  0  0  0
   -2.9438   -3.0573   -1.7134 H   0  0  0  0  0  0  0  0  0  0  0  0
   -4.9498   -4.3162   -2.3224 H   0  0  0  0  0  0  0  0  0  0  0  0
   -5.1527   -7.9914   -2.3829 H   0  0  0  0  0  0  0  0  0  0  0  0
   -6.0856   -6.4877   -2.4071 H   0  0  0  0  0  0  0  0  0  0  0  0
   -4.3913   -7.5526   -4.7191 H   0  0  0  0  0  0  0  0  0  0  0  0
   -6.1549   -7.6121   -4.6243 H   0  0  0  0  0  0  0  0  0  0  0  0
   -5.3243   -6.0569   -4.7440 H   0  0  0  0  0  0  0  0  0  0  0  0
   -2.6885   -7.9306   -2.3482 H   0  0  0  0  0  0  0  0  0  0  0  0
   -0.6735   -6.6720   -1.7361 H   0  0  0  0  0  0  0  0  0  0  0  0
    3.1329   -6.0073   -3.7432 H   0  0  0  0  0  0  0  0  0  0  0  0
    2.1409   -7.2819   -4.5126 H   0  0  0  0  0  0  0  0  0  0  0  0
    2.6327   -7.0132   -1.5023 H   0  0  0  0  0  0  0  0  0  0  0  0
    1.6628   -8.2624   -2.2877 H   0  0  0  0  0  0  0  0  0  0  0  0
    3.4048   -8.1917   -2.5813 H   0  0  0  0  0  0  0  0  0  0  0  0
    0.0922    0.3775   -2.4508 H   0  0  0  0  0  0  0  0  0  0  0  0
    2.1139   -5.4611   -5.7618 H   0  0  0  0  0  0  0  0  0  0  0  0
    4.0033   -0.1144   -8.4669 H   0  0  0  0  0  0  0  0  0  0  0  0
    4.6459   -4.5703  -10.5961 H   0  0  0  0  0  0  0  0  0  0  0  0
  1  2  2  0  0  0  0
  2  3  1  0  0  0  0
  3  4  2  0  0  0  0
  3  5  1  0  0  0  0
  5  6  2  0  0  0  0
  6  7  1  0  0  0  0
  7  8  2  0  0  0  0
  8  9  1  0  0  0  0
  9 10  2  0  0  0  0
 10 11  1  0  0  0  0
 11 12  2  0  0  0  0
 12 13  1  0  0  0  0
 13 14  3  0  0  0  0
 12 15  1  0  0  0  0
 15 16  3  0  0  0  0
  8 17  1  0  0  0  0
 17 18  1  0  0  0  0
 18 19  1  0  0  0  0
 19 20  2  0  0  0  0
 20 21  1  0  0  0  0
 21 22  1  0  0  0  0
 21 23  1  0  0  0  0
  1 24  1  0  0  0  0
 24 25  2  0  0  0  0
 25 26  1  0  0  0  0
 26 27  1  0  0  0  0
 27 28  1  0  0  0  0
 25 29  1  0  0  0  0
 29 30  1  0  0  0  0
 30 31  1  0  0  0  0
 31 32  2  0  0  0  0
 32 33  1  0  0  0  0
 33 34  2  0  0  0  0
 34 35  1  0  0  0  0
 35 36  1  0  0  0  0
 34 37  1  0  0  0  0
 37 38  2  0  0  0  0
 30 39  1  0  0  0  0
 39 40  2  0  0  0  0
 40 41  1  0  0  0  0
 41 42  2  0  0  0  0
 42 43  1  0  0  0  0
 43 44  1  0  0  0  0
 42 45  1  0  0  0  0
 45 46  2  0  0  0  0
 30 47  1  0  0  0  0
 47 48  2  0  0  0  0
 48 49  1  0  0  0  0
 49 50  1  0  0  0  0
 48 51  1  0  0  0  0
 51 52  2  0  0  0  0
 52 53  1  0  0  0  0
 53 54  1  0  0  0  0
 54 55  2  0  0  0  0
 55 56  1  0  0  0  0
 56 57  2  0  0  0  0
 57 58  1  0  0  0  0
 58 59  1  0  0  0  0
 57 60  1  0  0  0  0
 60 61  2  0  0  0  0
 53 62  1  0  0  0  0
 62 63  2  0  0  0  0
 63 64  1  0  0  0  0
 64 65  2  0  0  0  0
 65 66  1  0  0  0  0
 66 67  1  0  0  0  0
 65 68  1  0  0  0  0
 68 69  2  0  0  0  0
 53 70  1  0  0  0  0
 70 71  1  0  0  0  0
 71 72  1  0  0  0  0
 72 73  1  0  0  0  0
 73 74  1  0  0  0  0
 71 75  2  0  0  0  0
 75 76  1  0  0  0  0
 76 77  1  0  0  0  0
 77 78  1  0  0  0  0
 78 79  2  0  0  0  0
 75 80  1  0  0  0  0
 80 81  2  0  0  0  0
 81 82  1  0  0  0  0
 82 83  2  0  0  0  0
 82 84  1  0  0  0  0
 84 85  2  0  0  0  0
 85 86  1  0  0  0  0
 86 87  1  0  0  0  0
 86 88  2  0  0  0  0
 88 89  1  0  0  0  0
 88 90  1  0  0  0  0
 90 91  2  0  0  0  0
 91 92  1  0  0  0  0
 92 93  2  0  0  0  0
 93 94  1  0  0  0  0
 94 95  3  0  0  0  0
 93 96  1  0  0  0  0
 96 97  3  0  0  0  0
 11  2  1  0  0  0  0
 23 17  1  0  0  0  0
 50 24  1  0  0  0  0
 78 52  1  0  0  0  0
 92 81  1  0  0  0  0
 10  5  1  0  0  0  0
 22 18  1  0  0  0  0
 49 29  2  0  0  0  0
 61 54  1  0  0  0  0
 69 62  1  0  0  0  0
 77 70  2  0  0  0  0
 91 84  1  0  0  0  0
 23  7  1  0  0  0  0
 38 31  1  0  0  0  0
 46 39  1  0  0  0  0
 79 47  1  0  0  0  0
  1 98  1  0  0  0  0
  6 99  1  0  0  0  0
  9100  1  0  0  0  0
 17101  1  0  0  0  0
 18102  1  0  0  0  0
 19103  1  0  0  0  0
 20104  1  0  0  0  0
 21105  1  0  0  0  0
 22106  1  0  0  0  0
 22107  1  0  0  0  0
 23108  1  0  0  0  0
 27109  1  0  0  0  0
 27110  1  0  0  0  0
 28111  1  0  0  0  0
 28112  1  0  0  0  0
 28113  1  0  0  0  0
 32114  1  0  0  0  0
 33115  1  0  0  0  0
 35116  1  0  0  0  0
 35117  1  0  0  0  0
 36118  1  0  0  0  0
 36119  1  0  0  0  0
 36120  1  0  0  0  0
 37121  1  0  0  0  0
 38122  1  0  0  0  0
 40123  1  0  0  0  0
 41124  1  0  0  0  0
 43125  1  0  0  0  0
 43126  1  0  0  0  0
 44127  1  0  0  0  0
 44128  1  0  0  0  0
 44129  1  0  0  0  0
 45130  1  0  0  0  0
 46131  1  0  0  0  0
 51132  1  0  0  0  0
 55133  1  0  0  0  0
 56134  1  0  0  0  0
 58135  1  0  0  0  0
 58136  1  0  0  0  0
 59137  1  0  0  0  0
 59138  1  0  0  0  0
 59139  1  0  0  0  0
 60140  1  0  0  0  0
 61141  1  0  0  0  0
 63142  1  0  0  0  0
 64143  1  0  0  0  0
 66144  1  0  0  0  0
 66145  1  0  0  0  0
 67146  1  0  0  0  0
 67147  1  0  0  0  0
 67148  1  0  0  0  0
 68149  1  0  0  0  0
 69150  1  0  0  0  0
 73151  1  0  0  0  0
 73152  1  0  0  0  0
 74153  1  0  0  0  0
 74154  1  0  0  0  0
 74155  1  0  0  0  0
 79156  1  0  0  0  0
 80157  1  0  0  0  0
 85158  1  0  0  0  0
 90159  1  0  0  0  0
M  END
