
  xtb     02022208163D
 energy: -357.104946136624 gnorm: 0.000876148957 xtb: 6.4.1 (unknown)
228254  0     0  0            999 V2000
   -6.7427    6.2364    5.6485 C   0  0  0  0  0  0  0  0  0  0  0  0
   -6.3444    7.3726    6.2925 C   0  0  0  0  0  0  0  0  0  0  0  0
   -5.0114    8.0175    6.2095 C   0  0  0  0  0  0  0  0  0  0  0  0
   -4.1309    7.8415    5.3925 O   0  0  0  0  0  0  0  0  0  0  0  0
   -4.9247    8.9002    7.3880 C   0  0  0  0  0  0  0  0  0  0  0  0
   -3.8171    9.6475    7.7849 C   0  0  0  0  0  0  0  0  0  0  0  0
   -4.0125   10.3669    8.9387 C   0  0  0  0  0  0  0  0  0  0  0  0
   -5.2208   10.3459    9.6489 C   0  0  0  0  0  0  0  0  0  0  0  0
   -6.3228    9.6194    9.2653 C   0  0  0  0  0  0  0  0  0  0  0  0
   -6.1445    8.8791    8.0922 C   0  0  0  0  0  0  0  0  0  0  0  0
   -7.0666    7.9939    7.3889 C   0  0  0  0  0  0  0  0  0  0  0  0
   -8.3999    7.8408    7.6636 C   0  0  0  0  0  0  0  0  0  0  0  0
   -9.2960    7.0651    6.8969 C   0  0  0  0  0  0  0  0  0  0  0  0
  -10.0917    6.4722    6.3191 N   0  0  0  0  0  0  0  0  0  0  0  0
   -9.0723    8.4807    8.7251 C   0  0  0  0  0  0  0  0  0  0  0  0
   -9.6777    8.9697    9.5693 N   0  0  0  0  0  0  0  0  0  0  0  0
   -4.7027   11.2791   10.7149 C   0  0  0  0  0  0  0  0  0  0  0  0
   -4.2962   10.6343   12.0570 C   0  0  0  0  0  0  0  0  0  0  0  0
   -3.4036   11.6708   12.7006 C   0  0  0  0  0  0  0  0  0  0  0  0
   -2.2604   11.6931   12.0273 C   0  0  0  0  0  0  0  0  0  0  0  0
   -2.3611   10.6719   10.9172 C   0  0  0  0  0  0  0  0  0  0  0  0
   -3.2380    9.6187   11.6068 C   0  0  0  0  0  0  0  0  0  0  0  0
   -3.3568   11.3048    9.9217 C   0  0  0  0  0  0  0  0  0  0  0  0
   -6.1019    5.5785    4.5733 C   0  0  0  0  0  0  0  0  0  0  0  0
   -5.2697    6.0686    3.5978 C   0  0  0  0  0  0  0  0  0  0  0  0
   -4.7741    5.0797    2.7263 C   0  0  0  0  0  0  0  0  0  0  0  0
   -3.8752    5.2244    1.6474 C   0  0  0  0  0  0  0  0  0  0  0  0
   -3.3155    6.5192    1.3209 C   0  0  0  0  0  0  0  0  0  0  0  0
   -2.8729    7.4894    2.1764 C   0  0  0  0  0  0  0  0  0  0  0  0
   -2.3883    8.6362    1.5162 C   0  0  0  0  0  0  0  0  0  0  0  0
   -2.4641    8.5572    0.1597 C   0  0  0  0  0  0  0  0  0  0  0  0
   -2.0665    9.5485   -0.8827 C   0  0  0  0  0  0  0  0  0  0  0  0
   -1.5905   10.8739   -0.3007 C   0  0  0  0  0  0  0  0  0  0  0  0
   -3.1307    7.0341   -0.3355 S   0  0  0  0  0  0  0  0  0  0  0  0
   -3.5370    4.0653    0.9627 C   0  0  0  0  0  0  0  0  0  0  0  0
   -2.3887    4.0371   -0.3611 S   0  0  0  0  0  0  0  0  0  0  0  0
   -2.5234    2.3220   -0.4221 C   0  0  0  0  0  0  0  0  0  0  0  0
   -1.8728    1.3153   -1.2016 C   0  0  0  0  0  0  0  0  0  0  0  0
   -0.9108    1.4248   -2.2004 C   0  0  0  0  0  0  0  0  0  0  0  0
   -0.4154    0.2518   -2.7187 C   0  0  0  0  0  0  0  0  0  0  0  0
    0.6550    0.0504   -3.7901 C   0  0  0  0  0  0  0  0  0  0  0  0
   -0.0270    0.4441   -5.0891 C   0  0  0  0  0  0  0  0  0  0  0  0
   -0.5128   -0.5209   -5.9629 C   0  0  0  0  0  0  0  0  0  0  0  0
   -1.1839   -0.1602   -7.1172 C   0  0  0  0  0  0  0  0  0  0  0  0
   -1.3973    1.1741   -7.4325 C   0  0  0  0  0  0  0  0  0  0  0  0
   -2.1515    1.5622   -8.6713 C   0  0  0  0  0  0  0  0  0  0  0  0
   -3.6536    1.6230   -8.3867 C   0  0  0  0  0  0  0  0  0  0  0  0
   -0.9443    2.1364   -6.5403 C   0  0  0  0  0  0  0  0  0  0  0  0
   -0.2802    1.7793   -5.3821 C   0  0  0  0  0  0  0  0  0  0  0  0
    1.9134    0.8120   -3.4266 C   0  0  0  0  0  0  0  0  0  0  0  0
    2.5462    1.7200   -4.2588 C   0  0  0  0  0  0  0  0  0  0  0  0
    3.6950    2.3713   -3.8420 C   0  0  0  0  0  0  0  0  0  0  0  0
    4.2480    2.1282   -2.5948 C   0  0  0  0  0  0  0  0  0  0  0  0
    5.5239    2.7904   -2.1602 C   0  0  0  0  0  0  0  0  0  0  0  0
    6.6815    1.7902   -2.1589 C   0  0  0  0  0  0  0  0  0  0  0  0
    3.6095    1.2166   -1.7617 C   0  0  0  0  0  0  0  0  0  0  0  0
    2.4608    0.5716   -2.1690 C   0  0  0  0  0  0  0  0  0  0  0  0
    0.8912   -1.4442   -3.6839 C   0  0  0  0  0  0  0  0  0  0  0  0
   -0.0449   -1.9909   -2.8372 C   0  0  0  0  0  0  0  0  0  0  0  0
   -0.8735   -0.9911   -2.2379 C   0  0  0  0  0  0  0  0  0  0  0  0
   -1.8668   -1.0997   -1.2707 C   0  0  0  0  0  0  0  0  0  0  0  0
   -2.3631    0.0729   -0.7502 C   0  0  0  0  0  0  0  0  0  0  0  0
   -3.3848    0.2685    0.3698 C   0  0  0  0  0  0  0  0  0  0  0  0
   -4.7509   -0.2151   -0.0898 C   0  0  0  0  0  0  0  0  0  0  0  0
   -5.5550   -1.0697    0.6465 C   0  0  0  0  0  0  0  0  0  0  0  0
   -6.7959   -1.4533    0.1684 C   0  0  0  0  0  0  0  0  0  0  0  0
   -7.2771   -0.9816   -1.0427 C   0  0  0  0  0  0  0  0  0  0  0  0
   -8.6579   -1.3339   -1.5140 C   0  0  0  0  0  0  0  0  0  0  0  0
   -9.6571   -0.2708   -1.0528 C   0  0  0  0  0  0  0  0  0  0  0  0
   -6.4713   -0.1200   -1.7767 C   0  0  0  0  0  0  0  0  0  0  0  0
   -5.2265    0.2524   -1.3117 C   0  0  0  0  0  0  0  0  0  0  0  0
   -2.8111   -0.4175    1.5943 C   0  0  0  0  0  0  0  0  0  0  0  0
   -2.8329   -1.8036    1.7105 C   0  0  0  0  0  0  0  0  0  0  0  0
   -2.2585   -2.4330    2.7981 C   0  0  0  0  0  0  0  0  0  0  0  0
   -1.6264   -1.7042    3.7966 C   0  0  0  0  0  0  0  0  0  0  0  0
   -0.9667   -2.3952    4.9549 C   0  0  0  0  0  0  0  0  0  0  0  0
    0.4798   -2.7536    4.6089 C   0  0  0  0  0  0  0  0  0  0  0  0
   -1.5730   -0.3245    3.6621 C   0  0  0  0  0  0  0  0  0  0  0  0
   -2.1529    0.3096    2.5780 C   0  0  0  0  0  0  0  0  0  0  0  0
   -3.3995    1.7797    0.4872 C   0  0  0  0  0  0  0  0  0  0  0  0
   -4.0230    2.7633    1.2990 C   0  0  0  0  0  0  0  0  0  0  0  0
   -4.9549    2.6389    2.3429 C   0  0  0  0  0  0  0  0  0  0  0  0
   -5.2942    3.7964    3.0264 C   0  0  0  0  0  0  0  0  0  0  0  0
   -6.3822    3.8498    4.3809 S   0  0  0  0  0  0  0  0  0  0  0  0
   -5.6331    1.4069    2.7476 C   0  0  0  0  0  0  0  0  0  0  0  0
   -5.2510    0.4545    3.6383 C   0  0  0  0  0  0  0  0  0  0  0  0
   -6.2713   -0.4827    3.9169 C   0  0  0  0  0  0  0  0  0  0  0  0
   -7.4320   -0.2334    3.2558 C   0  0  0  0  0  0  0  0  0  0  0  0
   -8.7286   -0.9621    3.3475 C   0  0  0  0  0  0  0  0  0  0  0  0
   -9.7210   -0.2040    4.2315 C   0  0  0  0  0  0  0  0  0  0  0  0
   -7.2887    1.1767    2.2590 S   0  0  0  0  0  0  0  0  0  0  0  0
    0.1392   -3.6790   -2.5515 S   0  0  0  0  0  0  0  0  0  0  0  0
    1.5864   -3.6693   -3.5405 C   0  0  0  0  0  0  0  0  0  0  0  0
    2.3822   -4.7898   -3.7187 C   0  0  0  0  0  0  0  0  0  0  0  0
    2.0506   -6.0767   -3.1428 C   0  0  0  0  0  0  0  0  0  0  0  0
    1.5777   -6.3608   -1.8907 C   0  0  0  0  0  0  0  0  0  0  0  0
    1.4011   -7.7387   -1.6642 C   0  0  0  0  0  0  0  0  0  0  0  0
    1.7153   -8.5100   -2.7423 C   0  0  0  0  0  0  0  0  0  0  0  0
    1.7388   -9.9944   -2.8575 C   0  0  0  0  0  0  0  0  0  0  0  0
    3.1749  -10.5147   -2.7467 C   0  0  0  0  0  0  0  0  0  0  0  0
    2.2446   -7.5383   -4.0688 S   0  0  0  0  0  0  0  0  0  0  0  0
    3.5567   -4.6110   -4.4825 C   0  0  0  0  0  0  0  0  0  0  0  0
    4.5775   -5.5456   -4.7271 C   0  0  0  0  0  0  0  0  0  0  0  0
    5.6013   -5.0584   -5.5025 C   0  0  0  0  0  0  0  0  0  0  0  0
    5.3100   -3.3826   -5.9717 S   0  0  0  0  0  0  0  0  0  0  0  0
    3.8251   -3.3484   -5.0697 C   0  0  0  0  0  0  0  0  0  0  0  0
    2.9910   -2.2433   -4.9430 C   0  0  0  0  0  0  0  0  0  0  0  0
    3.3227   -1.0383   -5.6924 C   0  0  0  0  0  0  0  0  0  0  0  0
    2.6274   -0.4644   -6.7133 C   0  0  0  0  0  0  0  0  0  0  0  0
    3.3237    0.5925   -7.3330 C   0  0  0  0  0  0  0  0  0  0  0  0
    4.5558    0.8189   -6.7993 C   0  0  0  0  0  0  0  0  0  0  0  0
    5.5599    1.8318   -7.2435 C   0  0  0  0  0  0  0  0  0  0  0  0
    6.7411    1.9674   -6.2927 C   0  0  0  0  0  0  0  0  0  0  0  0
    4.8778   -0.2798   -5.5016 S   0  0  0  0  0  0  0  0  0  0  0  0
    1.8568   -2.3901   -4.1208 C   0  0  0  0  0  0  0  0  0  0  0  0
    6.8062   -5.6424   -5.9501 C   0  0  0  0  0  0  0  0  0  0  0  0
    7.3683   -6.8647   -5.7059 C   0  0  0  0  0  0  0  0  0  0  0  0
    6.8887   -7.9667   -4.8379 C   0  0  0  0  0  0  0  0  0  0  0  0
    5.8070   -8.1105   -4.3029 O   0  0  0  0  0  0  0  0  0  0  0  0
    8.0071   -8.9215   -4.7402 C   0  0  0  0  0  0  0  0  0  0  0  0
    8.0425  -10.0759   -3.9610 C   0  0  0  0  0  0  0  0  0  0  0  0
    9.2260  -10.7680   -4.0419 C   0  0  0  0  0  0  0  0  0  0  0  0
   10.2946  -10.3450   -4.8442 C   0  0  0  0  0  0  0  0  0  0  0  0
   10.2677   -9.2145   -5.6251 C   0  0  0  0  0  0  0  0  0  0  0  0
    9.0718   -8.4932   -5.5551 C   0  0  0  0  0  0  0  0  0  0  0  0
    8.6715   -7.2590   -6.2253 C   0  0  0  0  0  0  0  0  0  0  0  0
    9.3927   -6.6337   -7.2086 C   0  0  0  0  0  0  0  0  0  0  0  0
   10.6467   -7.0770   -7.6806 C   0  0  0  0  0  0  0  0  0  0  0  0
   11.6678   -7.3707   -8.1162 N   0  0  0  0  0  0  0  0  0  0  0  0
    9.0047   -5.4891   -7.9388 C   0  0  0  0  0  0  0  0  0  0  0  0
    8.7825   -4.5784   -8.6029 N   0  0  0  0  0  0  0  0  0  0  0  0
   11.1681  -11.5022   -4.4291 C   0  0  0  0  0  0  0  0  0  0  0  0
   12.2865  -11.2261   -3.3938 C   0  0  0  0  0  0  0  0  0  0  0  0
   11.8308  -10.0446   -2.5741 C   0  0  0  0  0  0  0  0  0  0  0  0
   10.8196  -10.4445   -1.8146 C   0  0  0  0  0  0  0  0  0  0  0  0
   10.5733  -11.9040   -2.1072 C   0  0  0  0  0  0  0  0  0  0  0  0
   12.0091  -12.3669   -2.4017 C   0  0  0  0  0  0  0  0  0  0  0  0
    9.9778  -11.9734   -3.5355 C   0  0  0  0  0  0  0  0  0  0  0  0
   -7.6089    5.7157    6.0406 H   0  0  0  0  0  0  0  0  0  0  0  0
   -2.9052    9.6349    7.2085 H   0  0  0  0  0  0  0  0  0  0  0  0
   -7.2448    9.6108    9.8222 H   0  0  0  0  0  0  0  0  0  0  0  0
   -5.2528   12.2098   10.8393 H   0  0  0  0  0  0  0  0  0  0  0  0
   -5.1253   10.2638   12.6535 H   0  0  0  0  0  0  0  0  0  0  0  0
   -3.7064   12.2992   13.5175 H   0  0  0  0  0  0  0  0  0  0  0  0
   -1.4176   12.3438   12.1693 H   0  0  0  0  0  0  0  0  0  0  0  0
   -1.4269   10.3352   10.4757 H   0  0  0  0  0  0  0  0  0  0  0  0
   -3.6174    8.8492   10.9369 H   0  0  0  0  0  0  0  0  0  0  0  0
   -2.7324    9.1504   12.4497 H   0  0  0  0  0  0  0  0  0  0  0  0
   -3.0092   12.2532    9.5164 H   0  0  0  0  0  0  0  0  0  0  0  0
   -5.0571    7.1136    3.4899 H   0  0  0  0  0  0  0  0  0  0  0  0
   -2.8603    7.3787    3.2456 H   0  0  0  0  0  0  0  0  0  0  0  0
   -2.0002    9.4874    2.0448 H   0  0  0  0  0  0  0  0  0  0  0  0
   -1.2722    9.1138   -1.4983 H   0  0  0  0  0  0  0  0  0  0  0  0
   -2.9200    9.7251   -1.5446 H   0  0  0  0  0  0  0  0  0  0  0  0
   -0.7097   10.7268    0.3196 H   0  0  0  0  0  0  0  0  0  0  0  0
   -1.3333   11.5593   -1.1046 H   0  0  0  0  0  0  0  0  0  0  0  0
   -2.3715   11.3293    0.3033 H   0  0  0  0  0  0  0  0  0  0  0  0
   -0.5564    2.3950   -2.5108 H   0  0  0  0  0  0  0  0  0  0  0  0
   -0.3657   -1.5693   -5.7467 H   0  0  0  0  0  0  0  0  0  0  0  0
   -1.5428   -0.9308   -7.7851 H   0  0  0  0  0  0  0  0  0  0  0  0
   -1.9648    0.8325   -9.4619 H   0  0  0  0  0  0  0  0  0  0  0  0
   -1.8119    2.5394   -9.0208 H   0  0  0  0  0  0  0  0  0  0  0  0
   -4.2005    1.8989   -9.2852 H   0  0  0  0  0  0  0  0  0  0  0  0
   -3.8624    2.3578   -7.6125 H   0  0  0  0  0  0  0  0  0  0  0  0
   -4.0128    0.6551   -8.0441 H   0  0  0  0  0  0  0  0  0  0  0  0
   -1.1165    3.1824   -6.7521 H   0  0  0  0  0  0  0  0  0  0  0  0
    0.0412    2.5533   -4.7026 H   0  0  0  0  0  0  0  0  0  0  0  0
    2.1645    1.9137   -5.2488 H   0  0  0  0  0  0  0  0  0  0  0  0
    4.1664    3.0795   -4.5086 H   0  0  0  0  0  0  0  0  0  0  0  0
    5.7589    3.6178   -2.8330 H   0  0  0  0  0  0  0  0  0  0  0  0
    5.4024    3.1979   -1.1533 H   0  0  0  0  0  0  0  0  0  0  0  0
    7.6105    2.2842   -1.8835 H   0  0  0  0  0  0  0  0  0  0  0  0
    6.4914    0.9889   -1.4492 H   0  0  0  0  0  0  0  0  0  0  0  0
    6.8014    1.3453   -3.1441 H   0  0  0  0  0  0  0  0  0  0  0  0
    4.0153    1.0140   -0.7809 H   0  0  0  0  0  0  0  0  0  0  0  0
    1.9764   -0.1300   -1.5038 H   0  0  0  0  0  0  0  0  0  0  0  0
   -2.1961   -2.0711   -0.9397 H   0  0  0  0  0  0  0  0  0  0  0  0
   -5.2341   -1.4298    1.6108 H   0  0  0  0  0  0  0  0  0  0  0  0
   -7.4004   -2.1269    0.7591 H   0  0  0  0  0  0  0  0  0  0  0  0
   -8.6757   -1.3957   -2.6041 H   0  0  0  0  0  0  0  0  0  0  0  0
   -8.9514   -2.3056   -1.1113 H   0  0  0  0  0  0  0  0  0  0  0  0
  -10.6644   -0.5281   -1.3721 H   0  0  0  0  0  0  0  0  0  0  0  0
   -9.3958    0.6991   -1.4693 H   0  0  0  0  0  0  0  0  0  0  0  0
   -9.6454   -0.1843    0.0316 H   0  0  0  0  0  0  0  0  0  0  0  0
   -6.8227    0.2627   -2.7244 H   0  0  0  0  0  0  0  0  0  0  0  0
   -4.6153    0.9195   -1.9032 H   0  0  0  0  0  0  0  0  0  0  0  0
   -3.3069   -2.4042    0.9492 H   0  0  0  0  0  0  0  0  0  0  0  0
   -2.3007   -3.5108    2.8708 H   0  0  0  0  0  0  0  0  0  0  0  0
   -0.9762   -1.7427    5.8304 H   0  0  0  0  0  0  0  0  0  0  0  0
   -1.5138   -3.3074    5.2023 H   0  0  0  0  0  0  0  0  0  0  0  0
    1.0454   -1.8551    4.3725 H   0  0  0  0  0  0  0  0  0  0  0  0
    0.9588   -3.2563    5.4460 H   0  0  0  0  0  0  0  0  0  0  0  0
    0.5096   -3.4125    3.7438 H   0  0  0  0  0  0  0  0  0  0  0  0
   -1.0743    0.2670    4.4175 H   0  0  0  0  0  0  0  0  0  0  0  0
   -2.0917    1.3854    2.5082 H   0  0  0  0  0  0  0  0  0  0  0  0
   -4.2747    0.4225    4.0867 H   0  0  0  0  0  0  0  0  0  0  0  0
   -6.1405   -1.3109    4.5913 H   0  0  0  0  0  0  0  0  0  0  0  0
   -8.5481   -1.9554    3.7647 H   0  0  0  0  0  0  0  0  0  0  0  0
   -9.1581   -1.0801    2.3498 H   0  0  0  0  0  0  0  0  0  0  0  0
  -10.6622   -0.7446    4.2940 H   0  0  0  0  0  0  0  0  0  0  0  0
   -9.3187   -0.0854    5.2348 H   0  0  0  0  0  0  0  0  0  0  0  0
   -9.9119    0.7840    3.8190 H   0  0  0  0  0  0  0  0  0  0  0  0
    1.4078   -5.6118   -1.1384 H   0  0  0  0  0  0  0  0  0  0  0  0
    1.0555   -8.1448   -0.7299 H   0  0  0  0  0  0  0  0  0  0  0  0
    1.1249  -10.4269   -2.0643 H   0  0  0  0  0  0  0  0  0  0  0  0
    1.3211  -10.2967   -3.8207 H   0  0  0  0  0  0  0  0  0  0  0  0
    3.8021  -10.0513   -3.5053 H   0  0  0  0  0  0  0  0  0  0  0  0
    3.5872  -10.2745   -1.7691 H   0  0  0  0  0  0  0  0  0  0  0  0
    3.1977  -11.5935   -2.8806 H   0  0  0  0  0  0  0  0  0  0  0  0
    4.5881   -6.5452   -4.3366 H   0  0  0  0  0  0  0  0  0  0  0  0
    1.6586   -0.8019   -7.0311 H   0  0  0  0  0  0  0  0  0  0  0  0
    2.9227    1.1589   -8.1554 H   0  0  0  0  0  0  0  0  0  0  0  0
    5.9268    1.5449   -8.2349 H   0  0  0  0  0  0  0  0  0  0  0  0
    5.0580    2.7981   -7.3552 H   0  0  0  0  0  0  0  0  0  0  0  0
    6.4010    2.2666   -5.3045 H   0  0  0  0  0  0  0  0  0  0  0  0
    7.2644    1.0179   -6.2033 H   0  0  0  0  0  0  0  0  0  0  0  0
    7.4400    2.7143   -6.6619 H   0  0  0  0  0  0  0  0  0  0  0  0
    7.3876   -4.9695   -6.5698 H   0  0  0  0  0  0  0  0  0  0  0  0
    7.1949  -10.3625   -3.3579 H   0  0  0  0  0  0  0  0  0  0  0  0
   11.1003   -8.9049   -6.2338 H   0  0  0  0  0  0  0  0  0  0  0  0
   11.4977  -12.1617   -5.2294 H   0  0  0  0  0  0  0  0  0  0  0  0
   13.2857  -11.1606   -3.8159 H   0  0  0  0  0  0  0  0  0  0  0  0
   12.2400   -9.0559   -2.6696 H   0  0  0  0  0  0  0  0  0  0  0  0
   10.2150   -9.8564   -1.1492 H   0  0  0  0  0  0  0  0  0  0  0  0
   10.0133  -12.4561   -1.3569 H   0  0  0  0  0  0  0  0  0  0  0  0
   12.0620  -13.3568   -2.8529 H   0  0  0  0  0  0  0  0  0  0  0  0
   12.6527  -12.3277   -1.5241 H   0  0  0  0  0  0  0  0  0  0  0  0
    9.5302  -12.9416   -3.7517 H   0  0  0  0  0  0  0  0  0  0  0  0
  1  2  2  0  0  0  0
  2  3  1  0  0  0  0
  3  4  2  0  0  0  0
  3  5  1  0  0  0  0
  5  6  2  0  0  0  0
  6  7  1  0  0  0  0
  7  8  2  0  0  0  0
  8  9  1  0  0  0  0
  9 10  2  0  0  0  0
 10 11  1  0  0  0  0
 11 12  2  0  0  0  0
 12 13  1  0  0  0  0
 13 14  3  0  0  0  0
 12 15  1  0  0  0  0
 15 16  3  0  0  0  0
  8 17  1  0  0  0  0
 17 18  1  0  0  0  0
 18 19  1  0  0  0  0
 19 20  2  0  0  0  0
 20 21  1  0  0  0  0
 21 22  1  0  0  0  0
 21 23  1  0  0  0  0
  1 24  1  0  0  0  0
 24 25  2  0  0  0  0
 25 26  1  0  0  0  0
 26 27  2  0  0  0  0
 27 28  1  0  0  0  0
 28 29  2  0  0  0  0
 29 30  1  0  0  0  0
 30 31  2  0  0  0  0
 31 32  1  0  0  0  0
 32 33  1  0  0  0  0
 31 34  1  0  0  0  0
 27 35  1  0  0  0  0
 35 36  1  0  0  0  0
 36 37  1  0  0  0  0
 37 38  1  0  0  0  0
 38 39  2  0  0  0  0
 39 40  1  0  0  0  0
 40 41  1  0  0  0  0
 41 42  1  0  0  0  0
 42 43  2  0  0  0  0
 43 44  1  0  0  0  0
 44 45  2  0  0  0  0
 45 46  1  0  0  0  0
 46 47  1  0  0  0  0
 45 48  1  0  0  0  0
 48 49  2  0  0  0  0
 41 50  1  0  0  0  0
 50 51  2  0  0  0  0
 51 52  1  0  0  0  0
 52 53  2  0  0  0  0
 53 54  1  0  0  0  0
 54 55  1  0  0  0  0
 53 56  1  0  0  0  0
 56 57  2  0  0  0  0
 41 58  1  0  0  0  0
 58 59  2  0  0  0  0
 59 60  1  0  0  0  0
 60 61  1  0  0  0  0
 61 62  2  0  0  0  0
 62 63  1  0  0  0  0
 63 64  1  0  0  0  0
 64 65  2  0  0  0  0
 65 66  1  0  0  0  0
 66 67  2  0  0  0  0
 67 68  1  0  0  0  0
 68 69  1  0  0  0  0
 67 70  1  0  0  0  0
 70 71  2  0  0  0  0
 63 72  1  0  0  0  0
 72 73  2  0  0  0  0
 73 74  1  0  0  0  0
 74 75  2  0  0  0  0
 75 76  1  0  0  0  0
 76 77  1  0  0  0  0
 75 78  1  0  0  0  0
 78 79  2  0  0  0  0
 63 80  1  0  0  0  0
 80 81  1  0  0  0  0
 81 82  1  0  0  0  0
 82 83  2  0  0  0  0
 83 84  1  0  0  0  0
 82 85  1  0  0  0  0
 85 86  2  0  0  0  0
 86 87  1  0  0  0  0
 87 88  2  0  0  0  0
 88 89  1  0  0  0  0
 89 90  1  0  0  0  0
 88 91  1  0  0  0  0
 59 92  1  0  0  0  0
 92 93  1  0  0  0  0
 93 94  2  0  0  0  0
 94 95  1  0  0  0  0
 95 96  2  0  0  0  0
 96 97  1  0  0  0  0
 97 98  2  0  0  0  0
 98 99  1  0  0  0  0
 99100  1  0  0  0  0
 98101  1  0  0  0  0
 94102  1  0  0  0  0
102103  1  0  0  0  0
103104  2  0  0  0  0
104105  1  0  0  0  0
105106  1  0  0  0  0
106107  1  0  0  0  0
107108  1  0  0  0  0
108109  2  0  0  0  0
109110  1  0  0  0  0
110111  2  0  0  0  0
111112  1  0  0  0  0
112113  1  0  0  0  0
111114  1  0  0  0  0
107115  2  0  0  0  0
104116  1  0  0  0  0
116117  2  0  0  0  0
117118  1  0  0  0  0
118119  2  0  0  0  0
118120  1  0  0  0  0
120121  2  0  0  0  0
121122  1  0  0  0  0
122123  2  0  0  0  0
123124  1  0  0  0  0
124125  2  0  0  0  0
125126  1  0  0  0  0
126127  2  0  0  0  0
127128  1  0  0  0  0
128129  3  0  0  0  0
127130  1  0  0  0  0
130131  3  0  0  0  0
123132  1  0  0  0  0
132133  1  0  0  0  0
133134  1  0  0  0  0
134135  2  0  0  0  0
135136  1  0  0  0  0
136137  1  0  0  0  0
136138  1  0  0  0  0
 11  2  1  0  0  0  0
 23 17  1  0  0  0  0
 84 24  1  0  0  0  0
 91 85  1  0  0  0  0
115 93  1  0  0  0  0
126117  1  0  0  0  0
138132  1  0  0  0  0
 10  5  1  0  0  0  0
 22 18  1  0  0  0  0
 83 26  1  0  0  0  0
101 95  1  0  0  0  0
106102  2  0  0  0  0
114108  1  0  0  0  0
125120  1  0  0  0  0
137133  1  0  0  0  0
 23  7  1  0  0  0  0
 34 28  1  0  0  0  0
 81 35  2  0  0  0  0
138122  1  0  0  0  0
 80 37  2  0  0  0  0
 62 38  1  0  0  0  0
 71 64  1  0  0  0  0
 79 72  1  0  0  0  0
 60 40  2  0  0  0  0
 49 42  1  0  0  0  0
 57 50  1  0  0  0  0
115 58  1  0  0  0  0
  1139  1  0  0  0  0
  6140  1  0  0  0  0
  9141  1  0  0  0  0
 17142  1  0  0  0  0
 18143  1  0  0  0  0
 19144  1  0  0  0  0
 20145  1  0  0  0  0
 21146  1  0  0  0  0
 22147  1  0  0  0  0
 22148  1  0  0  0  0
 23149  1  0  0  0  0
 25150  1  0  0  0  0
 29151  1  0  0  0  0
 30152  1  0  0  0  0
 32153  1  0  0  0  0
 32154  1  0  0  0  0
 33155  1  0  0  0  0
 33156  1  0  0  0  0
 33157  1  0  0  0  0
 39158  1  0  0  0  0
 43159  1  0  0  0  0
 44160  1  0  0  0  0
 46161  1  0  0  0  0
 46162  1  0  0  0  0
 47163  1  0  0  0  0
 47164  1  0  0  0  0
 47165  1  0  0  0  0
 48166  1  0  0  0  0
 49167  1  0  0  0  0
 51168  1  0  0  0  0
 52169  1  0  0  0  0
 54170  1  0  0  0  0
 54171  1  0  0  0  0
 55172  1  0  0  0  0
 55173  1  0  0  0  0
 55174  1  0  0  0  0
 56175  1  0  0  0  0
 57176  1  0  0  0  0
 61177  1  0  0  0  0
 65178  1  0  0  0  0
 66179  1  0  0  0  0
 68180  1  0  0  0  0
 68181  1  0  0  0  0
 69182  1  0  0  0  0
 69183  1  0  0  0  0
 69184  1  0  0  0  0
 70185  1  0  0  0  0
 71186  1  0  0  0  0
 73187  1  0  0  0  0
 74188  1  0  0  0  0
 76189  1  0  0  0  0
 76190  1  0  0  0  0
 77191  1  0  0  0  0
 77192  1  0  0  0  0
 77193  1  0  0  0  0
 78194  1  0  0  0  0
 79195  1  0  0  0  0
 86196  1  0  0  0  0
 87197  1  0  0  0  0
 89198  1  0  0  0  0
 89199  1  0  0  0  0
 90200  1  0  0  0  0
 90201  1  0  0  0  0
 90202  1  0  0  0  0
 96203  1  0  0  0  0
 97204  1  0  0  0  0
 99205  1  0  0  0  0
 99206  1  0  0  0  0
100207  1  0  0  0  0
100208  1  0  0  0  0
100209  1  0  0  0  0
103210  1  0  0  0  0
109211  1  0  0  0  0
110212  1  0  0  0  0
112213  1  0  0  0  0
112214  1  0  0  0  0
113215  1  0  0  0  0
113216  1  0  0  0  0
113217  1  0  0  0  0
116218  1  0  0  0  0
121219  1  0  0  0  0
124220  1  0  0  0  0
132221  1  0  0  0  0
133222  1  0  0  0  0
134223  1  0  0  0  0
135224  1  0  0  0  0
136225  1  0  0  0  0
137226  1  0  0  0  0
137227  1  0  0  0  0
138228  1  0  0  0  0
M  END
