144

C         -4.83360       -2.01630       -2.65210
C         -4.65670       -3.16390       -3.38110
C         -3.38690       -3.87670       -3.55610
O         -2.28540       -3.53100       -3.16280
C         -3.70070       -5.10640       -4.30200
C         -2.81420       -6.11610       -4.66800
C         -3.40240       -7.15890       -5.34300
C         -4.77390       -7.19710       -5.62700
C         -5.65900       -6.20640       -5.27270
C         -5.08040       -5.13210       -4.59180
C         -5.69250       -3.91380       -4.06260
C         -7.00710       -3.55470       -4.22010
C         -7.59750       -2.36320       -3.75030
N         -8.15660       -1.41760       -3.41290
C         -7.97040       -4.32500       -4.90420
N         -8.81130       -4.89210       -5.44290
C         -4.67510       -8.53310       -6.31910
C         -4.70980       -8.54860       -7.86710
C         -4.18710       -7.20810       -8.32080
C         -2.88810       -7.16940       -8.05590
C         -2.50880       -8.48310       -7.41830
C         -3.47970       -9.42730       -8.14530
C         -3.14610       -8.48890       -6.00650
C         -3.90820       -1.25230       -1.92770
S         -2.18380       -1.52710       -1.78630
C         -2.03940       -0.15950       -0.75040
C         -0.90580        0.29480       -0.04550
C         -1.10840        1.16890        1.02260
O         -2.30880        1.64600        1.37780
C         -3.28900        1.73710        0.31760
C         -3.25990        0.48260       -0.52040
C         -4.30060       -0.13410       -1.18300
C         -4.64750        1.89220        0.97370
C         -5.67590        2.55190        0.31380
C         -6.92780        2.64130        0.89200
C         -7.18190        2.07960        2.13690
C         -8.53140        2.22110        2.77920
C         -8.60510        3.52120        3.58250
C         -6.14630        1.42610        2.79110
C         -4.89360        1.32490        2.21520
C         -2.94170        2.96310       -0.52110
C         -3.01350        2.96860       -1.90620
C         -2.68430        4.11030       -2.61470
C         -2.26960        5.26310       -1.96200
C         -1.95630        6.51280       -2.73260
C         -3.21180        7.37530       -2.87760
C         -2.20200        5.24980       -0.57420
C         -2.53680        4.11610        0.13960
C          0.08440        1.40940        1.71470
S          0.50870        2.33380        3.11320
C          2.16720        1.82820        2.94030
C          3.25080        2.03030        3.81880
S          3.24130        2.56150        5.45510
C          4.93890        2.16550        5.62560
C          5.45790        1.69320        4.42770
C          4.51970        1.62570        3.41110
C          4.73420        1.17660        1.98730
C          5.89600        0.20080        1.96920
C          5.69700       -1.09670        2.42340
C          6.76200       -1.97040        2.52060
C          8.04830       -1.57080        2.17580
C          9.19460       -2.53370        2.27360
C          9.18670       -3.50550        1.09250
C          8.23500       -0.27490        1.71470
C          7.17350        0.60690        1.61330
C          4.95560        2.36750        1.06380
C          5.38240        3.60070        1.53570
C          5.56010        4.65720        0.66110
C          5.31410        4.51020       -0.69750
C          5.45430        5.67570       -1.63340
C          4.13040        6.43570       -1.73920
C          4.88990        3.27170       -1.16270
C          4.71680        2.21040       -0.29560
O          3.56580        0.46580        1.51770
C          2.38210        1.00410        1.83420
C          1.18530        0.75260        1.15160
S          0.75620       -0.19210       -0.23200
C          5.60740        2.36810        6.84840
C          6.76040        1.77320        7.27260
C          7.55440        2.40440        8.36570
O          7.20990        3.31900        9.07690
C          8.84720        1.69420        8.34490
C         10.07740        1.75830        9.01620
C         10.92390        0.78150        8.56750
Cl        12.51380        0.49530        9.10610
S         10.23020       -0.24010        7.33130
C          8.78210        0.67680        7.40500
C          7.47950        0.60520        6.79560
C          7.00430       -0.49490        6.12200
C          5.65560       -0.71870        5.79190
N          4.56310       -0.98820        5.56340
C          7.85100       -1.57580        5.81000
N          8.53580       -2.45890        5.54650
H         -5.84280       -1.62860       -2.58410
H         -1.76610       -6.04930       -4.42120
H         -6.71150       -6.25560       -5.49560
H         -5.26140       -9.33940       -5.88270
H         -5.65810       -8.86350       -8.29400
H         -4.80780       -6.42860       -8.72220
H         -2.20600       -6.35060       -8.19150
H         -1.45270       -8.73920       -7.43790
H         -3.26030       -9.52070       -9.20780
H         -3.54250      -10.41670       -7.69420
H         -2.73320       -9.26820       -5.36870
H         -5.32350        0.19700       -1.14280
H         -5.49690        2.99630       -0.65440
H         -7.72100        3.15280        0.36600
H         -9.30750        2.22810        2.01140
H         -8.71580        1.37570        3.44470
H         -8.43380        4.37700        2.93350
H         -7.84710        3.52710        4.36250
H         -9.58280        3.62670        4.04670
H         -6.32340        0.98270        3.76050
H         -4.09840        0.81020        2.73220
H         -3.33140        2.08420       -2.43870
H         -2.74690        4.10090       -3.69340
H         -1.58120        6.25340       -3.72450
H         -1.18470        7.08470       -2.21320
H         -3.59590        7.65150       -1.89810
H         -3.98800        6.82690       -3.40650
H         -2.98800        8.28340       -3.43240
H         -1.88410        6.13760       -0.04660
H         -2.48280        4.11420        1.21840
H          6.49760        1.45340        4.29190
H          4.70580       -1.41380        2.70910
H          6.59720       -2.97280        2.88720
H         10.13790       -1.98460        2.28340
H          9.11650       -3.09350        3.20740
H         10.01980       -4.20000        1.16860
H          8.26050       -4.07460        1.07440
H          9.27180       -2.96140        0.15390
H          9.22610        0.05540        1.43760
H          7.34230        1.61450        1.26200
H          5.58340        3.73980        2.58810
H          5.89510        5.61110        1.04270
H          5.74620        5.32210       -2.62410
H          6.22950        6.35260       -1.26910
H          3.82750        6.80540       -0.76210
H          4.23090        7.28150       -2.41520
H          3.34680        5.78110       -2.11450
H          4.69740        3.13480       -2.21700
H          4.39150        1.24970       -0.66640
H          5.19820        3.11800        7.51720
H         10.32630        2.46960        9.78100
