151

C          0.08850        3.92060        5.19630
C          0.08810        3.86480        6.56240
C          0.33870        2.69880        7.44130
O          0.83920        1.62820        7.16210
C         -0.16460        3.08640        8.77240
C         -0.23660        2.27390        9.90170
C         -0.77980        2.89230       11.00150
C         -1.21580        4.22430       10.98240
C         -1.14030        5.03980        9.87870
C         -0.59330        4.42770        8.74710
C         -0.36190        4.95930        7.40790
C         -0.47620        6.27630        7.04650
C         -0.14120        6.81340        5.78490
N          0.12860        7.33920        4.79990
C         -0.89960        7.30560        7.91340
N         -1.24160        8.19270        8.55720
C         -1.66870        4.18010       12.42010
C         -3.18750        4.04770       12.69340
C         -3.78100        3.35170       11.49380
C         -3.36830        2.09140       11.51160
C         -2.48820        1.91230       12.72400
C         -3.17000        2.88540       13.69910
C         -1.18260        2.69670       12.44170
C          0.45360        2.96420        4.22860
C          1.11620        1.75060        4.31310
C          1.23280        1.13610        3.07430
S          1.90120       -0.38560        2.55390
C          1.38170       -0.03950        0.93990
C          1.39410       -0.74510       -0.30300
C          1.88190       -2.00660       -0.63310
C          1.67180       -2.44370       -1.92010
C          2.07050       -3.77570       -2.53360
C          3.56550       -3.91090       -2.76850
C          4.42560       -2.82620       -2.68650
C          5.77340       -2.98000       -2.95890
C          6.29260       -4.21220       -3.33010
C          7.76270       -4.38420       -3.58240
C          8.48870       -4.74520       -2.28480
C          5.42470       -5.29360       -3.41870
C          4.07910       -5.14620       -3.14630
C          1.53400       -4.89460       -1.66340
C          0.26520       -5.41730       -1.86930
C         -0.22750       -6.40880       -1.04090
C          0.52770       -6.89700        0.01660
C         -0.02500       -7.94430        0.93960
C         -0.75150       -7.29000        2.11660
C          1.79010       -6.35810        0.22910
C          2.28840       -5.36950       -0.59760
C          1.41360       -3.67080       -3.88730
C          0.81480       -2.41900       -4.04520
C          0.95860       -1.65000       -2.85020
C          0.50140       -0.37320       -2.52900
C          0.73970        0.07720       -1.25240
C          0.33990        1.40590       -0.63460
C         -1.14370        1.64040       -0.83270
C         -1.59970        2.25500       -1.99210
C         -2.95230        2.44670       -2.19780
C         -3.88390        2.02840       -1.25620
C         -5.34850        2.28990       -1.45770
C         -5.72650        3.66340       -0.89920
C         -3.42310        1.40590       -0.10440
C         -2.07070        1.20640        0.10380
C          1.16430        2.58040       -1.13960
C          2.31370        2.40600       -1.89530
C          3.06660        3.50050       -2.28290
C          2.70110        4.78760       -1.91530
C          3.49810        5.97620       -2.36880
C          2.92990        6.53330       -3.67560
C          1.55180        4.95470       -1.15190
C          0.79330        3.86720       -0.76700
C          0.74290        1.18140        0.79800
C          0.66450        1.86460        2.00830
S          0.00110        3.34840        2.56040
S          0.05340       -2.21400       -5.56100
C          0.53870       -3.84020       -6.02050
C          1.27180       -4.46700       -5.00180
C          0.24170       -4.49600       -7.22290
C         -0.49410       -4.08950       -8.30690
C         -1.17100       -2.79320       -8.45180
O         -1.16140       -1.85940       -7.66860
C         -1.87360       -2.84340       -9.74340
C         -2.67100       -1.88710      -10.34110
C         -3.23310       -2.17700      -11.57410
C         -3.00610       -3.39930      -12.20300
C         -3.64570       -3.69740      -13.52190
C         -2.19900       -4.35840      -11.59160
C         -1.63020       -4.08270      -10.36060
C         -0.76080       -4.87860       -9.49310
C         -0.29800       -6.13670       -9.78230
C          0.53820       -6.92200       -8.96190
N          1.21470       -7.63030       -8.36080
C         -0.59610       -6.83740      -10.96980
N         -0.79360       -7.46590      -11.91040
H         -0.30410        4.83140        4.75760
H          0.11050        1.25280        9.87190
H         -1.48320        6.06090        9.87890
H         -1.18600        4.88520       13.09380
H         -3.67240        4.97010       13.00160
H         -4.37460        3.84640       10.74740
H         -3.54800        1.32270       10.78280
H         -2.33720        0.89000       13.06050
H         -4.16940        2.56220       13.98670
H         -2.57920        3.09170       14.59040
H         -0.38270        2.43220       13.13050
H          1.47600        1.34390        5.23970
H          2.39090       -2.61240        0.10060
H          4.04610       -1.85420       -2.40710
H          6.43040       -2.12470       -2.88630
H          8.18080       -3.45850       -3.98300
H          7.92170       -5.17700       -4.31590
H          8.09230       -5.67160       -1.87510
H          9.55310       -4.87320       -2.46690
H          8.35460       -3.95910       -1.54500
H          5.80670       -6.26160       -3.70980
H          3.41940       -5.99870       -3.21750
H         -0.34250       -5.05160       -2.68430
H         -1.21430       -6.81090       -1.22180
H         -0.72300       -8.58500        0.39710
H          0.78660       -8.56790        1.32000
H         -1.15110       -8.04820        2.78610
H         -1.57330       -6.67390        1.75830
H         -0.06870       -6.65560        2.67740
H          2.39300       -6.72020        1.04970
H          3.27810       -4.97280       -0.42230
H         -0.02730        0.22250       -3.25660
H         -0.89050        2.59680       -2.73200
H         -3.28990        2.92830       -3.10430
H         -5.58720        2.25650       -2.52260
H         -5.93570        1.52130       -0.95120
H         -5.15910        4.44460       -1.40010
H         -6.78690        3.85550       -1.04570
H         -5.50800        3.71220        0.16520
H         -4.13070        1.06880        0.63970
H         -1.73850        0.70960        1.00400
H          2.62570        1.41390       -2.18700
H          3.95710        3.34740       -2.87600
H          3.46810        6.75430       -1.60350
H          4.53970        5.68750       -2.52310
H          2.96030        5.77500       -4.45500
H          3.50710        7.39390       -4.00520
H          1.89570        6.84070       -3.53750
H          1.25080        5.94710       -0.84940
H         -0.09810        4.01570       -0.17470
H          1.65140       -5.46750       -5.10810
H          0.66100       -5.49410       -7.26870
H         -2.84380       -0.94200       -9.84960
H         -3.86050       -1.44470      -12.06100
H         -3.72660       -2.79780      -14.12760
H         -4.65240       -4.08560      -13.36250
H         -3.07930       -4.44710      -14.06820
H         -2.03280       -5.30020      -12.08910
