159

C          2.75870       -0.79250       -4.13350
C          3.90340       -1.53980       -4.04140
C          4.54230       -1.98290       -2.79890
O          4.07100       -1.97180       -1.67460
C          5.89960       -2.42090       -3.17610
C          6.91910       -2.83100       -2.32020
C          8.09810       -3.13240       -2.95920
C          8.25240       -3.03970       -4.34840
C          7.25090       -2.65040       -5.20650
C          6.04470       -2.33280       -4.57610
C          4.78180       -1.86450       -5.14340
C          4.46230       -1.81870       -6.47660
C          5.34840       -2.15910       -7.51830
N          6.02310       -2.41720       -8.41120
C          3.18950       -1.48250       -6.98390
N          2.17360       -1.25300       -7.46930
C          9.70090       -3.45820       -4.29640
C         10.74620       -2.33250       -4.44730
C         12.01270       -2.93640       -3.88490
C         11.86680       -3.02720       -2.56920
C         10.49910       -2.48590       -2.22040
C         10.36560       -1.39670       -3.29260
C          9.52820       -3.56420       -2.74720
C          1.84250       -0.42350       -3.14540
C          0.78420        0.47720       -3.43950
O          0.82570        1.07230       -4.64530
C         -0.37910        1.41330       -5.31220
C         -1.08570        0.17050       -5.83660
C         -0.05970        0.66450       -2.34230
C         -1.29780        1.46370       -1.96600
C         -1.14520        2.96220       -2.12880
C         -2.23170        3.80720       -1.91960
C         -2.09300        5.17770       -2.02220
C         -0.86640        5.75170       -2.33030
C         -0.73370        7.23800       -2.49140
C         -1.08030        7.65290       -3.92280
C          0.21820        4.90940       -2.52670
C          0.08520        3.53650       -2.42010
C         -2.50230        0.86000       -2.68810
C         -2.83320       -0.46510       -2.41920
C         -3.88430       -1.08030       -3.06960
C         -4.64020       -0.39460       -4.01210
C         -5.74540       -1.08020       -4.76030
C         -5.19630       -1.74910       -6.02230
C         -4.30740        0.92450       -4.28060
C         -3.25540        1.54620       -3.63070
C         -1.41520        1.12990       -0.48000
C         -0.45040        0.16790       -0.10570
C          0.36400       -0.08930       -1.24940
S          1.78800       -0.99940       -1.49800
C         -0.38540       -0.36750        1.17830
C         -1.28190        0.11400        2.10160
C         -1.44120       -0.27840        3.56550
C         -2.05820       -1.66830        3.68910
C         -3.07910       -2.01920        2.81090
C         -3.72840       -3.23150        2.92840
C         -3.38590       -4.13100        3.93020
C         -4.07280       -5.46130        4.03420
C         -3.41670       -6.47880        3.09860
C         -2.36860       -3.77880        4.80420
C         -1.71620       -2.56310        4.69290
C         -0.08020       -0.10050        4.20350
C          0.27190        1.11110        4.78640
C          1.53300        1.29700        5.32070
C          2.48530        0.28850        5.26700
C          3.83530        0.46730        5.89760
C          3.81400       -0.02280        7.34720
C          2.14380       -0.90690        4.64790
C          0.88330       -1.09900        4.11520
C         -2.50710        0.70590        4.01950
C         -3.25720        0.99480        5.17020
O         -3.25230        0.45520        6.39590
C         -2.05340       -0.04010        6.97490
C         -1.42160        1.01890        7.87150
C         -4.23220        1.98970        4.92580
S         -4.20700        2.53630        3.26330
C         -2.92550        1.45830        2.92910
C         -2.19660        1.12910        1.74840
C         -2.29410        1.62880        0.45190
C         -4.99850        2.57460        5.94050
C         -6.00060        3.50410        5.86290
C         -6.26160        4.39300        7.01770
O         -5.85030        4.26750        8.15020
C         -7.07350        5.50460        6.47040
C         -7.49150        6.66700        7.08870
C         -8.21420        7.58960        6.34730
C         -8.49700        7.32820        5.01390
Br        -9.46500        8.62230        4.01300
C         -8.09600        6.15930        4.37790
C         -7.37820        5.24100        5.12260
C         -6.84500        3.92260        4.77340
C         -7.30160        3.13210        3.74950
C         -8.18860        3.57560        2.75020
N         -8.89280        3.90040        1.90340
C         -7.01340        1.75470        3.65680
N         -6.85050        0.62060        3.58270
H          2.51480       -0.37360       -5.10310
H          6.75920       -2.88790       -1.25480
H          7.38310       -2.58200       -6.27350
H          9.95810       -4.35560       -4.85550
H         10.80960       -1.90070       -5.44240
H         12.83480       -3.27520       -4.48760
H         12.54250       -3.45720       -1.85330
H         10.33780       -2.19340       -1.18620
H          9.36600       -0.97400       -3.37420
H         11.08980       -0.59490       -3.15700
H          9.66940       -4.53350       -2.27270
H         -0.05310        2.04520       -6.14170
H         -1.02960        1.99370       -4.65440
H         -1.40360       -0.46340       -5.01110
H         -1.96200        0.46110       -6.40790
H         -0.41120       -0.39340       -6.47710
H         -3.20150        3.39440       -1.68580
H         -2.95270        5.81160       -1.85750
H         -1.40590        7.74650       -1.79720
H          0.28910        7.54540       -2.26490
H         -0.41370        7.16450       -4.63010
H         -2.10230        7.36790       -4.16280
H         -0.98370        8.72960       -4.04070
H          1.18560        5.33000       -2.76130
H          0.95560        2.91520       -2.56670
H         -2.26040       -1.02500       -1.69390
H         -4.12100       -2.10960       -2.84120
H         -6.50980       -0.35330       -5.04110
H         -6.20930       -1.83660       -4.12440
H         -4.43650       -2.48280       -5.76270
H         -5.99420       -2.25140       -6.56380
H         -4.74430       -1.00830       -6.67820
H         -4.87800        1.48110       -5.01010
H         -3.03380        2.57470       -3.87380
H          0.34800       -1.12080        1.41700
H         -3.37690       -1.33390        2.03090
H         -4.52260       -3.47670        2.23860
H         -4.01770       -5.82790        5.06100
H         -5.12550       -5.35290        3.76570
H         -3.47210       -6.13620        2.06780
H         -3.91770       -7.44110        3.17230
H         -2.36880       -6.61190        3.35870
H         -2.08340       -4.45870        5.59450
H         -0.93420       -2.32990        5.40010
H         -0.44720        1.91770        4.82000
H          1.78250        2.24340        5.77870
H          4.58280       -0.09810        5.33780
H          4.11770        1.52160        5.87800
H          3.54380       -1.07570        7.38710
H          3.08510        0.54010        7.92640
H          4.79210        0.10200        7.80530
H          2.87670       -1.69740        4.57430
H          0.64740       -2.03470        3.63070
H         -1.34560       -0.35000        6.20670
H         -2.35490       -0.90930        7.56550
H         -0.54190        0.60570        8.35660
H         -2.12960        1.34040        8.63100
H         -1.12290        1.88400        7.28420
H         -3.03150        2.37960        0.22070
H         -4.66600        2.33420        6.94640
H         -7.25570        6.84690        8.12600
H         -8.55460        8.50960        6.79680
H         -8.33260        5.99470        3.33880
