
  xtb     02012222273D
 energy: -243.784692571318 gnorm: 0.000583515318 xtb: 6.4.1 (unknown)
148164  0     0  0            999 V2000
   -2.6160    6.1538   -1.0855 C   0  0  0  0  0  0  0  0  0  0  0  0
   -1.7630    6.9202   -1.8152 C   0  0  0  0  0  0  0  0  0  0  0  0
   -2.3073    7.9163   -2.7789 C   0  0  0  0  0  0  0  0  0  0  0  0
   -3.4292    8.3685   -2.7990 O   0  0  0  0  0  0  0  0  0  0  0  0
   -1.2090    8.1640   -3.7336 C   0  0  0  0  0  0  0  0  0  0  0  0
   -1.2695    8.8979   -4.9170 C   0  0  0  0  0  0  0  0  0  0  0  0
   -0.0930    8.9130   -5.6270 C   0  0  0  0  0  0  0  0  0  0  0  0
    1.0649    8.2498   -5.1967 C   0  0  0  0  0  0  0  0  0  0  0  0
    1.1449    7.5339   -4.0260 C   0  0  0  0  0  0  0  0  0  0  0  0
   -0.0424    7.5051   -3.2900 C   0  0  0  0  0  0  0  0  0  0  0  0
   -0.3279    6.8762   -2.0038 C   0  0  0  0  0  0  0  0  0  0  0  0
    0.5995    6.5667   -1.0445 C   0  0  0  0  0  0  0  0  0  0  0  0
    0.2607    6.2581    0.2904 C   0  0  0  0  0  0  0  0  0  0  0  0
    0.0398    6.0674    1.4007 N   0  0  0  0  0  0  0  0  0  0  0  0
    1.9928    6.6087   -1.2425 C   0  0  0  0  0  0  0  0  0  0  0  0
    3.1363    6.6000   -1.3473 N   0  0  0  0  0  0  0  0  0  0  0  0
    1.8535    8.6695   -6.4122 C   0  0  0  0  0  0  0  0  0  0  0  0
    2.0577    7.5984   -7.5046 C   0  0  0  0  0  0  0  0  0  0  0  0
    2.4167    8.3996   -8.7352 C   0  0  0  0  0  0  0  0  0  0  0  0
    1.3209    9.0280   -9.1415 C   0  0  0  0  0  0  0  0  0  0  0  0
    0.2029    8.6622   -8.1921 C   0  0  0  0  0  0  0  0  0  0  0  0
    0.6100    7.2237   -7.8476 C   0  0  0  0  0  0  0  0  0  0  0  0
    0.5637    9.4103   -6.8907 C   0  0  0  0  0  0  0  0  0  0  0  0
   -2.3847    4.8996   -0.4746 C   0  0  0  0  0  0  0  0  0  0  0  0
   -3.2334    4.2661    0.4170 C   0  0  0  0  0  0  0  0  0  0  0  0
   -2.7525    3.0199    0.8046 C   0  0  0  0  0  0  0  0  0  0  0  0
   -3.3148    1.7870    1.8975 S   0  0  0  0  0  0  0  0  0  0  0  0
   -1.9126    0.8408    1.5269 C   0  0  0  0  0  0  0  0  0  0  0  0
   -1.3840   -0.4161    1.9559 C   0  0  0  0  0  0  0  0  0  0  0  0
   -1.9072   -1.3827    2.8100 C   0  0  0  0  0  0  0  0  0  0  0  0
   -1.1671   -2.5275    2.9934 C   0  0  0  0  0  0  0  0  0  0  0  0
   -1.5249   -3.7528    3.8171 C   0  0  0  0  0  0  0  0  0  0  0  0
   -2.8356   -4.3035    3.2790 C   0  0  0  0  0  0  0  0  0  0  0  0
   -4.0409   -3.8166    3.7693 C   0  0  0  0  0  0  0  0  0  0  0  0
   -5.2405   -4.2685    3.2536 C   0  0  0  0  0  0  0  0  0  0  0  0
   -5.2682   -5.2095    2.2323 C   0  0  0  0  0  0  0  0  0  0  0  0
   -6.5727   -5.7345    1.7059 C   0  0  0  0  0  0  0  0  0  0  0  0
   -7.0100   -6.9679    2.4986 C   0  0  0  0  0  0  0  0  0  0  0  0
   -4.0599   -5.6865    1.7428 C   0  0  0  0  0  0  0  0  0  0  0  0
   -2.8552   -5.2373    2.2523 C   0  0  0  0  0  0  0  0  0  0  0  0
   -1.5803   -3.5097    5.3133 C   0  0  0  0  0  0  0  0  0  0  0  0
   -2.1228   -4.4889    6.1374 C   0  0  0  0  0  0  0  0  0  0  0  0
   -2.1365   -4.3235    7.5081 C   0  0  0  0  0  0  0  0  0  0  0  0
   -1.6034   -3.1816    8.0939 C   0  0  0  0  0  0  0  0  0  0  0  0
   -1.6623   -2.9865    9.5812 C   0  0  0  0  0  0  0  0  0  0  0  0
   -2.9953   -2.3527    9.9841 C   0  0  0  0  0  0  0  0  0  0  0  0
   -1.0578   -2.2102    7.2667 C   0  0  0  0  0  0  0  0  0  0  0  0
   -1.0386   -2.3721    5.8925 C   0  0  0  0  0  0  0  0  0  0  0  0
   -0.3456   -4.6452    3.5313 C   0  0  0  0  0  0  0  0  0  0  0  0
    0.5405   -4.0067    2.6707 C   0  0  0  0  0  0  0  0  0  0  0  0
    0.0662   -2.7076    2.3219 C   0  0  0  0  0  0  0  0  0  0  0  0
    0.5986   -1.7330    1.4801 C   0  0  0  0  0  0  0  0  0  0  0  0
   -0.1339   -0.5831    1.3086 C   0  0  0  0  0  0  0  0  0  0  0  0
    0.1877    0.6140    0.4317 C   0  0  0  0  0  0  0  0  0  0  0  0
    0.4637    0.1527   -0.9825 C   0  0  0  0  0  0  0  0  0  0  0  0
    1.7427   -0.2553   -1.3398 C   0  0  0  0  0  0  0  0  0  0  0  0
    2.0005   -0.7094   -2.6187 C   0  0  0  0  0  0  0  0  0  0  0  0
    0.9911   -0.7700   -3.5714 C   0  0  0  0  0  0  0  0  0  0  0  0
    1.2888   -1.2078   -4.9760 C   0  0  0  0  0  0  0  0  0  0  0  0
    1.7080   -0.0083   -5.8287 C   0  0  0  0  0  0  0  0  0  0  0  0
   -0.2861   -0.3673   -3.2062 C   0  0  0  0  0  0  0  0  0  0  0  0
   -0.5510    0.0827   -1.9257 C   0  0  0  0  0  0  0  0  0  0  0  0
    1.2954    1.5082    0.9712 C   0  0  0  0  0  0  0  0  0  0  0  0
    1.8148    2.5022    0.1503 C   0  0  0  0  0  0  0  0  0  0  0  0
    2.7223    3.4181    0.6453 C   0  0  0  0  0  0  0  0  0  0  0  0
    3.1320    3.3674    1.9714 C   0  0  0  0  0  0  0  0  0  0  0  0
    4.0532    4.4115    2.5297 C   0  0  0  0  0  0  0  0  0  0  0  0
    3.2443    5.5023    3.2351 C   0  0  0  0  0  0  0  0  0  0  0  0
    2.6209    2.3628    2.7824 C   0  0  0  0  0  0  0  0  0  0  0  0
    1.7081    1.4458    2.2937 C   0  0  0  0  0  0  0  0  0  0  0  0
   -1.0639    1.4292    0.6044 C   0  0  0  0  0  0  0  0  0  0  0  0
   -1.5363    2.6698    0.1910 C   0  0  0  0  0  0  0  0  0  0  0  0
   -0.9998    3.8939   -0.8864 S   0  0  0  0  0  0  0  0  0  0  0  0
    1.8930   -4.9771    2.2787 S   0  0  0  0  0  0  0  0  0  0  0  0
    1.2689   -6.2726    3.2941 C   0  0  0  0  0  0  0  0  0  0  0  0
    0.0817   -5.9051    3.9166 C   0  0  0  0  0  0  0  0  0  0  0  0
    1.9551   -7.4913    3.4734 C   0  0  0  0  0  0  0  0  0  0  0  0
    2.8748   -8.0833    2.6578 C   0  0  0  0  0  0  0  0  0  0  0  0
    3.8204   -9.0863    3.2067 C   0  0  0  0  0  0  0  0  0  0  0  0
    3.7645   -9.6303    4.2852 O   0  0  0  0  0  0  0  0  0  0  0  0
    4.8689   -9.2283    2.1698 C   0  0  0  0  0  0  0  0  0  0  0  0
    6.0438   -9.9499    2.2186 C   0  0  0  0  0  0  0  0  0  0  0  0
    6.8887   -9.9094    1.1158 C   0  0  0  0  0  0  0  0  0  0  0  0
    8.3597  -10.7957    1.1387 Cl  0  0  0  0  0  0  0  0  0  0  0  0
    6.5475   -9.1513   -0.0095 C   0  0  0  0  0  0  0  0  0  0  0  0
    7.6096   -9.1003   -1.3579 Cl  0  0  0  0  0  0  0  0  0  0  0  0
    5.3576   -8.4331   -0.0602 C   0  0  0  0  0  0  0  0  0  0  0  0
    4.5140   -8.4744    1.0361 C   0  0  0  0  0  0  0  0  0  0  0  0
    3.2012   -7.8747    1.2647 C   0  0  0  0  0  0  0  0  0  0  0  0
    2.3343   -7.4729    0.2813 C   0  0  0  0  0  0  0  0  0  0  0  0
    2.6794   -7.3812   -1.0816 C   0  0  0  0  0  0  0  0  0  0  0  0
    2.9170   -7.2714   -2.1994 N   0  0  0  0  0  0  0  0  0  0  0  0
    0.9696   -7.2055    0.5145 C   0  0  0  0  0  0  0  0  0  0  0  0
   -0.1579   -7.0381    0.6534 N   0  0  0  0  0  0  0  0  0  0  0  0
   -3.6411    6.5097   -1.0451 H   0  0  0  0  0  0  0  0  0  0  0  0
   -2.1785    9.3965   -5.2148 H   0  0  0  0  0  0  0  0  0  0  0  0
    2.0366    7.0224   -3.7018 H   0  0  0  0  0  0  0  0  0  0  0  0
    2.7495    9.2554   -6.2171 H   0  0  0  0  0  0  0  0  0  0  0  0
    2.7331    6.7923   -7.2311 H   0  0  0  0  0  0  0  0  0  0  0  0
    3.4103    8.4683   -9.1375 H   0  0  0  0  0  0  0  0  0  0  0  0
    1.2162    9.7263   -9.9509 H   0  0  0  0  0  0  0  0  0  0  0  0
   -0.8119    8.8251   -8.5450 H   0  0  0  0  0  0  0  0  0  0  0  0
    0.5497    6.5617   -8.7098 H   0  0  0  0  0  0  0  0  0  0  0  0
    0.0544    6.7912   -7.0174 H   0  0  0  0  0  0  0  0  0  0  0  0
    0.5996   10.4906   -7.0166 H   0  0  0  0  0  0  0  0  0  0  0  0
   -4.1389    4.7147    0.7825 H   0  0  0  0  0  0  0  0  0  0  0  0
   -2.8599   -1.2348    3.2942 H   0  0  0  0  0  0  0  0  0  0  0  0
   -4.0418   -3.0888    4.5683 H   0  0  0  0  0  0  0  0  0  0  0  0
   -6.1693   -3.8813    3.6484 H   0  0  0  0  0  0  0  0  0  0  0  0
   -7.3422   -4.9638    1.7857 H   0  0  0  0  0  0  0  0  0  0  0  0
   -6.4651   -6.0034    0.6533 H   0  0  0  0  0  0  0  0  0  0  0  0
   -7.9556   -7.3489    2.1201 H   0  0  0  0  0  0  0  0  0  0  0  0
   -7.1319   -6.7179    3.5504 H   0  0  0  0  0  0  0  0  0  0  0  0
   -6.2614   -7.7529    2.4182 H   0  0  0  0  0  0  0  0  0  0  0  0
   -4.0553   -6.4173    0.9473 H   0  0  0  0  0  0  0  0  0  0  0  0
   -1.9337   -5.6238    1.8437 H   0  0  0  0  0  0  0  0  0  0  0  0
   -2.5458   -5.3806    5.6977 H   0  0  0  0  0  0  0  0  0  0  0  0
   -2.5634   -5.0938    8.1344 H   0  0  0  0  0  0  0  0  0  0  0  0
   -0.8439   -2.3397    9.9033 H   0  0  0  0  0  0  0  0  0  0  0  0
   -1.5557   -3.9495   10.0848 H   0  0  0  0  0  0  0  0  0  0  0  0
   -3.0397   -2.2120   11.0615 H   0  0  0  0  0  0  0  0  0  0  0  0
   -3.1147   -1.3850    9.5019 H   0  0  0  0  0  0  0  0  0  0  0  0
   -3.8238   -2.9897    9.6823 H   0  0  0  0  0  0  0  0  0  0  0  0
   -0.6357   -1.3153    7.7014 H   0  0  0  0  0  0  0  0  0  0  0  0
   -0.6001   -1.6053    5.2706 H   0  0  0  0  0  0  0  0  0  0  0  0
    1.5415   -1.8897    0.9796 H   0  0  0  0  0  0  0  0  0  0  0  0
    2.5433   -0.2012   -0.6160 H   0  0  0  0  0  0  0  0  0  0  0  0
    3.0009   -1.0220   -2.8817 H   0  0  0  0  0  0  0  0  0  0  0  0
    0.4037   -1.6712   -5.4160 H   0  0  0  0  0  0  0  0  0  0  0  0
    2.0939   -1.9450   -4.9710 H   0  0  0  0  0  0  0  0  0  0  0  0
    0.9093    0.7297   -5.8624 H   0  0  0  0  0  0  0  0  0  0  0  0
    2.5922    0.4647   -5.4071 H   0  0  0  0  0  0  0  0  0  0  0  0
    1.9332   -0.3236   -6.8448 H   0  0  0  0  0  0  0  0  0  0  0  0
   -1.0865   -0.4091   -3.9312 H   0  0  0  0  0  0  0  0  0  0  0  0
   -1.5551    0.3826   -1.6612 H   0  0  0  0  0  0  0  0  0  0  0  0
    1.5045    2.5577   -0.8839 H   0  0  0  0  0  0  0  0  0  0  0  0
    3.1125    4.1884   -0.0041 H   0  0  0  0  0  0  0  0  0  0  0  0
    4.6341    4.8603    1.7222 H   0  0  0  0  0  0  0  0  0  0  0  0
    4.7455    3.9572    3.2423 H   0  0  0  0  0  0  0  0  0  0  0  0
    2.5309    5.9488    2.5461 H   0  0  0  0  0  0  0  0  0  0  0  0
    3.9033    6.2817    3.6101 H   0  0  0  0  0  0  0  0  0  0  0  0
    2.6888    5.0830    4.0708 H   0  0  0  0  0  0  0  0  0  0  0  0
    2.9323    2.3020    3.8155 H   0  0  0  0  0  0  0  0  0  0  0  0
    1.3117    0.6823    2.9478 H   0  0  0  0  0  0  0  0  0  0  0  0
   -0.4474   -6.5664    4.5782 H   0  0  0  0  0  0  0  0  0  0  0  0
    1.7805   -7.9958    4.4192 H   0  0  0  0  0  0  0  0  0  0  0  0
    6.2974  -10.5316    3.0906 H   0  0  0  0  0  0  0  0  0  0  0  0
    5.1239   -7.8559   -0.9401 H   0  0  0  0  0  0  0  0  0  0  0  0
  1  2  2  0  0  0  0
  2  3  1  0  0  0  0
  3  4  2  0  0  0  0
  3  5  1  0  0  0  0
  5  6  2  0  0  0  0
  6  7  1  0  0  0  0
  7  8  2  0  0  0  0
  8  9  1  0  0  0  0
  9 10  2  0  0  0  0
 10 11  1  0  0  0  0
 11 12  2  0  0  0  0
 12 13  1  0  0  0  0
 13 14  3  0  0  0  0
 12 15  1  0  0  0  0
 15 16  3  0  0  0  0
  8 17  1  0  0  0  0
 17 18  1  0  0  0  0
 18 19  1  0  0  0  0
 19 20  2  0  0  0  0
 20 21  1  0  0  0  0
 21 22  1  0  0  0  0
 21 23  1  0  0  0  0
  1 24  1  0  0  0  0
 24 25  2  0  0  0  0
 25 26  1  0  0  0  0
 26 27  1  0  0  0  0
 27 28  1  0  0  0  0
 28 29  1  0  0  0  0
 29 30  2  0  0  0  0
 30 31  1  0  0  0  0
 31 32  1  0  0  0  0
 32 33  1  0  0  0  0
 33 34  2  0  0  0  0
 34 35  1  0  0  0  0
 35 36  2  0  0  0  0
 36 37  1  0  0  0  0
 37 38  1  0  0  0  0
 36 39  1  0  0  0  0
 39 40  2  0  0  0  0
 32 41  1  0  0  0  0
 41 42  2  0  0  0  0
 42 43  1  0  0  0  0
 43 44  2  0  0  0  0
 44 45  1  0  0  0  0
 45 46  1  0  0  0  0
 44 47  1  0  0  0  0
 47 48  2  0  0  0  0
 32 49  1  0  0  0  0
 49 50  2  0  0  0  0
 50 51  1  0  0  0  0
 51 52  1  0  0  0  0
 52 53  2  0  0  0  0
 53 54  1  0  0  0  0
 54 55  1  0  0  0  0
 55 56  2  0  0  0  0
 56 57  1  0  0  0  0
 57 58  2  0  0  0  0
 58 59  1  0  0  0  0
 59 60  1  0  0  0  0
 58 61  1  0  0  0  0
 61 62  2  0  0  0  0
 54 63  1  0  0  0  0
 63 64  2  0  0  0  0
 64 65  1  0  0  0  0
 65 66  2  0  0  0  0
 66 67  1  0  0  0  0
 67 68  1  0  0  0  0
 66 69  1  0  0  0  0
 69 70  2  0  0  0  0
 54 71  1  0  0  0  0
 71 72  1  0  0  0  0
 72 73  1  0  0  0  0
 50 74  1  0  0  0  0
 74 75  1  0  0  0  0
 75 76  2  0  0  0  0
 75 77  1  0  0  0  0
 77 78  2  0  0  0  0
 78 79  1  0  0  0  0
 79 80  2  0  0  0  0
 79 81  1  0  0  0  0
 81 82  2  0  0  0  0
 82 83  1  0  0  0  0
 83 84  1  0  0  0  0
 83 85  2  0  0  0  0
 85 86  1  0  0  0  0
 85 87  1  0  0  0  0
 87 88  2  0  0  0  0
 88 89  1  0  0  0  0
 89 90  2  0  0  0  0
 90 91  1  0  0  0  0
 91 92  3  0  0  0  0
 90 93  1  0  0  0  0
 93 94  3  0  0  0  0
 11  2  1  0  0  0  0
 23 17  1  0  0  0  0
 73 24  1  0  0  0  0
 89 78  1  0  0  0  0
 10  5  1  0  0  0  0
 22 18  1  0  0  0  0
 72 26  2  0  0  0  0
 88 81  1  0  0  0  0
 23  7  1  0  0  0  0
 71 28  2  0  0  0  0
 53 29  1  0  0  0  0
 62 55  1  0  0  0  0
 70 63  1  0  0  0  0
 51 31  2  0  0  0  0
 40 33  1  0  0  0  0
 48 41  1  0  0  0  0
 76 49  1  0  0  0  0
  1 95  1  0  0  0  0
  6 96  1  0  0  0  0
  9 97  1  0  0  0  0
 17 98  1  0  0  0  0
 18 99  1  0  0  0  0
 19100  1  0  0  0  0
 20101  1  0  0  0  0
 21102  1  0  0  0  0
 22103  1  0  0  0  0
 22104  1  0  0  0  0
 23105  1  0  0  0  0
 25106  1  0  0  0  0
 30107  1  0  0  0  0
 34108  1  0  0  0  0
 35109  1  0  0  0  0
 37110  1  0  0  0  0
 37111  1  0  0  0  0
 38112  1  0  0  0  0
 38113  1  0  0  0  0
 38114  1  0  0  0  0
 39115  1  0  0  0  0
 40116  1  0  0  0  0
 42117  1  0  0  0  0
 43118  1  0  0  0  0
 45119  1  0  0  0  0
 45120  1  0  0  0  0
 46121  1  0  0  0  0
 46122  1  0  0  0  0
 46123  1  0  0  0  0
 47124  1  0  0  0  0
 48125  1  0  0  0  0
 52126  1  0  0  0  0
 56127  1  0  0  0  0
 57128  1  0  0  0  0
 59129  1  0  0  0  0
 59130  1  0  0  0  0
 60131  1  0  0  0  0
 60132  1  0  0  0  0
 60133  1  0  0  0  0
 61134  1  0  0  0  0
 62135  1  0  0  0  0
 64136  1  0  0  0  0
 65137  1  0  0  0  0
 67138  1  0  0  0  0
 67139  1  0  0  0  0
 68140  1  0  0  0  0
 68141  1  0  0  0  0
 68142  1  0  0  0  0
 69143  1  0  0  0  0
 70144  1  0  0  0  0
 76145  1  0  0  0  0
 77146  1  0  0  0  0
 82147  1  0  0  0  0
 87148  1  0  0  0  0
M  END
