
  xtb     02022216113D
 energy: -276.326080418343 gnorm: 0.000260188055 xtb: 6.4.1 (unknown)
170192  0     0  0            999 V2000
   -5.6414    3.2481    7.4596 C   0  0  0  0  0  0  0  0  0  0  0  0
   -7.0015    3.2621    7.5984 C   0  0  0  0  0  0  0  0  0  0  0  0
   -8.0161    2.4715    6.8619 C   0  0  0  0  0  0  0  0  0  0  0  0
   -7.8648    1.4655    6.1989 O   0  0  0  0  0  0  0  0  0  0  0  0
   -9.2992    3.1641    7.0826 C   0  0  0  0  0  0  0  0  0  0  0  0
  -10.5224    2.8534    6.4927 C   0  0  0  0  0  0  0  0  0  0  0  0
  -11.5487    3.6890    6.8611 C   0  0  0  0  0  0  0  0  0  0  0  0
  -11.3718    4.7594    7.7487 C   0  0  0  0  0  0  0  0  0  0  0  0
  -10.1720    5.0736    8.3410 C   0  0  0  0  0  0  0  0  0  0  0  0
   -9.1155    4.2304    7.9841 C   0  0  0  0  0  0  0  0  0  0  0  0
   -7.7156    4.2475    8.3960 C   0  0  0  0  0  0  0  0  0  0  0  0
   -7.1964    5.0061    9.4117 C   0  0  0  0  0  0  0  0  0  0  0  0
   -7.9423    5.9293   10.1745 C   0  0  0  0  0  0  0  0  0  0  0  0
   -8.4857    6.6974   10.8325 N   0  0  0  0  0  0  0  0  0  0  0  0
   -5.8682    4.9405    9.8851 C   0  0  0  0  0  0  0  0  0  0  0  0
   -4.8169    4.9332   10.3475 N   0  0  0  0  0  0  0  0  0  0  0  0
  -12.8188    5.1752    7.6601 C   0  0  0  0  0  0  0  0  0  0  0  0
  -13.7495    4.8035    8.8407 C   0  0  0  0  0  0  0  0  0  0  0  0
  -13.1561    3.5742    9.4831 C   0  0  0  0  0  0  0  0  0  0  0  0
  -13.3237    2.5591    8.6461 C   0  0  0  0  0  0  0  0  0  0  0  0
  -14.0331    3.0838    7.4222 C   0  0  0  0  0  0  0  0  0  0  0  0
  -14.9135    4.1682    8.0635 C   0  0  0  0  0  0  0  0  0  0  0  0
  -13.0163    3.9809    6.6740 C   0  0  0  0  0  0  0  0  0  0  0  0
   -4.8015    2.4177    6.6909 C   0  0  0  0  0  0  0  0  0  0  0  0
   -5.0263    1.2312    6.0133 C   0  0  0  0  0  0  0  0  0  0  0  0
   -3.8967    0.7970    5.3343 C   0  0  0  0  0  0  0  0  0  0  0  0
   -3.5925   -0.5570    4.2794 S   0  0  0  0  0  0  0  0  0  0  0  0
   -1.9829    0.0327    3.9947 C   0  0  0  0  0  0  0  0  0  0  0  0
   -0.9405   -0.3363    3.1477 C   0  0  0  0  0  0  0  0  0  0  0  0
   -0.6560   -1.4221    2.1453 C   0  0  0  0  0  0  0  0  0  0  0  0
   -0.4997   -2.7118    2.9378 C   0  0  0  0  0  0  0  0  0  0  0  0
    0.7436   -3.2365    3.2573 C   0  0  0  0  0  0  0  0  0  0  0  0
    0.8409   -4.3852    4.0226 C   0  0  0  0  0  0  0  0  0  0  0  0
   -0.2941   -5.0312    4.4919 C   0  0  0  0  0  0  0  0  0  0  0  0
   -0.1817   -6.2489    5.3631 C   0  0  0  0  0  0  0  0  0  0  0  0
   -0.1098   -5.8451    6.8372 C   0  0  0  0  0  0  0  0  0  0  0  0
   -1.5364   -4.4940    4.1773 C   0  0  0  0  0  0  0  0  0  0  0  0
   -1.6401   -3.3498    3.4112 C   0  0  0  0  0  0  0  0  0  0  0  0
   -1.6981   -1.5597    1.0562 C   0  0  0  0  0  0  0  0  0  0  0  0
   -1.8024   -2.7465    0.3417 C   0  0  0  0  0  0  0  0  0  0  0  0
   -2.7274   -2.8723   -0.6767 C   0  0  0  0  0  0  0  0  0  0  0  0
   -3.5689   -1.8190   -1.0104 C   0  0  0  0  0  0  0  0  0  0  0  0
   -4.6134   -1.9793   -2.0767 C   0  0  0  0  0  0  0  0  0  0  0  0
   -5.9124   -2.5156   -1.4715 C   0  0  0  0  0  0  0  0  0  0  0  0
   -3.4523   -0.6316   -0.3010 C   0  0  0  0  0  0  0  0  0  0  0  0
   -2.5237   -0.4983    0.7146 C   0  0  0  0  0  0  0  0  0  0  0  0
    0.6519   -0.9235    1.5564 C   0  0  0  0  0  0  0  0  0  0  0  0
    1.1271    0.2070    2.2630 C   0  0  0  0  0  0  0  0  0  0  0  0
    0.1295    0.5375    3.2346 C   0  0  0  0  0  0  0  0  0  0  0  0
   -0.1056    1.8258    4.3670 S   0  0  0  0  0  0  0  0  0  0  0  0
   -1.6910    1.2050    4.7140 C   0  0  0  0  0  0  0  0  0  0  0  0
   -2.7775    1.6368    5.4775 C   0  0  0  0  0  0  0  0  0  0  0  0
   -3.1279    2.9677    6.5036 S   0  0  0  0  0  0  0  0  0  0  0  0
    2.3218    0.8358    1.9226 C   0  0  0  0  0  0  0  0  0  0  0  0
    2.9986    0.3482    0.8285 C   0  0  0  0  0  0  0  0  0  0  0  0
    4.2796    0.8770    0.2041 C   0  0  0  0  0  0  0  0  0  0  0  0
    4.1435    2.3669   -0.0379 C   0  0  0  0  0  0  0  0  0  0  0  0
    3.6103    2.8551   -1.2222 C   0  0  0  0  0  0  0  0  0  0  0  0
    3.4590    4.2159   -1.4146 C   0  0  0  0  0  0  0  0  0  0  0  0
    3.8204    5.1213   -0.4265 C   0  0  0  0  0  0  0  0  0  0  0  0
    3.6999    6.6002   -0.6548 C   0  0  0  0  0  0  0  0  0  0  0  0
    4.9958    7.1555   -1.2493 C   0  0  0  0  0  0  0  0  0  0  0  0
    4.3393    4.6266    0.7630 C   0  0  0  0  0  0  0  0  0  0  0  0
    4.4977    3.2681    0.9582 C   0  0  0  0  0  0  0  0  0  0  0  0
    5.5257    0.5519    1.0115 C   0  0  0  0  0  0  0  0  0  0  0  0
    6.7378    1.1151    0.6298 C   0  0  0  0  0  0  0  0  0  0  0  0
    7.8981    0.8116    1.3139 C   0  0  0  0  0  0  0  0  0  0  0  0
    7.8809   -0.0613    2.3951 C   0  0  0  0  0  0  0  0  0  0  0  0
    9.1506   -0.4180    3.1127 C   0  0  0  0  0  0  0  0  0  0  0  0
    9.8345   -1.6052    2.4318 C   0  0  0  0  0  0  0  0  0  0  0  0
    6.6698   -0.6298    2.7634 C   0  0  0  0  0  0  0  0  0  0  0  0
    5.5041   -0.3320    2.0798 C   0  0  0  0  0  0  0  0  0  0  0  0
    4.3370    0.0565   -1.0578 C   0  0  0  0  0  0  0  0  0  0  0  0
    3.3155   -0.8785   -1.0746 C   0  0  0  0  0  0  0  0  0  0  0  0
    2.4773   -0.7285    0.0736 C   0  0  0  0  0  0  0  0  0  0  0  0
    1.3139   -1.3947    0.4477 C   0  0  0  0  0  0  0  0  0  0  0  0
    3.2665   -1.8484   -2.5054 S   0  0  0  0  0  0  0  0  0  0  0  0
    4.6351   -0.9736   -3.1179 C   0  0  0  0  0  0  0  0  0  0  0  0
    5.1082   -0.0039   -2.2164 C   0  0  0  0  0  0  0  0  0  0  0  0
    6.4619    0.8927   -2.8416 S   0  0  0  0  0  0  0  0  0  0  0  0
    6.3599   -0.0088   -4.3342 C   0  0  0  0  0  0  0  0  0  0  0  0
    7.0411    0.0499   -5.5343 C   0  0  0  0  0  0  0  0  0  0  0  0
    6.5336   -0.8436   -6.4796 C   0  0  0  0  0  0  0  0  0  0  0  0
    5.1990   -1.7934   -5.8331 S   0  0  0  0  0  0  0  0  0  0  0  0
    5.3352   -0.9732   -4.3262 C   0  0  0  0  0  0  0  0  0  0  0  0
    7.0450   -0.9024   -7.7864 C   0  0  0  0  0  0  0  0  0  0  0  0
    6.6042   -1.6006   -8.8789 C   0  0  0  0  0  0  0  0  0  0  0  0
    5.4195   -2.4668   -8.9226 C   0  0  0  0  0  0  0  0  0  0  0  0
    4.7312   -2.8279   -7.9837 O   0  0  0  0  0  0  0  0  0  0  0  0
    5.2130   -2.8145  -10.3376 C   0  0  0  0  0  0  0  0  0  0  0  0
    4.1635   -3.5567  -10.8735 C   0  0  0  0  0  0  0  0  0  0  0  0
    4.2153   -3.6911  -12.2400 C   0  0  0  0  0  0  0  0  0  0  0  0
    5.2361   -3.1271  -13.0169 C   0  0  0  0  0  0  0  0  0  0  0  0
    6.2785   -2.3947  -12.4997 C   0  0  0  0  0  0  0  0  0  0  0  0
    6.2473   -2.2479  -11.1102 C   0  0  0  0  0  0  0  0  0  0  0  0
    7.1588   -1.5332  -10.2178 C   0  0  0  0  0  0  0  0  0  0  0  0
    8.3370   -0.9423  -10.5949 C   0  0  0  0  0  0  0  0  0  0  0  0
    8.8380   -0.9301  -11.9136 C   0  0  0  0  0  0  0  0  0  0  0  0
    9.3090   -0.8790  -12.9596 N   0  0  0  0  0  0  0  0  0  0  0  0
    9.2389   -0.2849   -9.7321 C   0  0  0  0  0  0  0  0  0  0  0  0
   10.0279    0.2624   -9.1012 N   0  0  0  0  0  0  0  0  0  0  0  0
    4.6542   -3.6516  -14.3054 C   0  0  0  0  0  0  0  0  0  0  0  0
    5.3224   -4.8920  -14.9480 C   0  0  0  0  0  0  0  0  0  0  0  0
    5.9709   -5.6606  -13.8234 C   0  0  0  0  0  0  0  0  0  0  0  0
    5.0050   -6.1954  -13.0885 C   0  0  0  0  0  0  0  0  0  0  0  0
    3.6855   -5.7976  -13.7026 C   0  0  0  0  0  0  0  0  0  0  0  0
    4.0779   -5.7616  -15.1883 C   0  0  0  0  0  0  0  0  0  0  0  0
    3.5172   -4.2807  -13.4397 C   0  0  0  0  0  0  0  0  0  0  0  0
   -5.1019    4.0405    7.9667 H   0  0  0  0  0  0  0  0  0  0  0  0
  -10.6122    2.0243    5.8083 H   0  0  0  0  0  0  0  0  0  0  0  0
  -10.0497    5.9053    9.0146 H   0  0  0  0  0  0  0  0  0  0  0  0
  -13.0035    6.1805    7.2866 H   0  0  0  0  0  0  0  0  0  0  0  0
  -13.9830    5.6286    9.5081 H   0  0  0  0  0  0  0  0  0  0  0  0
  -12.6401    3.5815   10.4252 H   0  0  0  0  0  0  0  0  0  0  0  0
  -12.9757    1.5480    8.7492 H   0  0  0  0  0  0  0  0  0  0  0  0
  -14.5261    2.3429    6.7981 H   0  0  0  0  0  0  0  0  0  0  0  0
  -15.6807    3.7558    8.7170 H   0  0  0  0  0  0  0  0  0  0  0  0
  -15.3702    4.8411    7.3389 H   0  0  0  0  0  0  0  0  0  0  0  0
  -13.3317    4.2062    5.6569 H   0  0  0  0  0  0  0  0  0  0  0  0
   -5.9763    0.7307    6.0079 H   0  0  0  0  0  0  0  0  0  0  0  0
    1.6428   -2.7522    2.9060 H   0  0  0  0  0  0  0  0  0  0  0  0
    1.8173   -4.7848    4.2571 H   0  0  0  0  0  0  0  0  0  0  0  0
   -1.0478   -6.8955    5.2093 H   0  0  0  0  0  0  0  0  0  0  0  0
    0.7165   -6.8113    5.1000 H   0  0  0  0  0  0  0  0  0  0  0  0
   -0.0290   -6.7259    7.4699 H   0  0  0  0  0  0  0  0  0  0  0  0
    0.7552   -5.2096    7.0137 H   0  0  0  0  0  0  0  0  0  0  0  0
   -1.0027   -5.2930    7.1220 H   0  0  0  0  0  0  0  0  0  0  0  0
   -2.4337   -4.9779    4.5352 H   0  0  0  0  0  0  0  0  0  0  0  0
   -2.6144   -2.9492    3.1708 H   0  0  0  0  0  0  0  0  0  0  0  0
   -1.1633   -3.5810    0.5926 H   0  0  0  0  0  0  0  0  0  0  0  0
   -2.7967   -3.8034   -1.2210 H   0  0  0  0  0  0  0  0  0  0  0  0
   -4.8084   -1.0163   -2.5527 H   0  0  0  0  0  0  0  0  0  0  0  0
   -4.2589   -2.6736   -2.8413 H   0  0  0  0  0  0  0  0  0  0  0  0
   -6.6732   -2.6281   -2.2404 H   0  0  0  0  0  0  0  0  0  0  0  0
   -5.7413   -3.4842   -1.0070 H   0  0  0  0  0  0  0  0  0  0  0  0
   -6.2846   -1.8333   -0.7106 H   0  0  0  0  0  0  0  0  0  0  0  0
   -4.0940    0.2023   -0.5474 H   0  0  0  0  0  0  0  0  0  0  0  0
   -2.4437    0.4405    1.2434 H   0  0  0  0  0  0  0  0  0  0  0  0
    2.6802    1.6868    2.4812 H   0  0  0  0  0  0  0  0  0  0  0  0
    3.3095    2.1708   -2.0023 H   0  0  0  0  0  0  0  0  0  0  0  0
    3.0491    4.5784   -2.3466 H   0  0  0  0  0  0  0  0  0  0  0  0
    2.8738    6.8036   -1.3392 H   0  0  0  0  0  0  0  0  0  0  0  0
    3.4929    7.1050    0.2910 H   0  0  0  0  0  0  0  0  0  0  0  0
    5.8298    6.9722   -0.5755 H   0  0  0  0  0  0  0  0  0  0  0  0
    5.2127    6.6735   -2.1999 H   0  0  0  0  0  0  0  0  0  0  0  0
    4.9107    8.2271   -1.4138 H   0  0  0  0  0  0  0  0  0  0  0  0
    4.6220    5.3136    1.5480 H   0  0  0  0  0  0  0  0  0  0  0  0
    4.9106    2.9043    1.8882 H   0  0  0  0  0  0  0  0  0  0  0  0
    6.7682    1.8019   -0.2037 H   0  0  0  0  0  0  0  0  0  0  0  0
    8.8308    1.2618    1.0058 H   0  0  0  0  0  0  0  0  0  0  0  0
    9.8294    0.4373    3.1098 H   0  0  0  0  0  0  0  0  0  0  0  0
    8.9301   -0.6762    4.1504 H   0  0  0  0  0  0  0  0  0  0  0  0
   10.7558   -1.8620    2.9495 H   0  0  0  0  0  0  0  0  0  0  0  0
    9.1790   -2.4733    2.4371 H   0  0  0  0  0  0  0  0  0  0  0  0
   10.0722   -1.3631    1.3984 H   0  0  0  0  0  0  0  0  0  0  0  0
    6.6343   -1.3144    3.5990 H   0  0  0  0  0  0  0  0  0  0  0  0
    4.5743   -0.7884    2.3863 H   0  0  0  0  0  0  0  0  0  0  0  0
    0.9395   -2.2255   -0.1301 H   0  0  0  0  0  0  0  0  0  0  0  0
    7.8594    0.7148   -5.7443 H   0  0  0  0  0  0  0  0  0  0  0  0
    7.8951   -0.2471   -7.9344 H   0  0  0  0  0  0  0  0  0  0  0  0
    3.3942   -3.9668  -10.2380 H   0  0  0  0  0  0  0  0  0  0  0  0
    7.0501   -1.9611  -13.1135 H   0  0  0  0  0  0  0  0  0  0  0  0
    4.3775   -2.9009  -15.0431 H   0  0  0  0  0  0  0  0  0  0  0  0
    5.9532   -4.6714  -15.8048 H   0  0  0  0  0  0  0  0  0  0  0  0
    7.0308   -5.6876  -13.6504 H   0  0  0  0  0  0  0  0  0  0  0  0
    5.0963   -6.7587  -12.1783 H   0  0  0  0  0  0  0  0  0  0  0  0
    2.8253   -6.4018  -13.4264 H   0  0  0  0  0  0  0  0  0  0  0  0
    3.3317   -5.2852  -15.8228 H   0  0  0  0  0  0  0  0  0  0  0  0
    4.3221   -6.7464  -15.5834 H   0  0  0  0  0  0  0  0  0  0  0  0
    2.4979   -3.9402  -13.6122 H   0  0  0  0  0  0  0  0  0  0  0  0
  1  2  2  0  0  0  0
  2  3  1  0  0  0  0
  3  4  2  0  0  0  0
  3  5  1  0  0  0  0
  5  6  2  0  0  0  0
  6  7  1  0  0  0  0
  7  8  2  0  0  0  0
  8  9  1  0  0  0  0
  9 10  2  0  0  0  0
 10 11  1  0  0  0  0
 11 12  2  0  0  0  0
 12 13  1  0  0  0  0
 13 14  3  0  0  0  0
 12 15  1  0  0  0  0
 15 16  3  0  0  0  0
  8 17  1  0  0  0  0
 17 18  1  0  0  0  0
 18 19  1  0  0  0  0
 19 20  2  0  0  0  0
 20 21  1  0  0  0  0
 21 22  1  0  0  0  0
 21 23  1  0  0  0  0
  1 24  1  0  0  0  0
 24 25  2  0  0  0  0
 25 26  1  0  0  0  0
 26 27  1  0  0  0  0
 27 28  1  0  0  0  0
 28 29  1  0  0  0  0
 29 30  1  0  0  0  0
 30 31  1  0  0  0  0
 31 32  2  0  0  0  0
 32 33  1  0  0  0  0
 33 34  2  0  0  0  0
 34 35  1  0  0  0  0
 35 36  1  0  0  0  0
 34 37  1  0  0  0  0
 37 38  2  0  0  0  0
 30 39  1  0  0  0  0
 39 40  2  0  0  0  0
 40 41  1  0  0  0  0
 41 42  2  0  0  0  0
 42 43  1  0  0  0  0
 43 44  1  0  0  0  0
 42 45  1  0  0  0  0
 45 46  2  0  0  0  0
 30 47  1  0  0  0  0
 47 48  2  0  0  0  0
 48 49  1  0  0  0  0
 49 50  1  0  0  0  0
 50 51  1  0  0  0  0
 51 52  1  0  0  0  0
 52 53  1  0  0  0  0
 48 54  1  0  0  0  0
 54 55  2  0  0  0  0
 55 56  1  0  0  0  0
 56 57  1  0  0  0  0
 57 58  2  0  0  0  0
 58 59  1  0  0  0  0
 59 60  2  0  0  0  0
 60 61  1  0  0  0  0
 61 62  1  0  0  0  0
 60 63  1  0  0  0  0
 63 64  2  0  0  0  0
 56 65  1  0  0  0  0
 65 66  2  0  0  0  0
 66 67  1  0  0  0  0
 67 68  2  0  0  0  0
 68 69  1  0  0  0  0
 69 70  1  0  0  0  0
 68 71  1  0  0  0  0
 71 72  2  0  0  0  0
 56 73  1  0  0  0  0
 73 74  2  0  0  0  0
 74 75  1  0  0  0  0
 75 76  2  0  0  0  0
 74 77  1  0  0  0  0
 77 78  1  0  0  0  0
 78 79  2  0  0  0  0
 79 80  1  0  0  0  0
 80 81  1  0  0  0  0
 81 82  1  0  0  0  0
 82 83  2  0  0  0  0
 83 84  1  0  0  0  0
 84 85  1  0  0  0  0
 83 86  1  0  0  0  0
 86 87  2  0  0  0  0
 87 88  1  0  0  0  0
 88 89  2  0  0  0  0
 88 90  1  0  0  0  0
 90 91  2  0  0  0  0
 91 92  1  0  0  0  0
 92 93  2  0  0  0  0
 93 94  1  0  0  0  0
 94 95  2  0  0  0  0
 95 96  1  0  0  0  0
 96 97  2  0  0  0  0
 97 98  1  0  0  0  0
 98 99  3  0  0  0  0
 97100  1  0  0  0  0
100101  3  0  0  0  0
 93102  1  0  0  0  0
102103  1  0  0  0  0
103104  1  0  0  0  0
104105  2  0  0  0  0
105106  1  0  0  0  0
106107  1  0  0  0  0
106108  1  0  0  0  0
 11  2  1  0  0  0  0
 23 17  1  0  0  0  0
 53 24  1  0  0  0  0
 75 55  1  0  0  0  0
 85 78  1  0  0  0  0
 96 87  1  0  0  0  0
108102  1  0  0  0  0
 10  5  1  0  0  0  0
 22 18  1  0  0  0  0
 52 26  2  0  0  0  0
 64 57  1  0  0  0  0
 72 65  1  0  0  0  0
 79 73  1  0  0  0  0
 85 81  2  0  0  0  0
 95 90  1  0  0  0  0
107103  1  0  0  0  0
 23  7  1  0  0  0  0
 51 28  2  0  0  0  0
108 92  1  0  0  0  0
 49 29  2  0  0  0  0
 38 31  1  0  0  0  0
 46 39  1  0  0  0  0
 76 47  1  0  0  0  0
  1109  1  0  0  0  0
  6110  1  0  0  0  0
  9111  1  0  0  0  0
 17112  1  0  0  0  0
 18113  1  0  0  0  0
 19114  1  0  0  0  0
 20115  1  0  0  0  0
 21116  1  0  0  0  0
 22117  1  0  0  0  0
 22118  1  0  0  0  0
 23119  1  0  0  0  0
 25120  1  0  0  0  0
 32121  1  0  0  0  0
 33122  1  0  0  0  0
 35123  1  0  0  0  0
 35124  1  0  0  0  0
 36125  1  0  0  0  0
 36126  1  0  0  0  0
 36127  1  0  0  0  0
 37128  1  0  0  0  0
 38129  1  0  0  0  0
 40130  1  0  0  0  0
 41131  1  0  0  0  0
 43132  1  0  0  0  0
 43133  1  0  0  0  0
 44134  1  0  0  0  0
 44135  1  0  0  0  0
 44136  1  0  0  0  0
 45137  1  0  0  0  0
 46138  1  0  0  0  0
 54139  1  0  0  0  0
 58140  1  0  0  0  0
 59141  1  0  0  0  0
 61142  1  0  0  0  0
 61143  1  0  0  0  0
 62144  1  0  0  0  0
 62145  1  0  0  0  0
 62146  1  0  0  0  0
 63147  1  0  0  0  0
 64148  1  0  0  0  0
 66149  1  0  0  0  0
 67150  1  0  0  0  0
 69151  1  0  0  0  0
 69152  1  0  0  0  0
 70153  1  0  0  0  0
 70154  1  0  0  0  0
 70155  1  0  0  0  0
 71156  1  0  0  0  0
 72157  1  0  0  0  0
 76158  1  0  0  0  0
 82159  1  0  0  0  0
 86160  1  0  0  0  0
 91161  1  0  0  0  0
 94162  1  0  0  0  0
102163  1  0  0  0  0
103164  1  0  0  0  0
104165  1  0  0  0  0
105166  1  0  0  0  0
106167  1  0  0  0  0
107168  1  0  0  0  0
107169  1  0  0  0  0
108170  1  0  0  0  0
M  END
