
  xtb     02022200053D
 energy: -274.867587069841 gnorm: 0.000458138421 xtb: 6.4.1 (unknown)
166187  0     0  0            999 V2000
   -4.4407    7.2346   -5.0044 C   0  0  0  0  0  0  0  0  0  0  0  0
   -4.3875    7.8337   -6.2332 C   0  0  0  0  0  0  0  0  0  0  0  0
   -3.6070    7.4406   -7.4302 C   0  0  0  0  0  0  0  0  0  0  0  0
   -2.9931    6.4132   -7.6387 O   0  0  0  0  0  0  0  0  0  0  0  0
   -3.7078    8.5729   -8.3681 C   0  0  0  0  0  0  0  0  0  0  0  0
   -3.0759    8.6814   -9.6057 C   0  0  0  0  0  0  0  0  0  0  0  0
   -3.3289    9.8622  -10.2601 C   0  0  0  0  0  0  0  0  0  0  0  0
   -4.1494   10.8636   -9.7226 C   0  0  0  0  0  0  0  0  0  0  0  0
   -4.7877   10.7637   -8.5095 C   0  0  0  0  0  0  0  0  0  0  0  0
   -4.5462    9.5662   -7.8275 C   0  0  0  0  0  0  0  0  0  0  0  0
   -5.0454    9.0962   -6.5383 C   0  0  0  0  0  0  0  0  0  0  0  0
   -6.0183    9.7180   -5.7996 C   0  0  0  0  0  0  0  0  0  0  0  0
   -6.6345   10.9359   -6.1580 C   0  0  0  0  0  0  0  0  0  0  0  0
   -7.1790   11.9227   -6.3774 N   0  0  0  0  0  0  0  0  0  0  0  0
   -6.5957    9.2345   -4.6055 C   0  0  0  0  0  0  0  0  0  0  0  0
   -7.1424    8.9189   -3.6457 N   0  0  0  0  0  0  0  0  0  0  0  0
   -3.9429   11.7783  -10.9042 C   0  0  0  0  0  0  0  0  0  0  0  0
   -2.9578   12.9500  -10.7058 C   0  0  0  0  0  0  0  0  0  0  0  0
   -2.5978   13.3616  -12.1151 C   0  0  0  0  0  0  0  0  0  0  0  0
   -1.8256   12.4122  -12.6280 C   0  0  0  0  0  0  0  0  0  0  0  0
   -1.6501   11.3432  -11.5736 C   0  0  0  0  0  0  0  0  0  0  0  0
   -1.6717   12.2129  -10.3100 C   0  0  0  0  0  0  0  0  0  0  0  0
   -3.0324   10.6599  -11.5056 C   0  0  0  0  0  0  0  0  0  0  0  0
   -3.8637    6.0447   -4.5171 C   0  0  0  0  0  0  0  0  0  0  0  0
   -3.1319    5.0409   -5.1316 C   0  0  0  0  0  0  0  0  0  0  0  0
   -2.7571    4.0505   -4.2363 C   0  0  0  0  0  0  0  0  0  0  0  0
   -1.8495    2.5802   -4.3869 S   0  0  0  0  0  0  0  0  0  0  0  0
   -2.0582    2.2763   -2.6880 C   0  0  0  0  0  0  0  0  0  0  0  0
   -1.5110    1.2339   -1.9066 C   0  0  0  0  0  0  0  0  0  0  0  0
   -1.9417    1.0932   -0.5987 C   0  0  0  0  0  0  0  0  0  0  0  0
   -3.0835    1.9379   -0.0864 C   0  0  0  0  0  0  0  0  0  0  0  0
   -3.0465    3.2408   -0.7099 O   0  0  0  0  0  0  0  0  0  0  0  0
   -2.8105    3.2501   -2.0355 C   0  0  0  0  0  0  0  0  0  0  0  0
   -3.2001    4.2630   -2.9187 C   0  0  0  0  0  0  0  0  0  0  0  0
   -4.0991    5.7216   -2.7914 S   0  0  0  0  0  0  0  0  0  0  0  0
   -4.4274    1.2969   -0.4048 C   0  0  0  0  0  0  0  0  0  0  0  0
   -5.5571    2.1052   -0.4240 C   0  0  0  0  0  0  0  0  0  0  0  0
   -6.7974    1.5662   -0.7033 C   0  0  0  0  0  0  0  0  0  0  0  0
   -6.9414    0.2090   -0.9637 C   0  0  0  0  0  0  0  0  0  0  0  0
   -8.2983   -0.3841   -1.2097 C   0  0  0  0  0  0  0  0  0  0  0  0
   -8.9482   -0.7892    0.1151 C   0  0  0  0  0  0  0  0  0  0  0  0
   -5.8087   -0.5933   -0.9383 C   0  0  0  0  0  0  0  0  0  0  0  0
   -4.5623   -0.0587   -0.6664 C   0  0  0  0  0  0  0  0  0  0  0  0
   -2.8875    2.1487    1.4036 C   0  0  0  0  0  0  0  0  0  0  0  0
   -1.8751    2.9955    1.8348 C   0  0  0  0  0  0  0  0  0  0  0  0
   -1.6070    3.1312    3.1829 C   0  0  0  0  0  0  0  0  0  0  0  0
   -2.3368    2.4219    4.1283 C   0  0  0  0  0  0  0  0  0  0  0  0
   -1.9867    2.4969    5.5857 C   0  0  0  0  0  0  0  0  0  0  0  0
   -0.9805    1.3984    5.9374 C   0  0  0  0  0  0  0  0  0  0  0  0
   -3.3567    1.5889    3.6893 C   0  0  0  0  0  0  0  0  0  0  0  0
   -3.6335    1.4501    2.3418 C   0  0  0  0  0  0  0  0  0  0  0  0
   -1.2216    0.0982    0.0665 C   0  0  0  0  0  0  0  0  0  0  0  0
   -1.2425   -0.5567    1.6699 S   0  0  0  0  0  0  0  0  0  0  0  0
    0.0562   -1.6409    1.2378 C   0  0  0  0  0  0  0  0  0  0  0  0
    0.6360   -2.6598    2.0275 C   0  0  0  0  0  0  0  0  0  0  0  0
    1.4202   -3.6118    1.3810 C   0  0  0  0  0  0  0  0  0  0  0  0
    1.6552   -3.6075    0.0554 O   0  0  0  0  0  0  0  0  0  0  0  0
    1.6519   -2.3085   -0.5754 C   0  0  0  0  0  0  0  0  0  0  0  0
    1.4929   -2.5448   -2.0658 C   0  0  0  0  0  0  0  0  0  0  0  0
    2.2202   -1.8216   -3.0000 C   0  0  0  0  0  0  0  0  0  0  0  0
    2.0042   -2.0205   -4.3513 C   0  0  0  0  0  0  0  0  0  0  0  0
    1.0629   -2.9375   -4.7984 C   0  0  0  0  0  0  0  0  0  0  0  0
    0.8628   -3.1787   -6.2663 C   0  0  0  0  0  0  0  0  0  0  0  0
    1.7848   -4.2988   -6.7524 C   0  0  0  0  0  0  0  0  0  0  0  0
    0.3434   -3.6611   -3.8556 C   0  0  0  0  0  0  0  0  0  0  0  0
    0.5497   -3.4647   -2.5042 C   0  0  0  0  0  0  0  0  0  0  0  0
    2.9662   -1.6141   -0.2402 C   0  0  0  0  0  0  0  0  0  0  0  0
    3.0457   -0.2516    0.0097 C   0  0  0  0  0  0  0  0  0  0  0  0
    4.2644    0.3316    0.3049 C   0  0  0  0  0  0  0  0  0  0  0  0
    5.4260   -0.4267    0.3610 C   0  0  0  0  0  0  0  0  0  0  0  0
    6.7380    0.2048    0.7268 C   0  0  0  0  0  0  0  0  0  0  0  0
    6.9506    0.1569    2.2412 C   0  0  0  0  0  0  0  0  0  0  0  0
    5.3378   -1.7909    0.1134 C   0  0  0  0  0  0  0  0  0  0  0  0
    4.1248   -2.3786   -0.1886 C   0  0  0  0  0  0  0  0  0  0  0  0
    0.4798   -1.5018   -0.0731 C   0  0  0  0  0  0  0  0  0  0  0  0
   -0.2526   -0.5188   -0.7408 C   0  0  0  0  0  0  0  0  0  0  0  0
   -0.2242    0.1377   -2.3429 S   0  0  0  0  0  0  0  0  0  0  0  0
    1.8558   -4.5990    2.2704 C   0  0  0  0  0  0  0  0  0  0  0  0
    1.4207   -4.3909    3.5911 C   0  0  0  0  0  0  0  0  0  0  0  0
    0.4543   -2.9559    3.7323 S   0  0  0  0  0  0  0  0  0  0  0  0
    1.8514   -5.3555    4.4906 C   0  0  0  0  0  0  0  0  0  0  0  0
    2.6236   -6.3287    3.8750 C   0  0  0  0  0  0  0  0  0  0  0  0
    2.8072   -6.0222    2.1405 S   0  0  0  0  0  0  0  0  0  0  0  0
    3.2531   -7.4950    4.3535 C   0  0  0  0  0  0  0  0  0  0  0  0
    3.3946   -8.0046    5.6150 C   0  0  0  0  0  0  0  0  0  0  0  0
    3.0113   -7.3984    6.9114 C   0  0  0  0  0  0  0  0  0  0  0  0
    2.3507   -6.4004    7.1197 O   0  0  0  0  0  0  0  0  0  0  0  0
    3.6106   -8.2552    7.9507 C   0  0  0  0  0  0  0  0  0  0  0  0
    3.5649   -8.0438    9.3277 C   0  0  0  0  0  0  0  0  0  0  0  0
    4.2254   -8.9985   10.0621 C   0  0  0  0  0  0  0  0  0  0  0  0
    4.8825  -10.0861    9.4705 C   0  0  0  0  0  0  0  0  0  0  0  0
    4.9287  -10.3101    8.1155 C   0  0  0  0  0  0  0  0  0  0  0  0
    4.2619   -9.3487    7.3486 C   0  0  0  0  0  0  0  0  0  0  0  0
    4.0873   -9.2520    5.9022 C   0  0  0  0  0  0  0  0  0  0  0  0
    4.4608  -10.2147    5.0004 C   0  0  0  0  0  0  0  0  0  0  0  0
    5.1239  -11.4129    5.3410 C   0  0  0  0  0  0  0  0  0  0  0  0
    5.6685  -12.4049    5.5356 N   0  0  0  0  0  0  0  0  0  0  0  0
    4.2168  -10.1979    3.6101 C   0  0  0  0  0  0  0  0  0  0  0  0
    4.0489  -10.2893    2.4771 N   0  0  0  0  0  0  0  0  0  0  0  0
    5.3398  -10.6356   10.7985 C   0  0  0  0  0  0  0  0  0  0  0  0
    6.8161  -10.3889   11.1750 C   0  0  0  0  0  0  0  0  0  0  0  0
    6.8465  -10.5943   12.6723 C   0  0  0  0  0  0  0  0  0  0  0  0
    6.2239   -9.5656   13.2334 C   0  0  0  0  0  0  0  0  0  0  0  0
    5.7625   -8.6473   12.1247 C   0  0  0  0  0  0  0  0  0  0  0  0
    6.9002   -8.8581   11.1173 C   0  0  0  0  0  0  0  0  0  0  0  0
    4.6066   -9.4239   11.4584 C   0  0  0  0  0  0  0  0  0  0  0  0
   -4.9986    7.7666   -4.2424 H   0  0  0  0  0  0  0  0  0  0  0  0
   -2.4519    7.8846   -9.9793 H   0  0  0  0  0  0  0  0  0  0  0  0
   -5.4172   11.5426   -8.1134 H   0  0  0  0  0  0  0  0  0  0  0  0
   -4.8426   12.0661  -11.4446 H   0  0  0  0  0  0  0  0  0  0  0  0
   -3.3111   13.7341  -10.0418 H   0  0  0  0  0  0  0  0  0  0  0  0
   -2.9751   14.2443  -12.5971 H   0  0  0  0  0  0  0  0  0  0  0  0
   -1.4290   12.3434  -13.6240 H   0  0  0  0  0  0  0  0  0  0  0  0
   -0.8116   10.6637  -11.7005 H   0  0  0  0  0  0  0  0  0  0  0  0
   -1.7510   11.6474   -9.3833 H   0  0  0  0  0  0  0  0  0  0  0  0
   -0.8143   12.8817  -10.2562 H   0  0  0  0  0  0  0  0  0  0  0  0
   -3.3268   10.1989  -12.4465 H   0  0  0  0  0  0  0  0  0  0  0  0
   -2.8870    5.0524   -6.1776 H   0  0  0  0  0  0  0  0  0  0  0  0
   -5.4540    3.1605   -0.2186 H   0  0  0  0  0  0  0  0  0  0  0  0
   -7.6661    2.2083   -0.7177 H   0  0  0  0  0  0  0  0  0  0  0  0
   -8.2088   -1.2633   -1.8507 H   0  0  0  0  0  0  0  0  0  0  0  0
   -8.9351    0.3449   -1.7144 H   0  0  0  0  0  0  0  0  0  0  0  0
   -9.0576    0.0773    0.7633 H   0  0  0  0  0  0  0  0  0  0  0  0
   -8.3334   -1.5251    0.6288 H   0  0  0  0  0  0  0  0  0  0  0  0
   -9.9317   -1.2190   -0.0595 H   0  0  0  0  0  0  0  0  0  0  0  0
   -5.8997   -1.6515   -1.1372 H   0  0  0  0  0  0  0  0  0  0  0  0
   -3.6975   -0.7057   -0.6529 H   0  0  0  0  0  0  0  0  0  0  0  0
   -1.2981    3.5464    1.1066 H   0  0  0  0  0  0  0  0  0  0  0  0
   -0.8135    3.7902    3.5054 H   0  0  0  0  0  0  0  0  0  0  0  0
   -1.5534    3.4719    5.8166 H   0  0  0  0  0  0  0  0  0  0  0  0
   -2.8859    2.3689    6.1910 H   0  0  0  0  0  0  0  0  0  0  0  0
   -1.3968    0.4183    5.7158 H   0  0  0  0  0  0  0  0  0  0  0  0
   -0.0697    1.5193    5.3553 H   0  0  0  0  0  0  0  0  0  0  0  0
   -0.7263    1.4387    6.9938 H   0  0  0  0  0  0  0  0  0  0  0  0
   -3.9396    1.0343    4.4103 H   0  0  0  0  0  0  0  0  0  0  0  0
   -4.4251    0.7901    2.0209 H   0  0  0  0  0  0  0  0  0  0  0  0
    2.9538   -1.0998   -2.6737 H   0  0  0  0  0  0  0  0  0  0  0  0
    2.5744   -1.4485   -5.0688 H   0  0  0  0  0  0  0  0  0  0  0  0
    1.0796   -2.2657   -6.8237 H   0  0  0  0  0  0  0  0  0  0  0  0
   -0.1749   -3.4585   -6.4578 H   0  0  0  0  0  0  0  0  0  0  0  0
    1.6435   -4.4731   -7.8165 H   0  0  0  0  0  0  0  0  0  0  0  0
    2.8250   -4.0339   -6.5781 H   0  0  0  0  0  0  0  0  0  0  0  0
    1.5736   -5.2217   -6.2175 H   0  0  0  0  0  0  0  0  0  0  0  0
   -0.3932   -4.3805   -4.1837 H   0  0  0  0  0  0  0  0  0  0  0  0
   -0.0176   -4.0297   -1.7795 H   0  0  0  0  0  0  0  0  0  0  0  0
    2.1592    0.3639   -0.0319 H   0  0  0  0  0  0  0  0  0  0  0  0
    4.3117    1.3947    0.4928 H   0  0  0  0  0  0  0  0  0  0  0  0
    6.7535    1.2446    0.3942 H   0  0  0  0  0  0  0  0  0  0  0  0
    7.5541   -0.3252    0.2321 H   0  0  0  0  0  0  0  0  0  0  0  0
    6.9502   -0.8729    2.5912 H   0  0  0  0  0  0  0  0  0  0  0  0
    7.9012    0.6137    2.5061 H   0  0  0  0  0  0  0  0  0  0  0  0
    6.1533    0.6918    2.7526 H   0  0  0  0  0  0  0  0  0  0  0  0
    6.2298   -2.3995    0.1501 H   0  0  0  0  0  0  0  0  0  0  0  0
    4.0664   -3.4386   -0.3876 H   0  0  0  0  0  0  0  0  0  0  0  0
    1.6273   -5.3663    5.5413 H   0  0  0  0  0  0  0  0  0  0  0  0
    3.7195   -8.0662    3.5591 H   0  0  0  0  0  0  0  0  0  0  0  0
    3.0445   -7.1931    9.7391 H   0  0  0  0  0  0  0  0  0  0  0  0
    5.4382  -11.1524    7.6791 H   0  0  0  0  0  0  0  0  0  0  0  0
    5.0023  -11.6424   11.0368 H   0  0  0  0  0  0  0  0  0  0  0  0
    7.5357  -10.9534   10.5885 H   0  0  0  0  0  0  0  0  0  0  0  0
    7.2548  -11.4654   13.1501 H   0  0  0  0  0  0  0  0  0  0  0  0
    6.0081   -9.4058   14.2736 H   0  0  0  0  0  0  0  0  0  0  0  0
    5.5231   -7.6248   12.4040 H   0  0  0  0  0  0  0  0  0  0  0  0
    6.7039   -8.4394   10.1320 H   0  0  0  0  0  0  0  0  0  0  0  0
    7.8530   -8.4841   11.4886 H   0  0  0  0  0  0  0  0  0  0  0  0
    3.7797   -9.6224   12.1377 H   0  0  0  0  0  0  0  0  0  0  0  0
  1  2  2  0  0  0  0
  2  3  1  0  0  0  0
  3  4  2  0  0  0  0
  3  5  1  0  0  0  0
  5  6  2  0  0  0  0
  6  7  1  0  0  0  0
  7  8  2  0  0  0  0
  8  9  1  0  0  0  0
  9 10  2  0  0  0  0
 10 11  1  0  0  0  0
 11 12  2  0  0  0  0
 12 13  1  0  0  0  0
 13 14  3  0  0  0  0
 12 15  1  0  0  0  0
 15 16  3  0  0  0  0
  8 17  1  0  0  0  0
 17 18  1  0  0  0  0
 18 19  1  0  0  0  0
 19 20  2  0  0  0  0
 20 21  1  0  0  0  0
 21 22  1  0  0  0  0
 21 23  1  0  0  0  0
  1 24  1  0  0  0  0
 24 25  2  0  0  0  0
 25 26  1  0  0  0  0
 26 27  1  0  0  0  0
 27 28  1  0  0  0  0
 28 29  1  0  0  0  0
 29 30  2  0  0  0  0
 30 31  1  0  0  0  0
 31 32  1  0  0  0  0
 32 33  1  0  0  0  0
 33 34  1  0  0  0  0
 34 35  1  0  0  0  0
 31 36  1  0  0  0  0
 36 37  2  0  0  0  0
 37 38  1  0  0  0  0
 38 39  2  0  0  0  0
 39 40  1  0  0  0  0
 40 41  1  0  0  0  0
 39 42  1  0  0  0  0
 42 43  2  0  0  0  0
 31 44  1  0  0  0  0
 44 45  2  0  0  0  0
 45 46  1  0  0  0  0
 46 47  2  0  0  0  0
 47 48  1  0  0  0  0
 48 49  1  0  0  0  0
 47 50  1  0  0  0  0
 50 51  2  0  0  0  0
 30 52  1  0  0  0  0
 52 53  1  0  0  0  0
 53 54  1  0  0  0  0
 54 55  1  0  0  0  0
 55 56  2  0  0  0  0
 56 57  1  0  0  0  0
 57 58  1  0  0  0  0
 58 59  1  0  0  0  0
 59 60  2  0  0  0  0
 60 61  1  0  0  0  0
 61 62  2  0  0  0  0
 62 63  1  0  0  0  0
 63 64  1  0  0  0  0
 62 65  1  0  0  0  0
 65 66  2  0  0  0  0
 58 67  1  0  0  0  0
 67 68  2  0  0  0  0
 68 69  1  0  0  0  0
 69 70  2  0  0  0  0
 70 71  1  0  0  0  0
 71 72  1  0  0  0  0
 70 73  1  0  0  0  0
 73 74  2  0  0  0  0
 58 75  1  0  0  0  0
 75 76  1  0  0  0  0
 76 77  1  0  0  0  0
 56 78  1  0  0  0  0
 78 79  2  0  0  0  0
 79 80  1  0  0  0  0
 79 81  1  0  0  0  0
 81 82  2  0  0  0  0
 82 83  1  0  0  0  0
 82 84  1  0  0  0  0
 84 85  2  0  0  0  0
 85 86  1  0  0  0  0
 86 87  2  0  0  0  0
 86 88  1  0  0  0  0
 88 89  2  0  0  0  0
 89 90  1  0  0  0  0
 90 91  2  0  0  0  0
 91 92  1  0  0  0  0
 92 93  2  0  0  0  0
 93 94  1  0  0  0  0
 94 95  2  0  0  0  0
 95 96  1  0  0  0  0
 96 97  3  0  0  0  0
 95 98  1  0  0  0  0
 98 99  3  0  0  0  0
 91100  1  0  0  0  0
100101  1  0  0  0  0
101102  1  0  0  0  0
102103  2  0  0  0  0
103104  1  0  0  0  0
104105  1  0  0  0  0
104106  1  0  0  0  0
 11  2  1  0  0  0  0
 23 17  1  0  0  0  0
 35 24  1  0  0  0  0
 43 36  1  0  0  0  0
 51 44  1  0  0  0  0
 76 52  2  0  0  0  0
 83 78  1  0  0  0  0
 94 85  1  0  0  0  0
106100  1  0  0  0  0
 10  5  1  0  0  0  0
 22 18  1  0  0  0  0
 34 26  2  0  0  0  0
 75 54  2  0  0  0  0
 93 88  1  0  0  0  0
105101  1  0  0  0  0
 23  7  1  0  0  0  0
 33 28  2  0  0  0  0
 80 55  1  0  0  0  0
106 90  1  0  0  0  0
 77 29  1  0  0  0  0
 66 59  1  0  0  0  0
 74 67  1  0  0  0  0
  1107  1  0  0  0  0
  6108  1  0  0  0  0
  9109  1  0  0  0  0
 17110  1  0  0  0  0
 18111  1  0  0  0  0
 19112  1  0  0  0  0
 20113  1  0  0  0  0
 21114  1  0  0  0  0
 22115  1  0  0  0  0
 22116  1  0  0  0  0
 23117  1  0  0  0  0
 25118  1  0  0  0  0
 37119  1  0  0  0  0
 38120  1  0  0  0  0
 40121  1  0  0  0  0
 40122  1  0  0  0  0
 41123  1  0  0  0  0
 41124  1  0  0  0  0
 41125  1  0  0  0  0
 42126  1  0  0  0  0
 43127  1  0  0  0  0
 45128  1  0  0  0  0
 46129  1  0  0  0  0
 48130  1  0  0  0  0
 48131  1  0  0  0  0
 49132  1  0  0  0  0
 49133  1  0  0  0  0
 49134  1  0  0  0  0
 50135  1  0  0  0  0
 51136  1  0  0  0  0
 60137  1  0  0  0  0
 61138  1  0  0  0  0
 63139  1  0  0  0  0
 63140  1  0  0  0  0
 64141  1  0  0  0  0
 64142  1  0  0  0  0
 64143  1  0  0  0  0
 65144  1  0  0  0  0
 66145  1  0  0  0  0
 68146  1  0  0  0  0
 69147  1  0  0  0  0
 71148  1  0  0  0  0
 71149  1  0  0  0  0
 72150  1  0  0  0  0
 72151  1  0  0  0  0
 72152  1  0  0  0  0
 73153  1  0  0  0  0
 74154  1  0  0  0  0
 81155  1  0  0  0  0
 84156  1  0  0  0  0
 89157  1  0  0  0  0
 92158  1  0  0  0  0
100159  1  0  0  0  0
101160  1  0  0  0  0
102161  1  0  0  0  0
103162  1  0  0  0  0
104163  1  0  0  0  0
105164  1  0  0  0  0
105165  1  0  0  0  0
106166  1  0  0  0  0
M  END
