168

C          2.87100       -6.18040        6.20320
C          3.18910       -7.36640        5.62330
C          3.46830       -8.54830        6.48720
O          3.68740       -8.53390        7.67750
C          3.36140       -9.71750        5.59590
C          3.40920      -11.06270        5.95620
C          3.24790      -11.93040        4.90320
C          3.02660      -11.49650        3.58870
C          2.98210      -10.17420        3.21710
C          3.17580       -9.27610        4.26880
C          3.25550       -7.81630        4.24740
C          3.64130       -7.07850        3.15920
C          3.97640       -5.70930        3.19790
N          4.31760       -4.61300        3.17730
C          3.90190       -7.64960        1.89520
N          4.15400       -8.08810        0.86500
C          2.94150      -12.90390        3.05390
C          4.16820      -13.45000        2.28270
C          5.36710      -12.69460        2.80090
C          5.59430      -13.10080        4.04280
C          4.55360      -14.13780        4.38680
C          4.35730      -14.79100        3.00930
C          3.20430      -13.38700        4.51510
C          2.23800       -5.05010        5.63540
C          2.27730       -3.76400        6.14230
C          1.59380       -2.86370        5.33170
S          1.40020       -1.13400        5.33930
C          0.53990       -1.24000        3.84020
C          0.05700       -0.30310        2.87320
C          0.03310        1.08860        2.88410
C         -0.42990        1.71870        1.75250
C         -0.54020        3.21050        1.48540
C          0.79640        3.92920        1.42660
C          0.81780        5.31630        1.43900
C          2.00300        6.01780        1.31650
C          3.20580        5.33310        1.17330
O          4.43640        5.90010        1.06300
C          4.56020        7.30560        0.97800
C          4.19210        7.84720       -0.40040
C          3.18370        3.93740        1.15470
C          1.99650        3.24670        1.27300
C         -1.46210        3.83070        2.51760
C         -2.81630        3.99190        2.27810
C         -3.65540        4.53820        3.23480
C         -3.14740        4.92420        4.46980
O         -3.86270        5.45190        5.49780
C         -5.22440        5.78470        5.31460
C         -5.41260        7.06970        4.51360
C         -1.78400        4.74650        4.71830
C         -0.95740        4.20930        3.75800
C         -1.10100        3.20520        0.08850
C         -1.26910        1.90760       -0.36610
C         -0.88160        0.96970        0.64040
C         -0.87500       -0.42290        0.63600
C         -0.39130       -1.05250        1.75780
C         -0.25470       -2.54420        2.01350
C          0.75890       -3.25600        1.13550
C          0.72560       -4.64390        1.03710
C          1.72120       -5.32310        0.37330
C          2.79910       -4.63760       -0.19340
O          3.73410       -5.41990       -0.78200
C          4.91130       -4.84720       -1.31350
C          4.70490       -4.27410       -2.71320
C          2.83200       -3.25040       -0.09730
C          1.82200       -2.57520        0.56620
C         -1.63050       -3.17430        1.95610
C         -2.17220       -3.55500        0.73770
C         -3.44140       -4.09920        0.65420
C         -4.20240       -4.27320        1.80580
O         -5.44580       -4.82070        1.86560
C         -6.11960       -5.17740        0.67560
C         -6.70720       -3.97140       -0.05170
C         -3.66130       -3.88180        3.03160
C         -2.39750       -3.33740        3.10320
C          0.36700       -2.53460        3.38260
C          0.97670       -3.46310        4.21960
S          1.24480       -5.15970        4.18600
S         -1.83990        1.79290       -1.99510
C         -1.83940        3.53180       -2.09650
C         -2.14710        4.42450       -3.11200
C         -1.97130        5.74110       -2.71600
S         -1.43060        5.84950       -1.03150
C         -1.41990        4.13870       -0.89360
C         -2.14890        6.96770       -3.38280
C         -2.40280        7.25570       -4.69630
C         -2.42380        6.33900       -5.85900
O         -2.43860        5.12430       -5.87360
C         -2.41230        7.20430       -7.05310
C         -2.33570        6.78570       -8.37940
C         -2.32690        7.81400       -9.29010
C         -2.38640        9.16170       -8.91000
C         -2.46220        9.58740       -7.60540
C         -2.47790        8.55540       -6.66230
C         -2.55180        8.60980       -5.20530
C         -2.79650        9.74020       -4.46910
C         -2.97290        9.79480       -3.07000
N         -3.14920        9.93860       -1.94390
C         -2.96290       11.02860       -5.01930
N         -3.10490       12.10580       -5.39090
C         -2.33970        9.64840      -10.33660
C         -3.66560       10.12660      -10.97830
C         -4.77580        9.39580      -10.26460
C         -4.71890        8.12080      -10.62530
C         -3.56850        7.96620      -11.58900
C         -3.61950        9.33150      -12.29300
C         -2.27290        8.14700      -10.75990
H          3.08090       -6.11640        7.26710
H          3.56520      -11.35700        6.98220
H          2.80240       -9.84970        2.20540
H          1.99810      -13.18180        2.58800
H          4.04770      -13.47660        1.20310
H          5.87250      -11.92390        2.24900
H          6.32990      -12.73800        4.73660
H          4.78630      -14.79240        5.22270
H          5.23930      -15.33250        2.67070
H          3.48420      -15.44020        2.95720
H          2.43950      -13.99050        5.00030
H          2.82790       -3.49870        7.02620
H          0.38190        1.64020        3.74290
H         -0.10660        5.86380        1.55110
H          1.96720        7.09520        1.33700
H          5.61820        7.49540        1.17950
H          3.96800        7.79500        1.76110
H          4.81170        7.37480       -1.15870
H          4.35680        8.92080       -0.42780
H          3.14980        7.64360       -0.63370
H          4.11960        3.41310        1.04370
H          2.00650        2.16730        1.24750
H         -3.23690        3.69420        1.32860
H         -4.70170        4.65010        2.99830
H         -5.60630        5.92170        6.33030
H         -5.76860        4.95140        4.85290
H         -6.47040        7.30930        4.44840
H         -5.01110        6.96530        3.50870
H         -4.89450        7.88890        5.00560
H         -1.39800        5.04310        5.68070
H          0.09660        4.09700        3.96460
H         -1.22040       -0.97380       -0.22470
H         -0.08720       -5.19450        1.48820
H          1.70440       -6.39840        0.29110
H          5.61910       -5.67980       -1.35600
H          5.31160       -4.08760       -0.63120
H          4.33590       -5.05250       -3.37620
H          3.98130       -3.46260       -2.70130
H          5.64940       -3.89980       -3.09850
H          3.64460       -2.67920       -0.51670
H          1.87390       -1.49870        0.64400
H         -1.58920       -3.44240       -0.16480
H         -3.81610       -4.38750       -0.31520
H         -6.92570       -5.83700        1.00950
H         -5.45930       -5.75040        0.01290
H         -5.92390       -3.28560       -0.36520
H         -7.38460       -3.43790        0.61030
H         -7.25780       -4.30420       -0.92740
H         -4.25680       -4.01960        3.92020
H         -2.00300       -3.03960        4.06360
H         -2.47250        4.14990       -4.09790
H         -2.02160        7.82160       -2.72680
H         -2.28660        5.73670       -8.62670
H         -2.49820       10.62800       -7.32960
H         -1.49920       10.28940      -10.59500
H         -3.76920       11.20590      -11.04830
H         -5.43140        9.85590       -9.54880
H         -5.31760        7.30220      -10.27090
H         -3.58300        7.07860      -12.21600
H         -2.73750        9.54190      -12.89640
H         -4.51710        9.46140      -12.89560
H         -1.38750        7.80710      -11.29370
