
  xtb     02012220413D
 energy: -267.781400904215 gnorm: 0.000342104712 xtb: 6.4.1 (unknown)
171191  0     0  0            999 V2000
    2.3559    2.9633   -6.6277 C   0  0  0  0  0  0  0  0  0  0  0  0
    2.3183    4.2066   -7.2008 C   0  0  0  0  0  0  0  0  0  0  0  0
    1.8104    5.4763   -6.6345 C   0  0  0  0  0  0  0  0  0  0  0  0
    1.5451    5.7476   -5.4804 O   0  0  0  0  0  0  0  0  0  0  0  0
    1.6709    6.3978   -7.7792 C   0  0  0  0  0  0  0  0  0  0  0  0
    1.1340    7.6834   -7.7507 C   0  0  0  0  0  0  0  0  0  0  0  0
    1.1022    8.3033   -8.9764 C   0  0  0  0  0  0  0  0  0  0  0  0
    1.5635    7.6878  -10.1478 C   0  0  0  0  0  0  0  0  0  0  0  0
    2.0996    6.4230  -10.1890 C   0  0  0  0  0  0  0  0  0  0  0  0
    2.1499    5.7783   -8.9489 C   0  0  0  0  0  0  0  0  0  0  0  0
    2.6428    4.4500   -8.5963 C   0  0  0  0  0  0  0  0  0  0  0  0
    3.3563    3.6270   -9.4291 C   0  0  0  0  0  0  0  0  0  0  0  0
    3.9325    2.3896   -9.0708 C   0  0  0  0  0  0  0  0  0  0  0  0
    4.4537    1.3868   -8.8641 N   0  0  0  0  0  0  0  0  0  0  0  0
    3.6701    3.9313  -10.7701 C   0  0  0  0  0  0  0  0  0  0  0  0
    3.9615    4.1092  -11.8665 N   0  0  0  0  0  0  0  0  0  0  0  0
    1.2182    8.8796  -11.0058 C   0  0  0  0  0  0  0  0  0  0  0  0
    2.3931    9.7837  -11.4343 C   0  0  0  0  0  0  0  0  0  0  0  0
    1.7262   11.0821  -11.8273 C   0  0  0  0  0  0  0  0  0  0  0  0
    1.2950   11.6665  -10.7169 C   0  0  0  0  0  0  0  0  0  0  0  0
    1.6629   10.7728   -9.5545 C   0  0  0  0  0  0  0  0  0  0  0  0
    2.9822   10.1899  -10.0772 C   0  0  0  0  0  0  0  0  0  0  0  0
    0.7089    9.5679   -9.6989 C   0  0  0  0  0  0  0  0  0  0  0  0
    2.0492    2.5302   -5.3258 C   0  0  0  0  0  0  0  0  0  0  0  0
    1.9773    0.7779   -5.0916 S   0  0  0  0  0  0  0  0  0  0  0  0
    1.5551    1.0024   -3.4534 C   0  0  0  0  0  0  0  0  0  0  0  0
    1.1961    0.1706   -2.3505 C   0  0  0  0  0  0  0  0  0  0  0  0
    0.8879    1.0290   -1.2691 C   0  0  0  0  0  0  0  0  0  0  0  0
    1.0947    2.4848   -1.6511 C   0  0  0  0  0  0  0  0  0  0  0  0
   -0.1577    3.3381   -1.5905 C   0  0  0  0  0  0  0  0  0  0  0  0
   -0.0356    4.7185   -1.7013 C   0  0  0  0  0  0  0  0  0  0  0  0
   -1.1563    5.5243   -1.6868 C   0  0  0  0  0  0  0  0  0  0  0  0
   -2.4273    4.9758   -1.5648 C   0  0  0  0  0  0  0  0  0  0  0  0
   -3.6451    5.8541   -1.5878 C   0  0  0  0  0  0  0  0  0  0  0  0
   -4.0988    6.0986   -3.0283 C   0  0  0  0  0  0  0  0  0  0  0  0
   -2.5439    3.5964   -1.4722 C   0  0  0  0  0  0  0  0  0  0  0  0
   -1.4243    2.7830   -1.4891 C   0  0  0  0  0  0  0  0  0  0  0  0
    2.1923    3.0368   -0.7572 C   0  0  0  0  0  0  0  0  0  0  0  0
    1.8711    3.5626    0.4880 C   0  0  0  0  0  0  0  0  0  0  0  0
    2.8635    4.0207    1.3330 C   0  0  0  0  0  0  0  0  0  0  0  0
    4.2006    3.9642    0.9609 C   0  0  0  0  0  0  0  0  0  0  0  0
    5.2788    4.4223    1.9000 C   0  0  0  0  0  0  0  0  0  0  0  0
    5.7130    3.2749    2.8143 C   0  0  0  0  0  0  0  0  0  0  0  0
    4.5165    3.4285   -0.2800 C   0  0  0  0  0  0  0  0  0  0  0  0
    3.5271    2.9666   -1.1288 C   0  0  0  0  0  0  0  0  0  0  0  0
    1.5028    2.3481   -3.0957 C   0  0  0  0  0  0  0  0  0  0  0  0
    1.7764    3.2101   -4.1432 C   0  0  0  0  0  0  0  0  0  0  0  0
    0.4811    0.5159   -0.0597 C   0  0  0  0  0  0  0  0  0  0  0  0
    0.3664   -0.8678    0.0376 C   0  0  0  0  0  0  0  0  0  0  0  0
   -0.0500   -1.6947    1.1240 C   0  0  0  0  0  0  0  0  0  0  0  0
   -0.0091   -3.0364    0.7785 C   0  0  0  0  0  0  0  0  0  0  0  0
    0.4366   -3.1849   -0.6610 C   0  0  0  0  0  0  0  0  0  0  0  0
    0.6781   -1.7261   -1.0411 C   0  0  0  0  0  0  0  0  0  0  0  0
    1.1022   -1.2157   -2.2440 C   0  0  0  0  0  0  0  0  0  0  0  0
   -0.6666   -3.6926   -1.5713 C   0  0  0  0  0  0  0  0  0  0  0  0
   -1.9899   -3.7249   -1.1510 C   0  0  0  0  0  0  0  0  0  0  0  0
   -2.9942   -4.1412   -2.0074 C   0  0  0  0  0  0  0  0  0  0  0  0
   -2.7094   -4.5268   -3.3093 C   0  0  0  0  0  0  0  0  0  0  0  0
   -3.7909   -5.0340   -4.2180 C   0  0  0  0  0  0  0  0  0  0  0  0
   -3.9372   -6.5506   -4.0759 C   0  0  0  0  0  0  0  0  0  0  0  0
   -1.3883   -4.4720   -3.7349 C   0  0  0  0  0  0  0  0  0  0  0  0
   -0.3831   -4.0548   -2.8842 C   0  0  0  0  0  0  0  0  0  0  0  0
    1.7220   -3.9916   -0.7145 C   0  0  0  0  0  0  0  0  0  0  0  0
    2.8874   -3.4209   -0.2146 C   0  0  0  0  0  0  0  0  0  0  0  0
    4.0718   -4.1313   -0.2002 C   0  0  0  0  0  0  0  0  0  0  0  0
    4.1293   -5.4334   -0.6813 C   0  0  0  0  0  0  0  0  0  0  0  0
    5.4060   -6.2203   -0.6252 C   0  0  0  0  0  0  0  0  0  0  0  0
    5.5083   -6.9766    0.7011 C   0  0  0  0  0  0  0  0  0  0  0  0
    2.9627   -6.0043   -1.1694 C   0  0  0  0  0  0  0  0  0  0  0  0
    1.7727   -5.2975   -1.1849 C   0  0  0  0  0  0  0  0  0  0  0  0
   -0.4269   -3.8424    1.8457 C   0  0  0  0  0  0  0  0  0  0  0  0
   -0.8096   -3.0589    2.9694 C   0  0  0  0  0  0  0  0  0  0  0  0
   -0.6114   -1.3561    2.7269 S   0  0  0  0  0  0  0  0  0  0  0  0
   -1.2469   -3.9416    3.9497 C   0  0  0  0  0  0  0  0  0  0  0  0
   -1.8902   -3.9736    5.5425 S   0  0  0  0  0  0  0  0  0  0  0  0
   -1.9835   -5.7369    5.4829 C   0  0  0  0  0  0  0  0  0  0  0  0
   -1.5502   -6.2451    4.2683 C   0  0  0  0  0  0  0  0  0  0  0  0
   -1.1148   -5.2426    3.4086 C   0  0  0  0  0  0  0  0  0  0  0  0
   -0.6033   -5.1681    2.1395 N   0  0  0  0  0  0  0  0  0  0  0  0
   -0.2972   -6.3121    1.3188 C   0  0  0  0  0  0  0  0  0  0  0  0
   -1.5131   -6.7987    0.5338 C   0  0  0  0  0  0  0  0  0  0  0  0
   -2.5674   -6.4940    6.5211 C   0  0  0  0  0  0  0  0  0  0  0  0
   -2.8305   -6.1314    7.8068 C   0  0  0  0  0  0  0  0  0  0  0  0
   -3.8912   -6.8311    8.5766 C   0  0  0  0  0  0  0  0  0  0  0  0
   -4.4089   -7.8915    8.3033 O   0  0  0  0  0  0  0  0  0  0  0  0
   -4.2171   -5.9238    9.6957 C   0  0  0  0  0  0  0  0  0  0  0  0
   -5.2521   -6.0587   10.6192 C   0  0  0  0  0  0  0  0  0  0  0  0
   -5.3270   -5.0328   11.5306 C   0  0  0  0  0  0  0  0  0  0  0  0
   -4.4451   -3.9435   11.5240 C   0  0  0  0  0  0  0  0  0  0  0  0
   -3.4165   -3.7979   10.6238 C   0  0  0  0  0  0  0  0  0  0  0  0
   -3.3185   -4.8359    9.6943 C   0  0  0  0  0  0  0  0  0  0  0  0
   -2.3470   -5.0418    8.6239 C   0  0  0  0  0  0  0  0  0  0  0  0
   -1.0834   -4.5120    8.5785 C   0  0  0  0  0  0  0  0  0  0  0  0
   -0.0914   -4.9888    7.6965 C   0  0  0  0  0  0  0  0  0  0  0  0
    0.7509   -5.3987    7.0326 N   0  0  0  0  0  0  0  0  0  0  0  0
   -0.6070   -3.5298    9.4674 C   0  0  0  0  0  0  0  0  0  0  0  0
   -0.1765   -2.7236   10.1627 N   0  0  0  0  0  0  0  0  0  0  0  0
   -5.1114   -3.2940   12.7112 C   0  0  0  0  0  0  0  0  0  0  0  0
   -4.3845   -3.4272   14.0660 C   0  0  0  0  0  0  0  0  0  0  0  0
   -5.4633   -3.1391   15.0849 C   0  0  0  0  0  0  0  0  0  0  0  0
   -6.2956   -4.1724   15.0944 C   0  0  0  0  0  0  0  0  0  0  0  0
   -5.7933   -5.1765   14.0820 C   0  0  0  0  0  0  0  0  0  0  0  0
   -4.2816   -4.9507   14.2141 C   0  0  0  0  0  0  0  0  0  0  0  0
   -6.0917   -4.5106   12.7219 C   0  0  0  0  0  0  0  0  0  0  0  0
    2.6186    2.1471   -7.2916 H   0  0  0  0  0  0  0  0  0  0  0  0
    0.7798    8.1149   -6.8276 H   0  0  0  0  0  0  0  0  0  0  0  0
    2.4407    5.9595  -11.0994 H   0  0  0  0  0  0  0  0  0  0  0  0
    0.5069    8.6960  -11.8088 H   0  0  0  0  0  0  0  0  0  0  0  0
    3.0673    9.3393  -12.1611 H   0  0  0  0  0  0  0  0  0  0  0  0
    1.5917   11.4041  -12.8433 H   0  0  0  0  0  0  0  0  0  0  0  0
    0.7283   12.5740  -10.6200 H   0  0  0  0  0  0  0  0  0  0  0  0
    1.6726   11.2306   -8.5690 H   0  0  0  0  0  0  0  0  0  0  0  0
    3.7570   10.9484  -10.1753 H   0  0  0  0  0  0  0  0  0  0  0  0
    3.3619    9.3552   -9.4909 H   0  0  0  0  0  0  0  0  0  0  0  0
   -0.3413    9.8466   -9.6319 H   0  0  0  0  0  0  0  0  0  0  0  0
    0.9446    5.1629   -1.7907 H   0  0  0  0  0  0  0  0  0  0  0  0
   -1.0431    6.5955   -1.7698 H   0  0  0  0  0  0  0  0  0  0  0  0
   -3.4185    6.8121   -1.1152 H   0  0  0  0  0  0  0  0  0  0  0  0
   -4.4554    5.3806   -1.0298 H   0  0  0  0  0  0  0  0  0  0  0  0
   -3.3040    6.5740   -3.5987 H   0  0  0  0  0  0  0  0  0  0  0  0
   -4.9754    6.7421   -3.0483 H   0  0  0  0  0  0  0  0  0  0  0  0
   -4.3475    5.1561   -3.5111 H   0  0  0  0  0  0  0  0  0  0  0  0
   -3.5235    3.1481   -1.3839 H   0  0  0  0  0  0  0  0  0  0  0  0
   -1.5428    1.7113   -1.4197 H   0  0  0  0  0  0  0  0  0  0  0  0
    0.8365    3.6269    0.7926 H   0  0  0  0  0  0  0  0  0  0  0  0
    2.5952    4.4317    2.2959 H   0  0  0  0  0  0  0  0  0  0  0  0
    4.9110    5.2491    2.5109 H   0  0  0  0  0  0  0  0  0  0  0  0
    6.1411    4.7749    1.3306 H   0  0  0  0  0  0  0  0  0  0  0  0
    6.4931    3.6054    3.4961 H   0  0  0  0  0  0  0  0  0  0  0  0
    6.0955    2.4451    2.2241 H   0  0  0  0  0  0  0  0  0  0  0  0
    4.8688    2.9169    3.3993 H   0  0  0  0  0  0  0  0  0  0  0  0
    5.5505    3.3730   -0.5896 H   0  0  0  0  0  0  0  0  0  0  0  0
    3.8003    2.5536   -2.0890 H   0  0  0  0  0  0  0  0  0  0  0  0
    1.7756    4.2822   -4.0858 H   0  0  0  0  0  0  0  0  0  0  0  0
    0.2457    1.1489    0.7816 H   0  0  0  0  0  0  0  0  0  0  0  0
    1.3524   -1.8438   -3.0841 H   0  0  0  0  0  0  0  0  0  0  0  0
   -2.2475   -3.4181   -0.1477 H   0  0  0  0  0  0  0  0  0  0  0  0
   -4.0158   -4.1627   -1.6551 H   0  0  0  0  0  0  0  0  0  0  0  0
   -4.7399   -4.5558   -3.9679 H   0  0  0  0  0  0  0  0  0  0  0  0
   -3.5478   -4.7915   -5.2543 H   0  0  0  0  0  0  0  0  0  0  0  0
   -4.7206   -6.9203   -4.7330 H   0  0  0  0  0  0  0  0  0  0  0  0
   -3.0043   -7.0467   -4.3345 H   0  0  0  0  0  0  0  0  0  0  0  0
   -4.1913   -6.8123   -3.0509 H   0  0  0  0  0  0  0  0  0  0  0  0
   -1.1428   -4.7546   -4.7486 H   0  0  0  0  0  0  0  0  0  0  0  0
    0.6339   -4.0202   -3.2451 H   0  0  0  0  0  0  0  0  0  0  0  0
    2.8656   -2.4092    0.1643 H   0  0  0  0  0  0  0  0  0  0  0  0
    4.9662   -3.6663    0.1884 H   0  0  0  0  0  0  0  0  0  0  0  0
    6.2598   -5.5471   -0.7222 H   0  0  0  0  0  0  0  0  0  0  0  0
    5.4378   -6.9346   -1.4503 H   0  0  0  0  0  0  0  0  0  0  0  0
    4.6749   -7.6675    0.8089 H   0  0  0  0  0  0  0  0  0  0  0  0
    6.4359   -7.5421    0.7454 H   0  0  0  0  0  0  0  0  0  0  0  0
    5.4851   -6.2807    1.5366 H   0  0  0  0  0  0  0  0  0  0  0  0
    2.9809   -7.0171   -1.5463 H   0  0  0  0  0  0  0  0  0  0  0  0
    0.8855   -5.7702   -1.5815 H   0  0  0  0  0  0  0  0  0  0  0  0
   -1.5431   -7.2989    4.0567 H   0  0  0  0  0  0  0  0  0  0  0  0
    0.5105   -6.0368    0.6384 H   0  0  0  0  0  0  0  0  0  0  0  0
    0.0621   -7.1069    1.9792 H   0  0  0  0  0  0  0  0  0  0  0  0
   -1.8513   -6.0316   -0.1589 H   0  0  0  0  0  0  0  0  0  0  0  0
   -1.2522   -7.6886   -0.0323 H   0  0  0  0  0  0  0  0  0  0  0  0
   -2.3290   -7.0426    1.2104 H   0  0  0  0  0  0  0  0  0  0  0  0
   -2.9508   -7.4671    6.2281 H   0  0  0  0  0  0  0  0  0  0  0  0
   -5.9167   -6.9079   10.5875 H   0  0  0  0  0  0  0  0  0  0  0  0
   -2.7486   -2.9520   10.6159 H   0  0  0  0  0  0  0  0  0  0  0  0
   -5.5183   -2.2988   12.5418 H   0  0  0  0  0  0  0  0  0  0  0  0
   -3.4661   -2.8525   14.1477 H   0  0  0  0  0  0  0  0  0  0  0  0
   -5.5389   -2.2195   15.6351 H   0  0  0  0  0  0  0  0  0  0  0  0
   -7.2052   -4.2885   15.6541 H   0  0  0  0  0  0  0  0  0  0  0  0
   -6.1587   -6.1952   14.1805 H   0  0  0  0  0  0  0  0  0  0  0  0
   -3.9057   -5.2445   15.1927 H   0  0  0  0  0  0  0  0  0  0  0  0
   -3.6908   -5.4329   13.4377 H   0  0  0  0  0  0  0  0  0  0  0  0
   -7.1526   -4.3265   12.5621 H   0  0  0  0  0  0  0  0  0  0  0  0
  1  2  2  0  0  0  0
  2  3  1  0  0  0  0
  3  4  2  0  0  0  0
  3  5  1  0  0  0  0
  5  6  2  0  0  0  0
  6  7  1  0  0  0  0
  7  8  2  0  0  0  0
  8  9  1  0  0  0  0
  9 10  2  0  0  0  0
 10 11  1  0  0  0  0
 11 12  2  0  0  0  0
 12 13  1  0  0  0  0
 13 14  3  0  0  0  0
 12 15  1  0  0  0  0
 15 16  3  0  0  0  0
  8 17  1  0  0  0  0
 17 18  1  0  0  0  0
 18 19  1  0  0  0  0
 19 20  2  0  0  0  0
 20 21  1  0  0  0  0
 21 22  1  0  0  0  0
 21 23  1  0  0  0  0
  1 24  1  0  0  0  0
 24 25  1  0  0  0  0
 25 26  1  0  0  0  0
 26 27  1  0  0  0  0
 27 28  2  0  0  0  0
 28 29  1  0  0  0  0
 29 30  1  0  0  0  0
 30 31  2  0  0  0  0
 31 32  1  0  0  0  0
 32 33  2  0  0  0  0
 33 34  1  0  0  0  0
 34 35  1  0  0  0  0
 33 36  1  0  0  0  0
 36 37  2  0  0  0  0
 29 38  1  0  0  0  0
 38 39  2  0  0  0  0
 39 40  1  0  0  0  0
 40 41  2  0  0  0  0
 41 42  1  0  0  0  0
 42 43  1  0  0  0  0
 41 44  1  0  0  0  0
 44 45  2  0  0  0  0
 29 46  1  0  0  0  0
 46 47  1  0  0  0  0
 28 48  1  0  0  0  0
 48 49  2  0  0  0  0
 49 50  1  0  0  0  0
 50 51  2  0  0  0  0
 51 52  1  0  0  0  0
 52 53  1  0  0  0  0
 53 54  2  0  0  0  0
 52 55  1  0  0  0  0
 55 56  2  0  0  0  0
 56 57  1  0  0  0  0
 57 58  2  0  0  0  0
 58 59  1  0  0  0  0
 59 60  1  0  0  0  0
 58 61  1  0  0  0  0
 61 62  2  0  0  0  0
 52 63  1  0  0  0  0
 63 64  2  0  0  0  0
 64 65  1  0  0  0  0
 65 66  2  0  0  0  0
 66 67  1  0  0  0  0
 67 68  1  0  0  0  0
 66 69  1  0  0  0  0
 69 70  2  0  0  0  0
 51 71  1  0  0  0  0
 71 72  2  0  0  0  0
 72 73  1  0  0  0  0
 72 74  1  0  0  0  0
 74 75  1  0  0  0  0
 75 76  1  0  0  0  0
 76 77  2  0  0  0  0
 77 78  1  0  0  0  0
 78 79  1  0  0  0  0
 79 80  1  0  0  0  0
 80 81  1  0  0  0  0
 76 82  1  0  0  0  0
 82 83  2  0  0  0  0
 83 84  1  0  0  0  0
 84 85  2  0  0  0  0
 84 86  1  0  0  0  0
 86 87  2  0  0  0  0
 87 88  1  0  0  0  0
 88 89  2  0  0  0  0
 89 90  1  0  0  0  0
 90 91  2  0  0  0  0
 91 92  1  0  0  0  0
 92 93  2  0  0  0  0
 93 94  1  0  0  0  0
 94 95  3  0  0  0  0
 93 96  1  0  0  0  0
 96 97  3  0  0  0  0
 89 98  1  0  0  0  0
 98 99  1  0  0  0  0
 99100  1  0  0  0  0
100101  2  0  0  0  0
101102  1  0  0  0  0
102103  1  0  0  0  0
102104  1  0  0  0  0
 11  2  1  0  0  0  0
 23 17  1  0  0  0  0
 47 24  2  0  0  0  0
 53 49  1  0  0  0  0
 62 55  1  0  0  0  0
 70 63  1  0  0  0  0
 79 71  1  0  0  0  0
 92 83  1  0  0  0  0
104 98  1  0  0  0  0
 10  5  1  0  0  0  0
 22 18  1  0  0  0  0
 46 26  2  0  0  0  0
 73 50  1  0  0  0  0
 78 74  2  0  0  0  0
 91 86  1  0  0  0  0
103 99  1  0  0  0  0
 23  7  1  0  0  0  0
 54 27  1  0  0  0  0
104 88  1  0  0  0  0
 37 30  1  0  0  0  0
 45 38  1  0  0  0  0
  1105  1  0  0  0  0
  6106  1  0  0  0  0
  9107  1  0  0  0  0
 17108  1  0  0  0  0
 18109  1  0  0  0  0
 19110  1  0  0  0  0
 20111  1  0  0  0  0
 21112  1  0  0  0  0
 22113  1  0  0  0  0
 22114  1  0  0  0  0
 23115  1  0  0  0  0
 31116  1  0  0  0  0
 32117  1  0  0  0  0
 34118  1  0  0  0  0
 34119  1  0  0  0  0
 35120  1  0  0  0  0
 35121  1  0  0  0  0
 35122  1  0  0  0  0
 36123  1  0  0  0  0
 37124  1  0  0  0  0
 39125  1  0  0  0  0
 40126  1  0  0  0  0
 42127  1  0  0  0  0
 42128  1  0  0  0  0
 43129  1  0  0  0  0
 43130  1  0  0  0  0
 43131  1  0  0  0  0
 44132  1  0  0  0  0
 45133  1  0  0  0  0
 47134  1  0  0  0  0
 48135  1  0  0  0  0
 54136  1  0  0  0  0
 56137  1  0  0  0  0
 57138  1  0  0  0  0
 59139  1  0  0  0  0
 59140  1  0  0  0  0
 60141  1  0  0  0  0
 60142  1  0  0  0  0
 60143  1  0  0  0  0
 61144  1  0  0  0  0
 62145  1  0  0  0  0
 64146  1  0  0  0  0
 65147  1  0  0  0  0
 67148  1  0  0  0  0
 67149  1  0  0  0  0
 68150  1  0  0  0  0
 68151  1  0  0  0  0
 68152  1  0  0  0  0
 69153  1  0  0  0  0
 70154  1  0  0  0  0
 77155  1  0  0  0  0
 80156  1  0  0  0  0
 80157  1  0  0  0  0
 81158  1  0  0  0  0
 81159  1  0  0  0  0
 81160  1  0  0  0  0
 82161  1  0  0  0  0
 87162  1  0  0  0  0
 90163  1  0  0  0  0
 98164  1  0  0  0  0
 99165  1  0  0  0  0
100166  1  0  0  0  0
101167  1  0  0  0  0
102168  1  0  0  0  0
103169  1  0  0  0  0
103170  1  0  0  0  0
104171  1  0  0  0  0
M  END
