171

C          2.35590        2.96330       -6.62770
C          2.31830        4.20660       -7.20080
C          1.81040        5.47630       -6.63450
O          1.54510        5.74760       -5.48040
C          1.67090        6.39780       -7.77920
C          1.13400        7.68340       -7.75070
C          1.10220        8.30330       -8.97640
C          1.56350        7.68780      -10.14780
C          2.09960        6.42300      -10.18900
C          2.14990        5.77830       -8.94890
C          2.64280        4.45000       -8.59630
C          3.35630        3.62700       -9.42910
C          3.93250        2.38960       -9.07080
N          4.45370        1.38680       -8.86410
C          3.67010        3.93130      -10.77010
N          3.96150        4.10920      -11.86650
C          1.21820        8.87960      -11.00580
C          2.39310        9.78370      -11.43430
C          1.72620       11.08210      -11.82730
C          1.29500       11.66650      -10.71690
C          1.66290       10.77280       -9.55450
C          2.98220       10.18990      -10.07720
C          0.70890        9.56790       -9.69890
C          2.04920        2.53020       -5.32580
S          1.97730        0.77790       -5.09160
C          1.55510        1.00240       -3.45340
C          1.19610        0.17060       -2.35050
C          0.88790        1.02900       -1.26910
C          1.09470        2.48480       -1.65110
C         -0.15770        3.33810       -1.59050
C         -0.03560        4.71850       -1.70130
C         -1.15630        5.52430       -1.68680
C         -2.42730        4.97580       -1.56480
C         -3.64510        5.85410       -1.58780
C         -4.09880        6.09860       -3.02830
C         -2.54390        3.59640       -1.47220
C         -1.42430        2.78300       -1.48910
C          2.19230        3.03680       -0.75720
C          1.87110        3.56260        0.48800
C          2.86350        4.02070        1.33300
C          4.20060        3.96420        0.96090
C          5.27880        4.42230        1.90000
C          5.71300        3.27490        2.81430
C          4.51650        3.42850       -0.28000
C          3.52710        2.96660       -1.12880
C          1.50280        2.34810       -3.09570
C          1.77640        3.21010       -4.14320
C          0.48110        0.51590       -0.05970
C          0.36640       -0.86780        0.03760
C         -0.05000       -1.69470        1.12400
C         -0.00910       -3.03640        0.77850
C          0.43660       -3.18490       -0.66100
C          0.67810       -1.72610       -1.04110
C          1.10220       -1.21570       -2.24400
C         -0.66660       -3.69260       -1.57130
C         -1.98990       -3.72490       -1.15100
C         -2.99420       -4.14120       -2.00740
C         -2.70940       -4.52680       -3.30930
C         -3.79090       -5.03400       -4.21800
C         -3.93720       -6.55060       -4.07590
C         -1.38830       -4.47200       -3.73490
C         -0.38310       -4.05480       -2.88420
C          1.72200       -3.99160       -0.71450
C          2.88740       -3.42090       -0.21460
C          4.07180       -4.13130       -0.20020
C          4.12930       -5.43340       -0.68130
C          5.40600       -6.22030       -0.62520
C          5.50830       -6.97660        0.70110
C          2.96270       -6.00430       -1.16940
C          1.77270       -5.29750       -1.18490
C         -0.42690       -3.84240        1.84570
C         -0.80960       -3.05890        2.96940
S         -0.61140       -1.35610        2.72690
C         -1.24690       -3.94160        3.94970
S         -1.89020       -3.97360        5.54250
C         -1.98350       -5.73690        5.48290
C         -1.55020       -6.24510        4.26830
C         -1.11480       -5.24260        3.40860
N         -0.60330       -5.16810        2.13950
C         -0.29720       -6.31210        1.31880
C         -1.51310       -6.79870        0.53380
C         -2.56740       -6.49400        6.52110
C         -2.83050       -6.13140        7.80680
C         -3.89120       -6.83110        8.57660
O         -4.40890       -7.89150        8.30330
C         -4.21710       -5.92380        9.69570
C         -5.25210       -6.05870       10.61920
C         -5.32700       -5.03280       11.53060
C         -4.44510       -3.94350       11.52400
C         -3.41650       -3.79790       10.62380
C         -3.31850       -4.83590        9.69430
C         -2.34700       -5.04180        8.62390
C         -1.08340       -4.51200        8.57850
C         -0.09140       -4.98880        7.69650
N          0.75090       -5.39870        7.03260
C         -0.60700       -3.52980        9.46740
N         -0.17650       -2.72360       10.16270
C         -5.11140       -3.29400       12.71120
C         -4.38450       -3.42720       14.06600
C         -5.46330       -3.13910       15.08490
C         -6.29560       -4.17240       15.09440
C         -5.79330       -5.17650       14.08200
C         -4.28160       -4.95070       14.21410
C         -6.09170       -4.51060       12.72190
H          2.61860        2.14710       -7.29160
H          0.77980        8.11490       -6.82760
H          2.44070        5.95950      -11.09940
H          0.50690        8.69600      -11.80880
H          3.06730        9.33930      -12.16110
H          1.59170       11.40410      -12.84330
H          0.72830       12.57400      -10.62000
H          1.67260       11.23060       -8.56900
H          3.75700       10.94840      -10.17530
H          3.36190        9.35520       -9.49090
H         -0.34130        9.84660       -9.63190
H          0.94460        5.16290       -1.79070
H         -1.04310        6.59550       -1.76980
H         -3.41850        6.81210       -1.11520
H         -4.45540        5.38060       -1.02980
H         -3.30400        6.57400       -3.59870
H         -4.97540        6.74210       -3.04830
H         -4.34750        5.15610       -3.51110
H         -3.52350        3.14810       -1.38390
H         -1.54280        1.71130       -1.41970
H          0.83650        3.62690        0.79260
H          2.59520        4.43170        2.29590
H          4.91100        5.24910        2.51090
H          6.14110        4.77490        1.33060
H          6.49310        3.60540        3.49610
H          6.09550        2.44510        2.22410
H          4.86880        2.91690        3.39930
H          5.55050        3.37300       -0.58960
H          3.80030        2.55360       -2.08900
H          1.77560        4.28220       -4.08580
H          0.24570        1.14890        0.78160
H          1.35240       -1.84380       -3.08410
H         -2.24750       -3.41810       -0.14770
H         -4.01580       -4.16270       -1.65510
H         -4.73990       -4.55580       -3.96790
H         -3.54780       -4.79150       -5.25430
H         -4.72060       -6.92030       -4.73300
H         -3.00430       -7.04670       -4.33450
H         -4.19130       -6.81230       -3.05090
H         -1.14280       -4.75460       -4.74860
H          0.63390       -4.02020       -3.24510
H          2.86560       -2.40920        0.16430
H          4.96620       -3.66630        0.18840
H          6.25980       -5.54710       -0.72220
H          5.43780       -6.93460       -1.45030
H          4.67490       -7.66750        0.80890
H          6.43590       -7.54210        0.74540
H          5.48510       -6.28070        1.53660
H          2.98090       -7.01710       -1.54630
H          0.88550       -5.77020       -1.58150
H         -1.54310       -7.29890        4.05670
H          0.51050       -6.03680        0.63840
H          0.06210       -7.10690        1.97920
H         -1.85130       -6.03160       -0.15890
H         -1.25220       -7.68860       -0.03230
H         -2.32900       -7.04260        1.21040
H         -2.95080       -7.46710        6.22810
H         -5.91670       -6.90790       10.58750
H         -2.74860       -2.95200       10.61590
H         -5.51830       -2.29880       12.54180
H         -3.46610       -2.85250       14.14770
H         -5.53890       -2.21950       15.63510
H         -7.20520       -4.28850       15.65410
H         -6.15870       -6.19520       14.18050
H         -3.90570       -5.24450       15.19270
H         -3.69080       -5.43290       13.43770
H         -7.15260       -4.32650       12.56210
