
  xtb     02112206143D
 energy: -248.509736430434 gnorm: 0.000457819273 xtb: 6.4.1 (unknown)
148165  0     0  0            999 V2000
    0.4203   -6.9745   -0.5793 C   0  0  0  0  0  0  0  0  0  0  0  0
   -0.6862   -7.7639   -0.4131 C   0  0  0  0  0  0  0  0  0  0  0  0
   -2.0635   -7.2895   -0.2234 C   0  0  0  0  0  0  0  0  0  0  0  0
   -2.4482   -6.1350   -0.1557 O   0  0  0  0  0  0  0  0  0  0  0  0
   -2.9075   -8.4914   -0.1337 C   0  0  0  0  0  0  0  0  0  0  0  0
   -4.2892   -8.5324    0.0364 C   0  0  0  0  0  0  0  0  0  0  0  0
   -4.8089   -9.8034    0.0833 C   0  0  0  0  0  0  0  0  0  0  0  0
   -4.0106  -10.9501   -0.0243 C   0  0  0  0  0  0  0  0  0  0  0  0
   -2.6462  -10.9229   -0.1900 C   0  0  0  0  0  0  0  0  0  0  0  0
   -2.0966   -9.6389   -0.2473 C   0  0  0  0  0  0  0  0  0  0  0  0
   -0.7072   -9.2152   -0.4153 C   0  0  0  0  0  0  0  0  0  0  0  0
    0.3668  -10.0592   -0.5352 C   0  0  0  0  0  0  0  0  0  0  0  0
    0.2829  -11.4677   -0.5290 C   0  0  0  0  0  0  0  0  0  0  0  0
    0.2994  -12.6158   -0.5370 N   0  0  0  0  0  0  0  0  0  0  0  0
    1.7155   -9.6700   -0.6759 C   0  0  0  0  0  0  0  0  0  0  0  0
    2.8376   -9.4490   -0.7874 N   0  0  0  0  0  0  0  0  0  0  0  0
   -5.1912  -11.8805    0.0973 C   0  0  0  0  0  0  0  0  0  0  0  0
   -5.7162  -12.5503   -1.1965 C   0  0  0  0  0  0  0  0  0  0  0  0
   -5.3466  -11.6313   -2.3343 C   0  0  0  0  0  0  0  0  0  0  0  0
   -6.1009  -10.5446   -2.2382 C   0  0  0  0  0  0  0  0  0  0  0  0
   -6.9946  -10.7093   -1.0338 C   0  0  0  0  0  0  0  0  0  0  0  0
   -7.2139  -12.2302   -1.0655 C   0  0  0  0  0  0  0  0  0  0  0  0
   -6.0809  -10.6027    0.2127 C   0  0  0  0  0  0  0  0  0  0  0  0
    0.5532   -5.5761   -0.5716 C   0  0  0  0  0  0  0  0  0  0  0  0
    1.7917   -4.9595   -0.7613 C   0  0  0  0  0  0  0  0  0  0  0  0
    1.7100   -3.5827   -0.6862 C   0  0  0  0  0  0  0  0  0  0  0  0
    2.8780   -2.2927   -0.8059 S   0  0  0  0  0  0  0  0  0  0  0  0
    1.6097   -1.1522   -0.5058 C   0  0  0  0  0  0  0  0  0  0  0  0
    1.5370    0.2668   -0.3534 C   0  0  0  0  0  0  0  0  0  0  0  0
    2.5268    1.2451   -0.4044 C   0  0  0  0  0  0  0  0  0  0  0  0
    2.1415    2.5424   -0.1603 C   0  0  0  0  0  0  0  0  0  0  0  0
    3.0072    3.7903   -0.1316 C   0  0  0  0  0  0  0  0  0  0  0  0
    3.5171    4.2146   -1.4989 C   0  0  0  0  0  0  0  0  0  0  0  0
    4.4724    5.2211   -1.5762 C   0  0  0  0  0  0  0  0  0  0  0  0
    4.9177    5.6718   -2.8031 C   0  0  0  0  0  0  0  0  0  0  0  0
    4.4181    5.1357   -3.9837 C   0  0  0  0  0  0  0  0  0  0  0  0
    4.9404    5.5922   -5.3151 C   0  0  0  0  0  0  0  0  0  0  0  0
    6.1512    4.7527   -5.7281 C   0  0  0  0  0  0  0  0  0  0  0  0
    3.4591    4.1361   -3.8998 C   0  0  0  0  0  0  0  0  0  0  0  0
    3.0063    3.6828   -2.6735 C   0  0  0  0  0  0  0  0  0  0  0  0
    4.1442    3.5910    0.8530 C   0  0  0  0  0  0  0  0  0  0  0  0
    4.0228    3.9707    2.1818 C   0  0  0  0  0  0  0  0  0  0  0  0
    5.0604    3.7522    3.0697 C   0  0  0  0  0  0  0  0  0  0  0  0
    6.2371    3.1410    2.6590 C   0  0  0  0  0  0  0  0  0  0  0  0
    7.3508    2.8839    3.6269 C   0  0  0  0  0  0  0  0  0  0  0  0
    6.3478    2.7524    1.3294 C   0  0  0  0  0  0  0  0  0  0  0  0
    5.3168    2.9729    0.4367 C   0  0  0  0  0  0  0  0  0  0  0  0
    2.0016    4.8201    0.3055 C   0  0  0  0  0  0  0  0  0  0  0  0
    0.7443    4.2516    0.4335 C   0  0  0  0  0  0  0  0  0  0  0  0
    0.7966    2.8514    0.1568 C   0  0  0  0  0  0  0  0  0  0  0  0
   -0.1977    1.8767    0.1856 C   0  0  0  0  0  0  0  0  0  0  0  0
    0.1828    0.5842   -0.0867 C   0  0  0  0  0  0  0  0  0  0  0  0
   -0.6821   -0.6632   -0.1113 C   0  0  0  0  0  0  0  0  0  0  0  0
   -1.4334   -0.7859    1.1988 C   0  0  0  0  0  0  0  0  0  0  0  0
   -2.6591   -0.1511    1.3560 C   0  0  0  0  0  0  0  0  0  0  0  0
   -3.3381   -0.2268    2.5565 C   0  0  0  0  0  0  0  0  0  0  0  0
   -2.8121   -0.9331    3.6306 C   0  0  0  0  0  0  0  0  0  0  0  0
   -3.5821   -1.0632    4.9127 C   0  0  0  0  0  0  0  0  0  0  0  0
   -4.5218   -2.2690    4.8463 C   0  0  0  0  0  0  0  0  0  0  0  0
   -1.5824   -1.5566    3.4708 C   0  0  0  0  0  0  0  0  0  0  0  0
   -0.8960   -1.4797    2.2729 C   0  0  0  0  0  0  0  0  0  0  0  0
   -1.6244   -0.7258   -1.3034 C   0  0  0  0  0  0  0  0  0  0  0  0
   -1.5095    0.1400   -2.3806 C   0  0  0  0  0  0  0  0  0  0  0  0
   -2.3552    0.0166   -3.4688 C   0  0  0  0  0  0  0  0  0  0  0  0
   -3.3256   -0.9744   -3.5119 C   0  0  0  0  0  0  0  0  0  0  0  0
   -4.2097   -1.1346   -4.7150 C   0  0  0  0  0  0  0  0  0  0  0  0
   -3.5732   -2.0968   -5.7200 C   0  0  0  0  0  0  0  0  0  0  0  0
   -3.4253   -1.8474   -2.4354 C   0  0  0  0  0  0  0  0  0  0  0  0
   -2.5870   -1.7276   -1.3447 C   0  0  0  0  0  0  0  0  0  0  0  0
    0.3613   -1.7253   -0.3303 C   0  0  0  0  0  0  0  0  0  0  0  0
    0.4025   -3.1140   -0.4374 C   0  0  0  0  0  0  0  0  0  0  0  0
   -0.7312   -4.4026   -0.3070 S   0  0  0  0  0  0  0  0  0  0  0  0
   -0.4885    5.3580    0.9326 S   0  0  0  0  0  0  0  0  0  0  0  0
    0.7042    6.6235    0.9953 C   0  0  0  0  0  0  0  0  0  0  0  0
    0.6690    7.9486    1.3974 C   0  0  0  0  0  0  0  0  0  0  0  0
    1.9147    8.5550    1.3075 C   0  0  0  0  0  0  0  0  0  0  0  0
    3.1357    7.4500    0.6836 S   0  0  0  0  0  0  0  0  0  0  0  0
    1.9859    6.1774    0.6082 C   0  0  0  0  0  0  0  0  0  0  0  0
    2.2796    9.8827    1.5941 C   0  0  0  0  0  0  0  0  0  0  0  0
    1.6366   10.7965    2.3828 C   0  0  0  0  0  0  0  0  0  0  0  0
    1.9198   12.2405    2.1969 C   0  0  0  0  0  0  0  0  0  0  0  0
    2.8074   12.7330    1.5403 O   0  0  0  0  0  0  0  0  0  0  0  0
    0.8510   12.9428    2.9459 C   0  0  0  0  0  0  0  0  0  0  0  0
    0.5883   14.2969    3.0085 C   0  0  0  0  0  0  0  0  0  0  0  0
   -0.4982   14.7073    3.7645 C   0  0  0  0  0  0  0  0  0  0  0  0
   -0.7918   16.0104    3.8507 F   0  0  0  0  0  0  0  0  0  0  0  0
   -1.2926   13.7766    4.4348 C   0  0  0  0  0  0  0  0  0  0  0  0
   -2.3432   14.2018    5.1456 F   0  0  0  0  0  0  0  0  0  0  0  0
   -1.0237   12.4169    4.3808 C   0  0  0  0  0  0  0  0  0  0  0  0
    0.0617   12.0003    3.6276 C   0  0  0  0  0  0  0  0  0  0  0  0
    0.6201   10.6658    3.3996 C   0  0  0  0  0  0  0  0  0  0  0  0
    0.3934    9.5764    4.2017 C   0  0  0  0  0  0  0  0  0  0  0  0
   -0.5607    9.5466    5.2390 C   0  0  0  0  0  0  0  0  0  0  0  0
   -1.3385    9.4586    6.0785 N   0  0  0  0  0  0  0  0  0  0  0  0
    1.1465    8.3863    4.1446 C   0  0  0  0  0  0  0  0  0  0  0  0
    1.7537    7.4126    4.1735 N   0  0  0  0  0  0  0  0  0  0  0  0
    1.3630   -7.4832   -0.7411 H   0  0  0  0  0  0  0  0  0  0  0  0
   -4.8638   -7.6231    0.1198 H   0  0  0  0  0  0  0  0  0  0  0  0
   -2.0500  -11.8160   -0.2709 H   0  0  0  0  0  0  0  0  0  0  0  0
   -5.1721  -12.5663    0.9419 H   0  0  0  0  0  0  0  0  0  0  0  0
   -5.4344  -13.5934   -1.3109 H   0  0  0  0  0  0  0  0  0  0  0  0
   -4.5592  -11.8345   -3.0362 H   0  0  0  0  0  0  0  0  0  0  0  0
   -6.0692   -9.6578   -2.8439 H   0  0  0  0  0  0  0  0  0  0  0  0
   -7.8778  -10.0766   -1.0013 H   0  0  0  0  0  0  0  0  0  0  0  0
   -7.7908  -12.5546   -1.9301 H   0  0  0  0  0  0  0  0  0  0  0  0
   -7.6636  -12.6230   -0.1546 H   0  0  0  0  0  0  0  0  0  0  0  0
   -6.6472  -10.4559    1.1304 H   0  0  0  0  0  0  0  0  0  0  0  0
    2.6955   -5.5147   -0.9374 H   0  0  0  0  0  0  0  0  0  0  0  0
    3.5514    0.9841   -0.6189 H   0  0  0  0  0  0  0  0  0  0  0  0
    4.8728    5.6478   -0.6678 H   0  0  0  0  0  0  0  0  0  0  0  0
    5.6614    6.4544   -2.8447 H   0  0  0  0  0  0  0  0  0  0  0  0
    5.2337    6.6421   -5.2573 H   0  0  0  0  0  0  0  0  0  0  0  0
    4.1602    5.4957   -6.0729 H   0  0  0  0  0  0  0  0  0  0  0  0
    6.9446    4.8452   -4.9899 H   0  0  0  0  0  0  0  0  0  0  0  0
    5.8755    3.7032   -5.8042 H   0  0  0  0  0  0  0  0  0  0  0  0
    6.5325    5.0826   -6.6916 H   0  0  0  0  0  0  0  0  0  0  0  0
    3.0547    3.7077   -4.8058 H   0  0  0  0  0  0  0  0  0  0  0  0
    2.2533    2.9091   -2.6352 H   0  0  0  0  0  0  0  0  0  0  0  0
    3.1188    4.4452    2.5339 H   0  0  0  0  0  0  0  0  0  0  0  0
    4.9499    4.0648    4.0977 H   0  0  0  0  0  0  0  0  0  0  0  0
    8.3175    2.9482    3.1327 H   0  0  0  0  0  0  0  0  0  0  0  0
    7.2540    1.8817    4.0461 H   0  0  0  0  0  0  0  0  0  0  0  0
    7.3240    3.5963    4.4478 H   0  0  0  0  0  0  0  0  0  0  0  0
    7.2544    2.2738    0.9873 H   0  0  0  0  0  0  0  0  0  0  0  0
    5.4298    2.6767   -0.5963 H   0  0  0  0  0  0  0  0  0  0  0  0
   -1.2187    2.1341    0.4209 H   0  0  0  0  0  0  0  0  0  0  0  0
   -3.0909    0.3937    0.5286 H   0  0  0  0  0  0  0  0  0  0  0  0
   -4.2920    0.2704    2.6613 H   0  0  0  0  0  0  0  0  0  0  0  0
   -4.1688   -0.1588    5.0864 H   0  0  0  0  0  0  0  0  0  0  0  0
   -2.8922   -1.1894    5.7493 H   0  0  0  0  0  0  0  0  0  0  0  0
   -5.0797   -2.3691    5.7745 H   0  0  0  0  0  0  0  0  0  0  0  0
   -3.9538   -3.1818    4.6808 H   0  0  0  0  0  0  0  0  0  0  0  0
   -5.2274   -2.1535    4.0266 H   0  0  0  0  0  0  0  0  0  0  0  0
   -1.1530   -2.1082    4.2950 H   0  0  0  0  0  0  0  0  0  0  0  0
    0.0636   -1.9665    2.1763 H   0  0  0  0  0  0  0  0  0  0  0  0
   -0.7603    0.9183   -2.3736 H   0  0  0  0  0  0  0  0  0  0  0  0
   -2.2571    0.7040   -4.2972 H   0  0  0  0  0  0  0  0  0  0  0  0
   -4.3652   -0.1653   -5.1932 H   0  0  0  0  0  0  0  0  0  0  0  0
   -5.1822   -1.5257   -4.4097 H   0  0  0  0  0  0  0  0  0  0  0  0
   -2.6083   -1.7170   -6.0484 H   0  0  0  0  0  0  0  0  0  0  0  0
   -4.2139   -2.2174   -6.5906 H   0  0  0  0  0  0  0  0  0  0  0  0
   -3.4189   -3.0719   -5.2635 H   0  0  0  0  0  0  0  0  0  0  0  0
   -4.1680   -2.6317   -2.4496 H   0  0  0  0  0  0  0  0  0  0  0  0
   -2.6823   -2.4144   -0.5166 H   0  0  0  0  0  0  0  0  0  0  0  0
   -0.2227    8.4664    1.7017 H   0  0  0  0  0  0  0  0  0  0  0  0
    3.1546   10.2625    1.0757 H   0  0  0  0  0  0  0  0  0  0  0  0
    1.2036   15.0146    2.4899 H   0  0  0  0  0  0  0  0  0  0  0  0
   -1.6666   11.7350    4.9133 H   0  0  0  0  0  0  0  0  0  0  0  0
  1  2  2  0  0  0  0
  2  3  1  0  0  0  0
  3  4  2  0  0  0  0
  3  5  1  0  0  0  0
  5  6  2  0  0  0  0
  6  7  1  0  0  0  0
  7  8  2  0  0  0  0
  8  9  1  0  0  0  0
  9 10  2  0  0  0  0
 10 11  1  0  0  0  0
 11 12  2  0  0  0  0
 12 13  1  0  0  0  0
 13 14  3  0  0  0  0
 12 15  1  0  0  0  0
 15 16  3  0  0  0  0
  8 17  1  0  0  0  0
 17 18  1  0  0  0  0
 18 19  1  0  0  0  0
 19 20  2  0  0  0  0
 20 21  1  0  0  0  0
 21 22  1  0  0  0  0
 21 23  1  0  0  0  0
  1 24  1  0  0  0  0
 24 25  2  0  0  0  0
 25 26  1  0  0  0  0
 26 27  1  0  0  0  0
 27 28  1  0  0  0  0
 28 29  1  0  0  0  0
 29 30  2  0  0  0  0
 30 31  1  0  0  0  0
 31 32  1  0  0  0  0
 32 33  1  0  0  0  0
 33 34  2  0  0  0  0
 34 35  1  0  0  0  0
 35 36  2  0  0  0  0
 36 37  1  0  0  0  0
 37 38  1  0  0  0  0
 36 39  1  0  0  0  0
 39 40  2  0  0  0  0
 32 41  1  0  0  0  0
 41 42  2  0  0  0  0
 42 43  1  0  0  0  0
 43 44  2  0  0  0  0
 44 45  1  0  0  0  0
 44 46  1  0  0  0  0
 46 47  2  0  0  0  0
 32 48  1  0  0  0  0
 48 49  2  0  0  0  0
 49 50  1  0  0  0  0
 50 51  1  0  0  0  0
 51 52  2  0  0  0  0
 52 53  1  0  0  0  0
 53 54  1  0  0  0  0
 54 55  2  0  0  0  0
 55 56  1  0  0  0  0
 56 57  2  0  0  0  0
 57 58  1  0  0  0  0
 58 59  1  0  0  0  0
 57 60  1  0  0  0  0
 60 61  2  0  0  0  0
 53 62  1  0  0  0  0
 62 63  2  0  0  0  0
 63 64  1  0  0  0  0
 64 65  2  0  0  0  0
 65 66  1  0  0  0  0
 66 67  1  0  0  0  0
 65 68  1  0  0  0  0
 68 69  2  0  0  0  0
 53 70  1  0  0  0  0
 70 71  1  0  0  0  0
 71 72  1  0  0  0  0
 49 73  1  0  0  0  0
 73 74  1  0  0  0  0
 74 75  1  0  0  0  0
 75 76  2  0  0  0  0
 76 77  1  0  0  0  0
 77 78  1  0  0  0  0
 76 79  1  0  0  0  0
 79 80  2  0  0  0  0
 80 81  1  0  0  0  0
 81 82  2  0  0  0  0
 81 83  1  0  0  0  0
 83 84  2  0  0  0  0
 84 85  1  0  0  0  0
 85 86  1  0  0  0  0
 85 87  2  0  0  0  0
 87 88  1  0  0  0  0
 87 89  1  0  0  0  0
 89 90  2  0  0  0  0
 90 91  1  0  0  0  0
 91 92  2  0  0  0  0
 92 93  1  0  0  0  0
 93 94  3  0  0  0  0
 92 95  1  0  0  0  0
 95 96  3  0  0  0  0
 11  2  1  0  0  0  0
 23 17  1  0  0  0  0
 72 24  1  0  0  0  0
 78 74  2  0  0  0  0
 91 80  1  0  0  0  0
 10  5  1  0  0  0  0
 22 18  1  0  0  0  0
 71 26  2  0  0  0  0
 90 83  1  0  0  0  0
 23  7  1  0  0  0  0
 70 28  2  0  0  0  0
 52 29  1  0  0  0  0
 61 54  1  0  0  0  0
 69 62  1  0  0  0  0
 50 31  2  0  0  0  0
 40 33  1  0  0  0  0
 47 41  1  0  0  0  0
 78 48  1  0  0  0  0
  1 97  1  0  0  0  0
  6 98  1  0  0  0  0
  9 99  1  0  0  0  0
 17100  1  0  0  0  0
 18101  1  0  0  0  0
 19102  1  0  0  0  0
 20103  1  0  0  0  0
 21104  1  0  0  0  0
 22105  1  0  0  0  0
 22106  1  0  0  0  0
 23107  1  0  0  0  0
 25108  1  0  0  0  0
 30109  1  0  0  0  0
 34110  1  0  0  0  0
 35111  1  0  0  0  0
 37112  1  0  0  0  0
 37113  1  0  0  0  0
 38114  1  0  0  0  0
 38115  1  0  0  0  0
 38116  1  0  0  0  0
 39117  1  0  0  0  0
 40118  1  0  0  0  0
 42119  1  0  0  0  0
 43120  1  0  0  0  0
 45121  1  0  0  0  0
 45122  1  0  0  0  0
 45123  1  0  0  0  0
 46124  1  0  0  0  0
 47125  1  0  0  0  0
 51126  1  0  0  0  0
 55127  1  0  0  0  0
 56128  1  0  0  0  0
 58129  1  0  0  0  0
 58130  1  0  0  0  0
 59131  1  0  0  0  0
 59132  1  0  0  0  0
 59133  1  0  0  0  0
 60134  1  0  0  0  0
 61135  1  0  0  0  0
 63136  1  0  0  0  0
 64137  1  0  0  0  0
 66138  1  0  0  0  0
 66139  1  0  0  0  0
 67140  1  0  0  0  0
 67141  1  0  0  0  0
 67142  1  0  0  0  0
 68143  1  0  0  0  0
 69144  1  0  0  0  0
 75145  1  0  0  0  0
 79146  1  0  0  0  0
 84147  1  0  0  0  0
 89148  1  0  0  0  0
M  END
