161

C         -4.48490        6.05950        4.03740
C         -5.62040        6.15580        4.79420
C         -6.39880        5.07350        5.43940
O         -6.08810        3.91320        5.61930
C         -7.68390        5.68170        5.83110
C         -8.77370        5.02420        6.39880
C         -9.85390        5.83810        6.63900
C         -9.85050        7.20750        6.34000
C         -8.77960        7.86970        5.78910
C         -7.66900        7.05810        5.53470
C         -6.36790        7.39220        4.96340
C         -5.92120        8.66270        4.70740
C         -4.62920        9.01020        4.25770
N         -3.60040        9.39060        3.91620
C         -6.68640        9.83130        4.90560
N         -7.24750       10.82480        5.03470
C        -11.26660        7.39830        6.82370
C        -12.35600        7.51340        5.73650
C        -13.63880        7.20710        6.47530
C        -13.64190        5.91070        6.75810
C        -12.36110        5.31900        6.21530
C        -12.17200        6.19650        4.97120
C        -11.27010        5.87190        7.15730
C         -3.64990        4.96430        3.74400
C         -3.59060        3.66990        4.23500
C         -2.59250        2.92760        3.62060
S         -2.06340        1.27580        3.78020
C         -0.89550        1.55050        2.53350
C          0.05590        0.74040        1.83860
C          0.39270       -0.60240        1.98630
C          1.30920       -1.12100        1.10180
C          1.83050       -2.54550        1.01500
C          0.77060       -3.58240        0.69050
C         -0.47370       -3.22970        0.18960
C         -1.39700       -4.20670       -0.13790
C         -1.09880       -5.55350        0.01560
C         -2.08810       -6.61130       -0.38020
C         -1.88720       -7.00980       -1.84360
C          0.15680       -5.90050        0.49850
C          1.08090       -4.92990        0.83160
C          2.55270       -2.86850        2.31090
C          1.83660       -3.34110        3.40240
C          2.47500       -3.60590        4.59980
C          3.84110       -3.40390        4.74060
C          4.54260       -3.68750        6.03310
C          4.55050       -2.92130        3.64760
C          3.91660       -2.65160        2.44970
C          2.74570       -2.43860       -0.17520
C          2.75670       -1.14450       -0.66870
C          1.89660       -0.30540        0.10570
C          1.58480        1.04540       -0.02070
C          0.64910        1.55750        0.84700
C          0.10460        2.97420        0.91190
C         -0.65460        3.41090       -0.32790
C         -1.10910        2.49970       -1.26950
C         -1.84300        2.93050       -2.36040
C         -2.14810        4.27340       -2.53220
C         -2.98360        4.73210       -3.69230
C         -4.46540        4.73960       -3.31120
C         -1.70550        5.17870       -1.57570
C         -0.96940        4.75540       -0.48670
C          1.25380        3.91480        1.22560
C          2.04770        4.40180        0.19470
C          3.11900        5.23010        0.46700
C          3.42930        5.59060        1.77220
C          4.55940        6.53630        2.05830
C          4.06960        7.98440        1.99410
C          2.63740        5.09490        2.79840
C          1.56620        4.26180        2.53180
C         -0.89290        2.84120        2.03080
C         -1.85990        3.63380        2.64320
S         -2.41240        5.25310        2.50940
S          3.73140       -0.92960       -2.08170
C          4.12810       -2.62490       -2.04020
C          4.88840       -3.44290       -2.86330
C          4.88500       -4.75900       -2.43070
S          3.93210       -4.95890       -0.95080
C          3.52370       -3.29170       -0.95370
C          5.47850       -5.93130       -2.93790
C          6.12230       -6.18200       -4.11810
C          6.28620       -5.29590       -5.29410
O          6.09550       -4.09940       -5.37950
C          6.73140       -6.16930       -6.39570
C          6.92200       -5.79760       -7.72460
C          7.30940       -6.83010       -8.54370
C          7.48860       -8.13970       -8.07720
C          7.30990       -8.51810       -6.76810
C          6.92380       -7.47920       -5.91590
C          6.64190       -7.49080       -4.48390
C          6.90120       -8.53640       -3.63660
C          6.72820       -8.52690       -2.23570
N          6.64010       -8.60530       -1.09290
C          7.43890       -9.77540       -4.04430
N          7.87230      -10.80760       -4.29980
C          7.86810       -8.65850       -9.44160
C          9.36760       -8.92650       -9.71980
C         10.14220       -8.00990       -8.80560
C          9.97860       -6.76870       -9.24380
C          9.09050       -6.82360      -10.46220
C          9.52300       -8.17550      -11.05190
C          7.67420       -7.19850       -9.95980
H         -4.17570        6.96630        3.52980
H         -8.73160        3.96780        6.61380
H         -8.79400        8.92300        5.56470
H        -11.39880        8.11010        7.63620
H        -12.32990        8.43530        5.16220
H        -14.36170        7.95040        6.75570
H        -14.36780        5.35480        7.32200
H        -12.34000        4.24140        6.07650
H        -11.19790        6.09070        4.49700
H        -12.95570        6.03700        4.23230
H        -11.40610        5.56490        8.19250
H         -4.25660        3.30070        4.99240
H         -0.06820       -1.20640        2.75230
H         -0.72900       -2.18840        0.05740
H         -2.36580       -3.91480       -0.51780
H         -3.10480       -6.23710       -0.24510
H         -1.96050       -7.49190        0.25240
H         -2.02020       -6.14680       -2.49240
H         -0.88300       -7.39930       -1.99490
H         -2.60410       -7.77520       -2.13160
H          0.41410       -6.94290        0.61840
H          2.04950       -5.21840        1.21340
H          0.77490       -3.51900        3.31170
H          1.90030       -3.97830        5.43580
H          5.39270       -4.34770        5.86820
H          4.92040       -2.76220        6.46760
H          3.87020       -4.15500        6.74770
H          5.61460       -2.75530        3.73570
H          4.49220       -2.27290        1.61760
H          2.04820        1.64980       -0.78480
H         -0.88810        1.44830       -1.15610
H         -2.18250        2.20860       -3.08970
H         -2.83390        4.06590       -4.54420
H         -2.68390        5.73940       -3.98840
H         -4.78740        3.74050       -3.02570
H         -4.63550        5.40680       -2.46910
H         -5.07260        5.07470       -4.14880
H         -1.93770        6.22810       -1.68510
H         -0.62830        5.47450        0.24390
H          1.81620        4.14340       -0.82850
H          3.72440        5.60240       -0.34720
H          5.35650        6.39300        1.32590
H          4.96720        6.33760        3.05130
H          4.88700        8.67220        2.19690
H          3.66660        8.20410        1.00790
H          3.28440        8.15090        2.72820
H          2.86110        5.36130        3.82150
H          0.97040        3.88360        3.34990
H          5.41360       -3.11780       -3.74210
H          5.34880       -6.78260       -2.27890
H          6.76410       -4.77890       -8.04260
H          7.44480       -9.53070       -6.42670
H          7.22440       -9.43430       -9.85150
H          9.64990       -9.97560       -9.69960
H         10.66520       -8.34230       -7.92820
H         10.33780       -5.85620       -8.80510
H          9.12180       -5.95790      -11.11870
H          8.85960       -8.53940      -11.83540
H         10.55000       -8.16790      -11.41360
H          6.90720       -7.02150      -10.71140
