158

C         -3.02350        3.64980       -3.99390
C         -4.29080        3.77560       -4.49780
C         -5.45570        2.87940       -4.32270
O         -5.50150        1.77270       -3.82260
C         -6.61180        3.60500       -4.88120
C         -7.93600        3.17060       -4.89270
C         -8.81070        4.05870       -5.47010
C         -8.39800        5.28920       -5.99900
C         -7.09510        5.72600       -6.00010
C         -6.18740        4.83580       -5.41630
C         -4.74090        4.94020       -5.24400
C         -3.96100        5.94320       -5.76040
C         -2.55340        6.02560       -5.69950
N         -1.41440        6.17590       -5.72450
C         -4.45740        7.05130       -6.47920
N         -4.77930        7.98500       -7.06530
C         -9.79780        5.67390       -6.40860
C        -10.52510        6.69370       -5.50700
C        -11.98390        6.51080       -5.85850
C        -12.37580        5.34520       -5.36010
C        -11.18880        4.72110       -4.66240
C        -10.49110        5.98610       -4.14610
C        -10.25810        4.30160       -5.82020
C         -2.40440        2.62260       -3.25970
S         -0.75810        2.95790       -2.70560
C         -0.68230        1.42250       -1.96490
C          0.26660        0.68690       -1.19280
C         -0.32470       -0.56250       -0.89270
C         -1.71650       -0.66720       -1.49200
C         -2.70600       -0.91260       -0.36740
C         -2.97950       -2.21050        0.04580
C         -3.84900       -2.44410        1.09390
C         -4.46610       -1.39160        1.75770
C         -5.38210       -1.64740        2.91960
C         -4.58900       -1.68720        4.22740
C         -4.17830       -0.09650        1.34960
C         -3.30670        0.14310        0.30330
C         -1.84520       -1.71400       -2.58460
C         -0.74080       -2.33540       -3.14720
C         -0.90200       -3.25200       -4.17170
C         -2.16150       -3.55850       -4.66620
C         -2.33810       -4.58490       -5.74780
C         -2.57950       -5.96740       -5.13850
C         -3.26320       -2.92390       -4.10490
C         -3.10970       -2.01140       -3.08040
C         -1.85280        0.68720       -2.13950
C         -2.82010        1.35320       -2.87150
C          0.33580       -1.47680       -0.10600
C          1.60190       -1.12480        0.35280
C          2.50140       -1.81990        1.21660
C          3.64660       -1.07410        1.44500
C          3.58650        0.22690        0.67590
C          2.20700        0.11260        0.03020
C          1.53690        1.03470       -0.73740
C          3.62060        1.38610        1.66120
C          4.66880        2.29220        1.73380
C          4.66340        3.29810        2.68450
C          3.62060        3.42340        3.59080
C          3.65330        4.47360        4.66210
C          4.35170        3.93270        5.91180
C          2.57410        2.51210        3.51740
C          2.57260        1.50960        2.56790
C          4.63880        0.31510       -0.41490
C          4.74760        1.46490       -1.19140
C          5.68820        1.55270       -2.19860
C          6.54990        0.49630       -2.46760
C          7.60500        0.61850       -3.52810
C          8.84250        1.32720       -2.97300
C          6.43500       -0.65210       -1.69860
C          5.49070       -0.74580       -0.69130
C          4.50710       -1.73400        2.32800
C          3.97690       -2.98930        2.73750
S          2.42750       -3.33950        2.04470
C          4.90650       -3.55570        3.59920
S          5.16680       -4.94950        4.56850
C          6.72410       -4.30240        5.10210
C          7.01690       -3.08130        4.50870
C          5.98740       -2.64110        3.68920
N          5.73520       -1.54900        2.89970
C          6.54450       -0.35760        2.86820
C          6.30510        0.50280        4.10630
C          7.57570       -5.02010        5.96150
C          7.26550       -6.04670        6.80960
C          8.31170       -7.00090        7.24180
O          9.50910       -6.88850        7.11010
C          7.56730       -8.14820        7.81680
C          8.05700       -9.36000        8.26170
C          7.14320      -10.29030        8.73130
F          7.57550      -11.48020        9.16900
C          5.77820      -10.00380        8.75060
F          4.91970      -10.92890        9.19620
C          5.28530       -8.78220        8.31590
C          6.19350       -7.84890        7.84550
C          6.00410       -6.48210        7.36080
C          4.93280       -5.67870        7.65650
C          3.75560       -6.13530        8.28020
N          2.77030       -6.46530        8.76790
C          4.94680       -4.28210        7.45840
N          4.95350       -3.13730        7.37080
H         -2.36640        4.49560       -4.16100
H         -8.20710        2.21320       -4.47590
H         -6.79690        6.67450       -6.41360
H         -9.94630        5.86260       -7.47000
H        -10.13260        7.70570       -5.55610
H        -12.54630        7.19890       -6.46180
H        -13.33130        4.86520       -5.46400
H        -11.40200        3.93630       -3.94150
H        -11.08510        6.50670       -3.39670
H         -9.48810        5.81360       -3.76030
H        -10.71320        3.57440       -6.49010
H         -2.52110       -3.04430       -0.46630
H         -4.05580       -3.46040        1.39780
H         -5.89660       -2.60060        2.78230
H         -6.13430       -0.85830        2.97870
H         -5.25130       -1.87780        5.06860
H         -3.83820       -2.47340        4.19120
H         -4.08230       -0.73870        4.39170
H         -4.64520        0.73780        1.85380
H         -3.10050        1.16050        0.00430
H          0.25220       -2.10760       -2.78750
H         -0.03090       -3.73100       -4.59600
H         -3.18920       -4.31580       -6.37660
H         -1.44580       -4.61900       -6.37620
H         -1.73520       -6.25990       -4.51820
H         -2.71000       -6.71120       -5.92110
H         -3.47240       -5.95610       -4.51730
H         -4.25290       -3.14300       -4.47900
H         -3.97730       -1.52860       -2.65560
H         -3.79200        0.96970       -3.11880
H         -0.10260       -2.42600        0.16040
H          1.94680        2.00290       -0.97530
H          5.50070        2.22570        1.04820
H          5.48850        3.99490        2.72120
H          2.63560        4.77260        4.91960
H          4.18880        5.35450        4.30280
H          4.37100        4.68840        6.69330
H          3.82900        3.05670        6.28900
H          5.37520        3.64580        5.68050
H          1.75030        2.58820        4.21230
H          1.74820        0.81180        2.52900
H          4.10180        2.30780       -0.99960
H          5.75310        2.45650       -2.78720
H          7.88770       -0.37360       -3.88510
H          7.21440        1.18820       -4.37360
H          9.25070        0.77240       -2.13080
H          9.60940        1.40810       -3.73950
H          8.58600        2.32780       -2.63220
H          7.08900       -1.49100       -1.88950
H          5.42390       -1.66090       -0.12200
H          7.92580       -2.54670        4.71670
H          6.29470        0.19720        1.96260
H          7.59480       -0.66020        2.81610
H          6.53740       -0.05790        5.00860
H          5.26550        0.81710        4.15130
H          6.93380        1.38770        4.06910
H          8.63320       -4.78550        5.88480
H          9.11220       -9.58170        8.24730
H          4.22290       -8.60240        8.34600
