155

C          2.64460       -6.90370       -2.22850
C          3.40650       -6.99560       -3.36160
C          4.14040       -5.89430       -4.00150
O          4.39940       -4.80170       -3.52910
C          4.50650       -6.37160       -5.34470
C          5.10900       -5.63270       -6.36080
C          5.27110       -6.32820       -7.53460
C          4.86820       -7.66200       -7.68660
C          4.28880       -8.40730       -6.68690
C          4.11100       -7.71750       -5.48360
C          3.50390       -8.15590       -4.22840
C          3.13970       -9.44180       -3.92670
C          2.60110       -9.86740       -2.69410
N          2.16630      -10.29160       -1.71920
C          3.29290      -10.53820       -4.80080
N          3.38960      -11.47520       -5.45700
C          5.29250       -7.70870       -9.13340
C          4.16450       -7.60080      -10.18220
C          4.88480       -7.19370      -11.44750
C          5.27290       -5.93310      -11.30320
C          4.82090       -5.46670       -9.93820
C          3.51550       -6.26200       -9.80720
C          5.74690       -6.22360       -8.96210
C          2.37230       -5.79190       -1.41230
C          1.37340       -5.82310       -0.43770
C          1.18610       -4.59170        0.16130
S          0.02740       -3.96370        1.30490
C          0.71670       -2.38710        1.10010
C          0.36960       -1.06480        1.51780
C         -0.70710       -0.59490        2.26550
C         -0.86110        0.76880        2.35650
C         -1.98930        1.54170        3.01810
C         -1.92140        1.54750        4.53670
C         -0.82400        1.06300        5.23640
C         -0.78390        1.13920        6.61250
C         -1.83420        1.71420        7.33060
O         -1.66740        1.75430        8.67770
C         -2.69800        2.26040        9.50390
C         -3.83620        1.26340        9.70180
C         -2.93110        2.20680        6.62920
C         -2.96420        2.12140        5.24990
C         -3.31960        1.01420        2.51960
C         -3.94370       -0.03510        3.17650
C         -5.13910       -0.56020        2.71890
C         -5.73710       -0.03990        1.57560
O         -6.89660       -0.47300        1.01520
C         -7.66700       -1.46640        1.66220
C         -8.45170       -0.92030        2.85150
C         -5.10170        1.00740        0.90560
C         -3.90970        1.52060        1.36770
C         -1.67470        2.94140        2.56040
C         -0.47580        2.96770        1.86350
C          0.04140        1.64570        1.70850
C          1.14890        1.17720        1.00540
C          1.30460       -0.18500        0.91820
C          2.36280       -0.95930        0.15440
C          2.51540       -0.42330       -1.25230
C          3.41790        0.59560       -1.51620
C          3.56380        1.11460       -2.79020
C          2.79730        0.61510       -3.83800
O          2.86680        1.01400       -5.13610
C          3.71280        2.08600       -5.50080
C          3.13050        3.44810       -5.13410
C          1.87680       -0.39970       -3.56980
C          1.73520       -0.90550       -2.29620
C          3.70160       -1.00720        0.87880
C          3.87120       -0.51760        2.16720
C          5.08900       -0.63150        2.80390
C          6.17160       -1.24850        2.17520
O          7.30970       -1.32300        2.91480
C          8.48220       -1.88040        2.35560
C          9.20020       -0.91800        1.41390
C          6.00070       -1.74410        0.88590
C          4.77670       -1.62360        0.25420
C          1.79990       -2.35230        0.23840
C          2.07520       -3.60290       -0.30920
S          3.12650       -4.20640       -1.52990
S         -0.01280        4.53470        1.29920
C         -1.47620        5.18910        1.98140
C         -2.04690        6.45000        1.96620
C         -3.28120        6.46990        2.60300
S         -3.69920        4.87850        3.26220
C         -2.24970        4.20470        2.63820
C         -4.23090        7.48390        2.80180
C         -4.32130        8.75410        2.29280
C         -3.46960        9.41410        1.28690
O         -2.37670        9.08720        0.87970
C         -4.24560       10.59410        0.82900
C         -3.95790       11.46130       -0.21030
Cl        -2.48800       11.36870       -1.07120
C         -4.91810       12.42360       -0.55490
Cl        -4.59630       13.53580       -1.81280
C         -6.15090       12.44640        0.09500
Cl        -7.34370       13.56260       -0.41190
C         -6.43760       11.56100        1.14680
Cl        -8.03230       11.53130        1.77730
C         -5.44780       10.67830        1.55840
C         -5.40340        9.67210        2.61560
C         -6.08200        9.70810        3.80420
C         -5.95100        8.74160        4.82740
N         -5.90640        8.00420        5.70620
C         -6.86270       10.78620        4.27590
N         -7.43070       11.64030        4.79010
H          2.09220       -7.78910       -1.93610
H          5.39690       -4.60520       -6.20250
H          3.98350       -9.43160       -6.82010
H          6.03930       -8.45810       -9.38770
H          3.51750       -8.47140      -10.24570
H          5.07900       -7.85950      -12.26770
H          5.85630       -5.33530      -11.97880
H          4.77170       -4.39280       -9.77900
H          3.08120       -6.24190       -8.80930
H          2.76870       -5.94920      -10.53500
H          6.79930       -5.98200       -9.09810
H          0.80270       -6.70770       -0.21940
H         -1.40740       -1.27850        2.72010
H          0.00510        0.61940        4.70560
H          0.06380        0.76200        7.16230
H         -2.20530        2.45320       10.46100
H         -3.07520        3.21310        9.11320
H         -4.32400        1.03570        8.75710
H         -3.44640        0.33800       10.11860
H         -4.57010        1.67820       10.38700
H         -3.76350        2.66720        7.13670
H         -3.82470        2.50430        4.72040
H         -3.49850       -0.44670        4.07080
H         -5.58600       -1.37640        3.26420
H         -7.03560       -2.31130        1.96390
H         -8.35930       -1.81510        0.89070
H         -7.78180       -0.53530        3.61650
H         -9.09910       -0.11050        2.52430
H         -9.06260       -1.70960        3.28080
H         -5.56640        1.40050        0.01530
H         -3.43480        2.32440        0.82450
H          1.83030        1.86030        0.52220
H          4.03050        0.98780       -0.71710
H          4.28560        1.90060       -2.94690
H          4.71130        1.95690       -5.06500
H          3.80050        2.00270       -6.58790
H          3.79460        4.23540       -5.48040
H          2.15910        3.57200       -5.60590
H          3.00250        3.54100       -4.05840
H          1.28350       -0.77970       -4.38630
H          1.01100       -1.68550       -2.11400
H          3.04960       -0.04070        2.68040
H          5.22760       -0.25170        3.80370
H          9.11750       -2.09440        3.21980
H          8.25800       -2.82790        1.85050
H          8.57530       -0.67050        0.55930
H         10.12090       -1.37260        1.05870
H          9.44060        0.00160        1.94150
H          6.80440       -2.23430        0.36000
H          4.66090       -2.01370       -0.74640
H         -1.61120        7.31900        1.50990
H         -5.06240        7.16800        3.42180
