170

C         -5.64140        3.24810        7.45960
C         -7.00150        3.26210        7.59840
C         -8.01610        2.47150        6.86190
O         -7.86480        1.46550        6.19890
C         -9.29920        3.16410        7.08260
C        -10.52240        2.85340        6.49270
C        -11.54870        3.68900        6.86110
C        -11.37180        4.75940        7.74870
C        -10.17200        5.07360        8.34100
C         -9.11550        4.23040        7.98410
C         -7.71560        4.24750        8.39600
C         -7.19640        5.00610        9.41170
C         -7.94230        5.92930       10.17450
N         -8.48570        6.69740       10.83250
C         -5.86820        4.94050        9.88510
N         -4.81690        4.93320       10.34750
C        -12.81880        5.17520        7.66010
C        -13.74950        4.80350        8.84070
C        -13.15610        3.57420        9.48310
C        -13.32370        2.55910        8.64610
C        -14.03310        3.08380        7.42220
C        -14.91350        4.16820        8.06350
C        -13.01630        3.98090        6.67400
C         -4.80150        2.41770        6.69090
C         -5.02630        1.23120        6.01330
C         -3.89670        0.79700        5.33430
S         -3.59250       -0.55700        4.27940
C         -1.98290        0.03270        3.99470
C         -0.94050       -0.33630        3.14770
C         -0.65600       -1.42210        2.14530
C         -0.49970       -2.71180        2.93780
C          0.74360       -3.23650        3.25730
C          0.84090       -4.38520        4.02260
C         -0.29410       -5.03120        4.49190
C         -0.18170       -6.24890        5.36310
C         -0.10980       -5.84510        6.83720
C         -1.53640       -4.49400        4.17730
C         -1.64010       -3.34980        3.41120
C         -1.69810       -1.55970        1.05620
C         -1.80240       -2.74650        0.34170
C         -2.72740       -2.87230       -0.67670
C         -3.56890       -1.81900       -1.01040
C         -4.61340       -1.97930       -2.07670
C         -5.91240       -2.51560       -1.47150
C         -3.45230       -0.63160       -0.30100
C         -2.52370       -0.49830        0.71460
C          0.65190       -0.92350        1.55640
C          1.12710        0.20700        2.26300
C          0.12950        0.53750        3.23460
S         -0.10560        1.82580        4.36700
C         -1.69100        1.20500        4.71400
C         -2.77750        1.63680        5.47750
S         -3.12790        2.96770        6.50360
C          2.32180        0.83580        1.92260
C          2.99860        0.34820        0.82850
C          4.27960        0.87700        0.20410
C          4.14350        2.36690       -0.03790
C          3.61030        2.85510       -1.22220
C          3.45900        4.21590       -1.41460
C          3.82040        5.12130       -0.42650
C          3.69990        6.60020       -0.65480
C          4.99580        7.15550       -1.24930
C          4.33930        4.62660        0.76300
C          4.49770        3.26810        0.95820
C          5.52570        0.55190        1.01150
C          6.73780        1.11510        0.62980
C          7.89810        0.81160        1.31390
C          7.88090       -0.06130        2.39510
C          9.15060       -0.41800        3.11270
C          9.83450       -1.60520        2.43180
C          6.66980       -0.62980        2.76340
C          5.50410       -0.33200        2.07980
C          4.33700        0.05650       -1.05780
C          3.31550       -0.87850       -1.07460
C          2.47730       -0.72850        0.07360
C          1.31390       -1.39470        0.44770
S          3.26650       -1.84840       -2.50540
C          4.63510       -0.97360       -3.11790
C          5.10820       -0.00390       -2.21640
S          6.46190        0.89270       -2.84160
C          6.35990       -0.00880       -4.33420
C          7.04110        0.04990       -5.53430
C          6.53360       -0.84360       -6.47960
S          5.19900       -1.79340       -5.83310
C          5.33520       -0.97320       -4.32620
C          7.04500       -0.90240       -7.78640
C          6.60420       -1.60060       -8.87890
C          5.41950       -2.46680       -8.92260
O          4.73120       -2.82790       -7.98370
C          5.21300       -2.81450      -10.33760
C          4.16350       -3.55670      -10.87350
C          4.21530       -3.69110      -12.24000
C          5.23610       -3.12710      -13.01690
C          6.27850       -2.39470      -12.49970
C          6.24730       -2.24790      -11.11020
C          7.15880       -1.53320      -10.21780
C          8.33700       -0.94230      -10.59490
C          8.83800       -0.93010      -11.91360
N          9.30900       -0.87900      -12.95960
C          9.23890       -0.28490       -9.73210
N         10.02790        0.26240       -9.10120
C          4.65420       -3.65160      -14.30540
C          5.32240       -4.89200      -14.94800
C          5.97090       -5.66060      -13.82340
C          5.00500       -6.19540      -13.08850
C          3.68550       -5.79760      -13.70260
C          4.07790       -5.76160      -15.18830
C          3.51720       -4.28070      -13.43970
H         -5.10190        4.04050        7.96670
H        -10.61220        2.02430        5.80830
H        -10.04970        5.90530        9.01460
H        -13.00350        6.18050        7.28660
H        -13.98300        5.62860        9.50810
H        -12.64010        3.58150       10.42520
H        -12.97570        1.54800        8.74920
H        -14.52610        2.34290        6.79810
H        -15.68070        3.75580        8.71700
H        -15.37020        4.84110        7.33890
H        -13.33170        4.20620        5.65690
H         -5.97630        0.73070        6.00790
H          1.64280       -2.75220        2.90600
H          1.81730       -4.78480        4.25710
H         -1.04780       -6.89550        5.20930
H          0.71650       -6.81130        5.10000
H         -0.02900       -6.72590        7.46990
H          0.75520       -5.20960        7.01370
H         -1.00270       -5.29300        7.12200
H         -2.43370       -4.97790        4.53520
H         -2.61440       -2.94920        3.17080
H         -1.16330       -3.58100        0.59260
H         -2.79670       -3.80340       -1.22100
H         -4.80840       -1.01630       -2.55270
H         -4.25890       -2.67360       -2.84130
H         -6.67320       -2.62810       -2.24040
H         -5.74130       -3.48420       -1.00700
H         -6.28460       -1.83330       -0.71060
H         -4.09400        0.20230       -0.54740
H         -2.44370        0.44050        1.24340
H          2.68020        1.68680        2.48120
H          3.30950        2.17080       -2.00230
H          3.04910        4.57840       -2.34660
H          2.87380        6.80360       -1.33920
H          3.49290        7.10500        0.29100
H          5.82980        6.97220       -0.57550
H          5.21270        6.67350       -2.19990
H          4.91070        8.22710       -1.41380
H          4.62200        5.31360        1.54800
H          4.91060        2.90430        1.88820
H          6.76820        1.80190       -0.20370
H          8.83080        1.26180        1.00580
H          9.82940        0.43730        3.10980
H          8.93010       -0.67620        4.15040
H         10.75580       -1.86200        2.94950
H          9.17900       -2.47330        2.43710
H         10.07220       -1.36310        1.39840
H          6.63430       -1.31440        3.59900
H          4.57430       -0.78840        2.38630
H          0.93950       -2.22550       -0.13010
H          7.85940        0.71480       -5.74430
H          7.89510       -0.24710       -7.93440
H          3.39420       -3.96680      -10.23800
H          7.05010       -1.96110      -13.11350
H          4.37750       -2.90090      -15.04310
H          5.95320       -4.67140      -15.80480
H          7.03080       -5.68760      -13.65040
H          5.09630       -6.75870      -12.17830
H          2.82530       -6.40180      -13.42640
H          3.33170       -5.28520      -15.82280
H          4.32210       -6.74640      -15.58340
H          2.49790       -3.94020      -13.61220
