155

C          0.25990       -2.14930       -6.59510
C         -0.46270       -2.85920       -7.51470
C         -1.75010       -3.56920       -7.33690
O         -2.39670       -3.73180       -6.32100
C         -2.12900       -4.06400       -8.67200
C         -3.28720       -4.76890       -8.99520
C         -3.38680       -5.10060      -10.32430
C         -2.40860       -4.74990      -11.26510
C         -1.26400       -4.05380      -10.95960
C         -1.13780       -3.71330       -9.60820
C         -0.07370       -2.99560       -8.91110
C          1.09250       -2.57030       -9.49430
C          1.41450       -2.74510      -10.85760
N          1.75500       -2.84580      -11.94970
C          2.16950       -1.91820       -8.85630
N          3.10420       -1.39610       -8.43830
C         -3.15320       -5.40400      -12.40210
C         -2.62240       -6.77450      -12.87360
C         -3.78850       -7.37450      -13.62540
C         -4.71400       -7.70810      -12.73500
C         -4.18900       -7.33910      -11.36620
C         -2.69180       -7.59650      -11.58000
C         -4.24280       -5.79650      -11.35310
C          0.05790       -1.90020       -5.22390
C         -0.91460       -2.30220       -4.32200
C         -0.68680       -1.79260       -3.05200
S         -1.54090       -1.92410       -1.53950
C         -0.35160       -0.90660       -0.80130
C         -0.14840       -0.36270        0.50510
C         -0.90510       -0.47240        1.66880
C         -0.46810        0.22530        2.77050
C         -1.09060        0.27920        4.15490
C         -1.09360       -1.12360        4.73550
C         -2.15440       -1.98000        4.48340
C         -2.16830       -3.27160        4.97900
C         -1.10160       -3.73880        5.74050
O         -0.98600       -4.98320        6.27270
C         -2.06900       -5.88900        6.19690
C         -3.18280       -5.55580        7.18520
C         -0.02450       -2.88280        5.97850
C         -0.02030       -1.59860        5.47980
C         -2.46710        0.91690        4.20370
C         -3.21590        0.81450        5.36730
C         -4.44280        1.44050        5.48970
C         -4.94620        2.19360        4.43320
O         -6.13180        2.85160        4.43720
C         -6.93820        2.80900        5.59980
C         -8.17810        3.64700        5.33180
C         -4.19160        2.30070        3.26340
C         -2.96670        1.67780        3.15400
C         -0.13800        1.21130        4.85410
C          0.87310        1.61550        3.99560
C          0.70800        1.01110        2.71140
C          1.47500        1.10630        1.55280
C          1.03920        0.40680        0.45280
C          1.66660        0.34620       -0.92880
C          2.97100       -0.43470       -0.97020
C          3.36850       -1.26380        0.07140
C          4.52240       -2.01080       -0.03140
C          5.30580       -1.96040       -1.18590
O          6.41530       -2.74030       -1.18420
C          7.24860       -2.75360       -2.32790
C          8.38970       -3.72080       -2.05550
C          4.90390       -1.13780       -2.23400
C          3.74680       -0.38920       -2.11940
C          1.83500        1.74980       -1.47360
C          0.85390        2.34790       -2.24640
C          1.00160        3.64020       -2.72160
C          2.14400        4.37040       -2.41340
O          2.40240        5.64760       -2.79750
C          1.53860        6.30240       -3.70510
C          1.72180        5.82020       -5.14110
C          3.12600        3.77400       -1.61820
C          2.97270        2.48610       -1.15740
C          0.64930       -0.48580       -1.66150
C          0.46970       -0.99110       -2.94590
S          1.27900       -0.87200       -4.45370
S          1.99470        2.73180        4.69220
C          1.08810        2.68300        6.18020
C          1.22880        3.32210        7.39940
C          0.22240        2.96860        8.29090
S         -0.90790        1.80650        7.57030
C         -0.02920        1.81960        6.09890
C         -0.08360        3.37270        9.59810
C          0.54900        4.22330       10.47210
C          1.85060        4.90120       10.31580
O          2.59790        4.92220        9.36000
C          2.10470        5.57730       11.60840
C          3.20800        6.32290       11.97330
C          3.22760        6.85720       13.25110
F          4.27660        7.58720       13.65010
C          2.16380        6.64020       14.12710
F          2.21030        7.16400       15.35770
C          1.05490        5.89340       13.75800
C          1.02740        5.35690       12.47980
C          0.02450        4.54760       11.78710
C         -1.20350        4.22280       12.30350
C         -2.23450        3.51810       11.64530
N         -3.14140        2.97600       11.19400
C         -1.63690        4.58570       13.59710
N         -2.05380        4.83970       14.63590
H          1.15690       -1.67070       -6.97000
H         -4.01650       -5.01020       -8.23770
H         -0.52810       -3.78770      -11.69910
H         -3.43340       -4.74970      -13.22530
H         -1.66960       -6.73830      -13.39450
H         -3.84140       -7.44120      -14.69620
H         -5.69460       -8.10890      -12.91340
H         -4.66370       -7.81880      -10.51440
H         -2.47560       -8.64990      -11.74990
H         -2.05760       -7.21950      -10.77970
H         -5.25070       -5.40460      -11.47670
H         -1.74010       -2.93210       -4.59770
H         -1.80190       -1.07170        1.69170
H         -2.99660       -1.63220        3.90330
H         -3.01730       -3.89930        4.75880
H         -1.62740       -6.85710        6.44890
H         -2.45750       -5.94500        5.17250
H         -3.61690       -4.58250        6.96940
H         -2.78330       -5.53610        8.19610
H         -3.96170       -6.31110        7.12780
H          0.80320       -3.25350        6.56200
H          0.82780       -0.95960        5.67710
H         -2.83960        0.23090        6.19490
H         -4.98980        1.33690        6.41290
H         -7.22230        1.77110        5.82270
H         -6.38430        3.21410        6.45760
H         -8.82460        3.63900        6.20450
H         -8.72090        3.24570        4.48040
H         -7.89210        4.67110        5.10840
H         -4.58800        2.88860        2.45080
H         -2.39610        1.78560        2.24350
H          2.36960        1.70850        1.52900
H          2.77460       -1.32820        0.97110
H          4.83940       -2.65280        0.77510
H          7.64230       -1.74560       -2.51860
H          6.67640       -3.08000       -3.20730
H          8.94980       -3.39750       -1.18240
H          9.05460       -3.75850       -2.91350
H          7.99540       -4.71510       -1.86470
H          5.47710       -1.07260       -3.14480
H          3.44860        0.24540       -2.94110
H         -0.04620        1.80370       -2.49340
H          0.21290        4.06030       -3.32550
H          1.81890        7.35680       -3.62960
H          0.49330        6.20160       -3.38780
H          1.47630        4.76490       -5.23210
H          1.07840        6.39160       -5.80460
H          2.75600        5.95850       -5.44600
H          4.00620        4.34890       -1.37820
H          3.75150        2.03770       -0.55840
H          2.01220        4.01330        7.64950
H         -0.99330        2.91570        9.96960
H          4.02710        6.48580       11.29110
H          0.26200        5.75580       14.47430
