
  xtb     02012217583D
 energy: -277.751350437929 gnorm: 0.000289351484 xtb: 6.4.1 (unknown)
168187  0     0  0            999 V2000
   -1.3455    7.7952   -1.3521 C   0  0  0  0  0  0  0  0  0  0  0  0
   -0.4995    8.7792   -1.7595 C   0  0  0  0  0  0  0  0  0  0  0  0
   -0.5842   10.1280   -1.1371 C   0  0  0  0  0  0  0  0  0  0  0  0
   -1.5124   10.5797   -0.5052 O   0  0  0  0  0  0  0  0  0  0  0  0
    0.7285   10.7521   -1.3969 C   0  0  0  0  0  0  0  0  0  0  0  0
    1.2115   11.9511   -0.8758 C   0  0  0  0  0  0  0  0  0  0  0  0
    2.4948   12.2534   -1.2633 C   0  0  0  0  0  0  0  0  0  0  0  0
    3.2514   11.4251   -2.1038 C   0  0  0  0  0  0  0  0  0  0  0  0
    2.7877   10.2435   -2.6316 C   0  0  0  0  0  0  0  0  0  0  0  0
    1.4822    9.9213   -2.2532 C   0  0  0  0  0  0  0  0  0  0  0  0
    0.6582    8.7752   -2.6258 C   0  0  0  0  0  0  0  0  0  0  0  0
    0.8008    8.0211   -3.7609 C   0  0  0  0  0  0  0  0  0  0  0  0
   -0.1989    7.1341   -4.2126 C   0  0  0  0  0  0  0  0  0  0  0  0
   -1.0194    6.4492   -4.6313 N   0  0  0  0  0  0  0  0  0  0  0  0
    1.8892    8.1310   -4.6477 C   0  0  0  0  0  0  0  0  0  0  0  0
    2.7606    8.1804   -5.3936 N   0  0  0  0  0  0  0  0  0  0  0  0
    4.4488   12.3415   -2.0618 C   0  0  0  0  0  0  0  0  0  0  0  0
    4.6818   13.2285   -3.3031 C   0  0  0  0  0  0  0  0  0  0  0  0
    5.5917   14.3248   -2.7978 C   0  0  0  0  0  0  0  0  0  0  0  0
    4.8746   15.1109   -2.0049 C   0  0  0  0  0  0  0  0  0  0  0  0
    3.4679   14.5589   -1.9609 C   0  0  0  0  0  0  0  0  0  0  0  0
    3.3587   14.0005   -3.3856 C   0  0  0  0  0  0  0  0  0  0  0  0
    3.6043   13.2667   -1.1280 C   0  0  0  0  0  0  0  0  0  0  0  0
   -1.1892    6.3927   -1.4043 C   0  0  0  0  0  0  0  0  0  0  0  0
    0.3682    5.6204   -1.7152 S   0  0  0  0  0  0  0  0  0  0  0  0
   -0.3184    4.0769   -1.4097 C   0  0  0  0  0  0  0  0  0  0  0  0
    0.0248    2.7288   -1.3274 C   0  0  0  0  0  0  0  0  0  0  0  0
    1.4214    1.7116   -1.4465 S   0  0  0  0  0  0  0  0  0  0  0  0
    0.4405    0.3704   -0.9504 C   0  0  0  0  0  0  0  0  0  0  0  0
    0.7286   -0.9689   -0.5486 C   0  0  0  0  0  0  0  0  0  0  0  0
    1.9285   -1.6736   -0.5343 C   0  0  0  0  0  0  0  0  0  0  0  0
    1.9187   -2.9166    0.0533 C   0  0  0  0  0  0  0  0  0  0  0  0
    3.0781   -3.8838    0.2189 C   0  0  0  0  0  0  0  0  0  0  0  0
    3.4800   -4.5613   -1.0813 C   0  0  0  0  0  0  0  0  0  0  0  0
    2.6777   -4.5130   -2.2116 C   0  0  0  0  0  0  0  0  0  0  0  0
    3.0502   -5.1854   -3.3621 C   0  0  0  0  0  0  0  0  0  0  0  0
    4.2235   -5.9248   -3.4111 C   0  0  0  0  0  0  0  0  0  0  0  0
    4.6003   -6.6914   -4.6457 C   0  0  0  0  0  0  0  0  0  0  0  0
    4.0350   -8.1119   -4.5845 C   0  0  0  0  0  0  0  0  0  0  0  0
    5.0162   -5.9802   -2.2711 C   0  0  0  0  0  0  0  0  0  0  0  0
    4.6499   -5.3108   -1.1202 C   0  0  0  0  0  0  0  0  0  0  0  0
    4.2401   -3.1566    0.8644 C   0  0  0  0  0  0  0  0  0  0  0  0
    4.3667   -3.0928    2.2447 C   0  0  0  0  0  0  0  0  0  0  0  0
    5.4071   -2.3876    2.8216 C   0  0  0  0  0  0  0  0  0  0  0  0
    6.3409   -1.7236    2.0381 C   0  0  0  0  0  0  0  0  0  0  0  0
    7.4460   -0.9238    2.6649 C   0  0  0  0  0  0  0  0  0  0  0  0
    7.0170    0.5344    2.8398 C   0  0  0  0  0  0  0  0  0  0  0  0
    6.1998   -1.7767    0.6572 C   0  0  0  0  0  0  0  0  0  0  0  0
    5.1633   -2.4811    0.0756 C   0  0  0  0  0  0  0  0  0  0  0  0
    2.4421   -4.9404    1.0862 C   0  0  0  0  0  0  0  0  0  0  0  0
    1.0870   -4.6542    1.2910 C   0  0  0  0  0  0  0  0  0  0  0  0
    0.7450   -3.4203    0.6624 C   0  0  0  0  0  0  0  0  0  0  0  0
   -0.4660   -2.7285    0.6114 C   0  0  0  0  0  0  0  0  0  0  0  0
   -0.4714   -1.5135   -0.0279 C   0  0  0  0  0  0  0  0  0  0  0  0
   -1.6386   -0.5602   -0.2710 C   0  0  0  0  0  0  0  0  0  0  0  0
   -2.4171   -0.2475    0.9939 C   0  0  0  0  0  0  0  0  0  0  0  0
   -3.7737   -0.4939    1.1424 C   0  0  0  0  0  0  0  0  0  0  0  0
   -4.4317   -0.1211    2.3001 C   0  0  0  0  0  0  0  0  0  0  0  0
   -3.7633    0.5212    3.3320 C   0  0  0  0  0  0  0  0  0  0  0  0
   -4.4990    0.9302    4.5747 C   0  0  0  0  0  0  0  0  0  0  0  0
   -4.6783   -0.2612    5.5170 C   0  0  0  0  0  0  0  0  0  0  0  0
   -2.4004    0.7477    3.1898 C   0  0  0  0  0  0  0  0  0  0  0  0
   -1.7362    0.3663    2.0403 C   0  0  0  0  0  0  0  0  0  0  0  0
   -2.4796   -1.1621   -1.3888 C   0  0  0  0  0  0  0  0  0  0  0  0
   -2.5874   -0.5480   -2.6302 C   0  0  0  0  0  0  0  0  0  0  0  0
   -3.3705   -1.0998   -3.6291 C   0  0  0  0  0  0  0  0  0  0  0  0
   -4.0611   -2.2852   -3.4243 C   0  0  0  0  0  0  0  0  0  0  0  0
   -4.9679   -2.8437   -4.4812 C   0  0  0  0  0  0  0  0  0  0  0  0
   -6.3849   -2.2926   -4.3058 C   0  0  0  0  0  0  0  0  0  0  0  0
   -3.9271   -2.9150   -2.1937 C   0  0  0  0  0  0  0  0  0  0  0  0
   -3.1449   -2.3681   -1.1948 C   0  0  0  0  0  0  0  0  0  0  0  0
   -0.8967    0.6687   -0.7395 C   0  0  0  0  0  0  0  0  0  0  0  0
   -1.1483    2.0248   -0.9542 C   0  0  0  0  0  0  0  0  0  0  0  0
   -2.1941    2.9140   -0.8296 N   0  0  0  0  0  0  0  0  0  0  0  0
   -1.6897    4.1720   -1.0840 C   0  0  0  0  0  0  0  0  0  0  0  0
   -2.1722    5.4745   -1.0692 C   0  0  0  0  0  0  0  0  0  0  0  0
   -3.4760    2.6420   -0.3793 C   0  0  0  0  0  0  0  0  0  0  0  0
   -4.3648    1.7448   -0.8873 C   0  0  0  0  0  0  0  0  0  0  0  0
   -5.5487    1.7254   -0.1276 C   0  0  0  0  0  0  0  0  0  0  0  0
   -7.0112    0.8132   -0.1872 S   0  0  0  0  0  0  0  0  0  0  0  0
   -7.6184    1.6439    1.2273 C   0  0  0  0  0  0  0  0  0  0  0  0
   -8.9345    1.2490    1.8018 C   0  0  0  0  0  0  0  0  0  0  0  0
   -8.8077   -0.0350    2.6261 C   0  0  0  0  0  0  0  0  0  0  0  0
   -6.7401    2.5661    1.7069 C   0  0  0  0  0  0  0  0  0  0  0  0
   -5.5593    2.6112    0.9400 C   0  0  0  0  0  0  0  0  0  0  0  0
   -4.0787    3.4937    1.0372 S   0  0  0  0  0  0  0  0  0  0  0  0
    0.2840   -5.8178    2.2477 S   0  0  0  0  0  0  0  0  0  0  0  0
    1.7823   -6.7322    2.3919 C   0  0  0  0  0  0  0  0  0  0  0  0
    2.8313   -6.1111    1.6908 C   0  0  0  0  0  0  0  0  0  0  0  0
    1.9792   -7.9136    3.1088 C   0  0  0  0  0  0  0  0  0  0  0  0
    1.1164   -8.6526    3.8872 C   0  0  0  0  0  0  0  0  0  0  0  0
   -0.2880   -8.3320    4.1422 C   0  0  0  0  0  0  0  0  0  0  0  0
   -0.9324   -7.4008    3.6966 O   0  0  0  0  0  0  0  0  0  0  0  0
   -0.7817   -9.3792    5.0640 C   0  0  0  0  0  0  0  0  0  0  0  0
    0.2593  -10.2853    5.3373 C   0  0  0  0  0  0  0  0  0  0  0  0
    0.0366  -11.3583    6.1847 C   0  0  0  0  0  0  0  0  0  0  0  0
   -1.2224  -11.5110    6.7478 C   0  0  0  0  0  0  0  0  0  0  0  0
   -2.2442  -10.6154    6.4753 C   0  0  0  0  0  0  0  0  0  0  0  0
   -3.9363  -10.8776    7.2751 Br  0  0  0  0  0  0  0  0  0  0  0  0
   -2.0407   -9.5253    5.6217 C   0  0  0  0  0  0  0  0  0  0  0  0
   -3.2995   -8.4156    5.2833 Cl  0  0  0  0  0  0  0  0  0  0  0  0
    1.4550   -9.8587    4.6079 C   0  0  0  0  0  0  0  0  0  0  0  0
    2.6606  -10.5146    4.6295 C   0  0  0  0  0  0  0  0  0  0  0  0
    2.9103  -11.6931    5.3629 C   0  0  0  0  0  0  0  0  0  0  0  0
    3.1841  -12.6512    5.9334 N   0  0  0  0  0  0  0  0  0  0  0  0
    3.8254  -10.1281    3.9345 C   0  0  0  0  0  0  0  0  0  0  0  0
    4.8174   -9.8912    3.4052 N   0  0  0  0  0  0  0  0  0  0  0  0
   -2.2184    8.1378   -0.8040 H   0  0  0  0  0  0  0  0  0  0  0  0
    0.6024   12.5586   -0.2249 H   0  0  0  0  0  0  0  0  0  0  0  0
    3.3780    9.6033   -3.2669 H   0  0  0  0  0  0  0  0  0  0  0  0
    5.3665   11.9054   -1.6714 H   0  0  0  0  0  0  0  0  0  0  0  0
    5.0056   12.6923   -4.1908 H   0  0  0  0  0  0  0  0  0  0  0  0
    6.6417   14.3820   -3.0172 H   0  0  0  0  0  0  0  0  0  0  0  0
    5.2059   15.9555   -1.4297 H   0  0  0  0  0  0  0  0  0  0  0  0
    2.6868   15.2363   -1.6263 H   0  0  0  0  0  0  0  0  0  0  0  0
    2.4869   13.3701   -3.5501 H   0  0  0  0  0  0  0  0  0  0  0  0
    3.3871   14.7862   -4.1387 H   0  0  0  0  0  0  0  0  0  0  0  0
    3.9594   13.4488   -0.1152 H   0  0  0  0  0  0  0  0  0  0  0  0
    2.8257   -1.2462   -0.9545 H   0  0  0  0  0  0  0  0  0  0  0  0
    1.7576   -3.9471   -2.2001 H   0  0  0  0  0  0  0  0  0  0  0  0
    2.4162   -5.1319   -4.2357 H   0  0  0  0  0  0  0  0  0  0  0  0
    4.2079   -6.1857   -5.5302 H   0  0  0  0  0  0  0  0  0  0  0  0
    5.6875   -6.7409   -4.7336 H   0  0  0  0  0  0  0  0  0  0  0  0
    2.9500   -8.0842   -4.5109 H   0  0  0  0  0  0  0  0  0  0  0  0
    4.3089   -8.6694   -5.4771 H   0  0  0  0  0  0  0  0  0  0  0  0
    4.4229   -8.6364   -3.7142 H   0  0  0  0  0  0  0  0  0  0  0  0
    5.9318   -6.5537   -2.2857 H   0  0  0  0  0  0  0  0  0  0  0  0
    5.2821   -5.3594   -0.2454 H   0  0  0  0  0  0  0  0  0  0  0  0
    3.6508   -3.5996    2.8756 H   0  0  0  0  0  0  0  0  0  0  0  0
    5.4949   -2.3556    3.8983 H   0  0  0  0  0  0  0  0  0  0  0  0
    8.3354   -0.9630    2.0327 H   0  0  0  0  0  0  0  0  0  0  0  0
    7.7007   -1.3439    3.6399 H   0  0  0  0  0  0  0  0  0  0  0  0
    7.8168    1.1144    3.2944 H   0  0  0  0  0  0  0  0  0  0  0  0
    6.7720    0.9754    1.8761 H   0  0  0  0  0  0  0  0  0  0  0  0
    6.1373    0.5959    3.4767 H   0  0  0  0  0  0  0  0  0  0  0  0
    6.9132   -1.2631    0.0285 H   0  0  0  0  0  0  0  0  0  0  0  0
    5.0781   -2.5187   -1.0009 H   0  0  0  0  0  0  0  0  0  0  0  0
   -1.3409   -3.1370    1.0918 H   0  0  0  0  0  0  0  0  0  0  0  0
   -4.3360   -0.9620    0.3494 H   0  0  0  0  0  0  0  0  0  0  0  0
   -5.4906   -0.3169    2.3921 H   0  0  0  0  0  0  0  0  0  0  0  0
   -5.4811    1.3244    4.3018 H   0  0  0  0  0  0  0  0  0  0  0  0
   -3.9464    1.7189    5.0886 H   0  0  0  0  0  0  0  0  0  0  0  0
   -3.7096   -0.6630    5.8056 H   0  0  0  0  0  0  0  0  0  0  0  0
   -5.2432   -1.0515    5.0275 H   0  0  0  0  0  0  0  0  0  0  0  0
   -5.2106    0.0411    6.4159 H   0  0  0  0  0  0  0  0  0  0  0  0
   -1.8543    1.2386    3.9826 H   0  0  0  0  0  0  0  0  0  0  0  0
   -0.6758    0.5561    1.9460 H   0  0  0  0  0  0  0  0  0  0  0  0
   -2.0574    0.3714   -2.8323 H   0  0  0  0  0  0  0  0  0  0  0  0
   -3.4435   -0.5958   -4.5824 H   0  0  0  0  0  0  0  0  0  0  0  0
   -4.9935   -3.9328   -4.4103 H   0  0  0  0  0  0  0  0  0  0  0  0
   -4.5958   -2.5730   -5.4712 H   0  0  0  0  0  0  0  0  0  0  0  0
   -7.0471   -2.6973   -5.0672 H   0  0  0  0  0  0  0  0  0  0  0  0
   -6.3826   -1.2079   -4.3883 H   0  0  0  0  0  0  0  0  0  0  0  0
   -6.7766   -2.5589   -3.3265 H   0  0  0  0  0  0  0  0  0  0  0  0
   -4.4414   -3.8481   -2.0135 H   0  0  0  0  0  0  0  0  0  0  0  0
   -3.0599   -2.8863   -0.2529 H   0  0  0  0  0  0  0  0  0  0  0  0
   -3.1819    5.7612   -0.8390 H   0  0  0  0  0  0  0  0  0  0  0  0
   -4.1792    1.1323   -1.7495 H   0  0  0  0  0  0  0  0  0  0  0  0
   -9.3023    2.0577    2.4364 H   0  0  0  0  0  0  0  0  0  0  0  0
   -9.6539    1.0877    0.9961 H   0  0  0  0  0  0  0  0  0  0  0  0
   -9.7738   -0.3149    3.0376 H   0  0  0  0  0  0  0  0  0  0  0  0
   -8.4473   -0.8494    2.0014 H   0  0  0  0  0  0  0  0  0  0  0  0
   -8.1095    0.1092    3.4479 H   0  0  0  0  0  0  0  0  0  0  0  0
   -6.9272    3.1833    2.5663 H   0  0  0  0  0  0  0  0  0  0  0  0
    3.8220   -6.5287    1.6661 H   0  0  0  0  0  0  0  0  0  0  0  0
    2.9947   -8.2838    3.0359 H   0  0  0  0  0  0  0  0  0  0  0  0
    0.8098  -12.0708    6.4173 H   0  0  0  0  0  0  0  0  0  0  0  0
   -1.4152  -12.3399    7.4113 H   0  0  0  0  0  0  0  0  0  0  0  0
  1  2  2  0  0  0  0
  2  3  1  0  0  0  0
  3  4  2  0  0  0  0
  3  5  1  0  0  0  0
  5  6  2  0  0  0  0
  6  7  1  0  0  0  0
  7  8  2  0  0  0  0
  8  9  1  0  0  0  0
  9 10  2  0  0  0  0
 10 11  1  0  0  0  0
 11 12  2  0  0  0  0
 12 13  1  0  0  0  0
 13 14  3  0  0  0  0
 12 15  1  0  0  0  0
 15 16  3  0  0  0  0
  8 17  1  0  0  0  0
 17 18  1  0  0  0  0
 18 19  1  0  0  0  0
 19 20  2  0  0  0  0
 20 21  1  0  0  0  0
 21 22  1  0  0  0  0
 21 23  1  0  0  0  0
  1 24  1  0  0  0  0
 24 25  1  0  0  0  0
 25 26  1  0  0  0  0
 26 27  1  0  0  0  0
 27 28  1  0  0  0  0
 28 29  1  0  0  0  0
 29 30  1  0  0  0  0
 30 31  2  0  0  0  0
 31 32  1  0  0  0  0
 32 33  1  0  0  0  0
 33 34  1  0  0  0  0
 34 35  2  0  0  0  0
 35 36  1  0  0  0  0
 36 37  2  0  0  0  0
 37 38  1  0  0  0  0
 38 39  1  0  0  0  0
 37 40  1  0  0  0  0
 40 41  2  0  0  0  0
 33 42  1  0  0  0  0
 42 43  2  0  0  0  0
 43 44  1  0  0  0  0
 44 45  2  0  0  0  0
 45 46  1  0  0  0  0
 46 47  1  0  0  0  0
 45 48  1  0  0  0  0
 48 49  2  0  0  0  0
 33 50  1  0  0  0  0
 50 51  2  0  0  0  0
 51 52  1  0  0  0  0
 52 53  1  0  0  0  0
 53 54  2  0  0  0  0
 54 55  1  0  0  0  0
 55 56  1  0  0  0  0
 56 57  2  0  0  0  0
 57 58  1  0  0  0  0
 58 59  2  0  0  0  0
 59 60  1  0  0  0  0
 60 61  1  0  0  0  0
 59 62  1  0  0  0  0
 62 63  2  0  0  0  0
 55 64  1  0  0  0  0
 64 65  2  0  0  0  0
 65 66  1  0  0  0  0
 66 67  2  0  0  0  0
 67 68  1  0  0  0  0
 68 69  1  0  0  0  0
 67 70  1  0  0  0  0
 70 71  2  0  0  0  0
 55 72  1  0  0  0  0
 72 73  1  0  0  0  0
 73 74  1  0  0  0  0
 74 75  1  0  0  0  0
 75 76  1  0  0  0  0
 74 77  1  0  0  0  0
 77 78  2  0  0  0  0
 78 79  1  0  0  0  0
 79 80  1  0  0  0  0
 80 81  1  0  0  0  0
 81 82  1  0  0  0  0
 82 83  1  0  0  0  0
 81 84  2  0  0  0  0
 84 85  1  0  0  0  0
 85 86  1  0  0  0  0
 51 87  1  0  0  0  0
 87 88  1  0  0  0  0
 88 89  2  0  0  0  0
 88 90  1  0  0  0  0
 90 91  2  0  0  0  0
 91 92  1  0  0  0  0
 92 93  2  0  0  0  0
 92 94  1  0  0  0  0
 94 95  2  0  0  0  0
 95 96  1  0  0  0  0
 96 97  2  0  0  0  0
 97 98  1  0  0  0  0
 98 99  1  0  0  0  0
 98100  2  0  0  0  0
100101  1  0  0  0  0
 95102  1  0  0  0  0
102103  2  0  0  0  0
103104  1  0  0  0  0
104105  3  0  0  0  0
103106  1  0  0  0  0
106107  3  0  0  0  0
 11  2  1  0  0  0  0
 23 17  1  0  0  0  0
 76 24  2  0  0  0  0
 86 77  1  0  0  0  0
102 91  1  0  0  0  0
 10  5  1  0  0  0  0
 22 18  1  0  0  0  0
 75 26  2  0  0  0  0
 85 79  2  0  0  0  0
100 94  1  0  0  0  0
 23  7  1  0  0  0  0
 73 27  2  0  0  0  0
 72 29  2  0  0  0  0
 54 30  1  0  0  0  0
 63 56  1  0  0  0  0
 71 64  1  0  0  0  0
 52 32  2  0  0  0  0
 41 34  1  0  0  0  0
 49 42  1  0  0  0  0
 89 50  1  0  0  0  0
  1108  1  0  0  0  0
  6109  1  0  0  0  0
  9110  1  0  0  0  0
 17111  1  0  0  0  0
 18112  1  0  0  0  0
 19113  1  0  0  0  0
 20114  1  0  0  0  0
 21115  1  0  0  0  0
 22116  1  0  0  0  0
 22117  1  0  0  0  0
 23118  1  0  0  0  0
 31119  1  0  0  0  0
 35120  1  0  0  0  0
 36121  1  0  0  0  0
 38122  1  0  0  0  0
 38123  1  0  0  0  0
 39124  1  0  0  0  0
 39125  1  0  0  0  0
 39126  1  0  0  0  0
 40127  1  0  0  0  0
 41128  1  0  0  0  0
 43129  1  0  0  0  0
 44130  1  0  0  0  0
 46131  1  0  0  0  0
 46132  1  0  0  0  0
 47133  1  0  0  0  0
 47134  1  0  0  0  0
 47135  1  0  0  0  0
 48136  1  0  0  0  0
 49137  1  0  0  0  0
 53138  1  0  0  0  0
 57139  1  0  0  0  0
 58140  1  0  0  0  0
 60141  1  0  0  0  0
 60142  1  0  0  0  0
 61143  1  0  0  0  0
 61144  1  0  0  0  0
 61145  1  0  0  0  0
 62146  1  0  0  0  0
 63147  1  0  0  0  0
 65148  1  0  0  0  0
 66149  1  0  0  0  0
 68150  1  0  0  0  0
 68151  1  0  0  0  0
 69152  1  0  0  0  0
 69153  1  0  0  0  0
 69154  1  0  0  0  0
 70155  1  0  0  0  0
 71156  1  0  0  0  0
 76157  1  0  0  0  0
 78158  1  0  0  0  0
 82159  1  0  0  0  0
 82160  1  0  0  0  0
 83161  1  0  0  0  0
 83162  1  0  0  0  0
 83163  1  0  0  0  0
 84164  1  0  0  0  0
 89165  1  0  0  0  0
 90166  1  0  0  0  0
 96167  1  0  0  0  0
 97168  1  0  0  0  0
M  END
