
  xtb     02112201313D
 energy: -206.423939969959 gnorm: 0.000183165035 xtb: 6.4.1 (unknown)
103116  0     0  0            999 V2000
   -0.0138    0.8512    4.5135 C   0  0  0  0  0  0  0  0  0  0  0  0
    0.0212    2.1227    4.9997 C   0  0  0  0  0  0  0  0  0  0  0  0
   -0.1998    3.3999    4.2732 C   0  0  0  0  0  0  0  0  0  0  0  0
   -0.7231    3.5744    3.1933 O   0  0  0  0  0  0  0  0  0  0  0  0
    0.3674    4.4495    5.1374 C   0  0  0  0  0  0  0  0  0  0  0  0
    0.5098    5.7986    4.8195 C   0  0  0  0  0  0  0  0  0  0  0  0
    1.1076    6.5453    5.8054 C   0  0  0  0  0  0  0  0  0  0  0  0
    1.5370    5.9914    7.0203 C   0  0  0  0  0  0  0  0  0  0  0  0
    1.3981    4.6643    7.3488 C   0  0  0  0  0  0  0  0  0  0  0  0
    0.7865    3.8870    6.3601 C   0  0  0  0  0  0  0  0  0  0  0  0
    0.4894    2.4600    6.3384 C   0  0  0  0  0  0  0  0  0  0  0  0
    0.5707    1.6102    7.4088 C   0  0  0  0  0  0  0  0  0  0  0  0
    0.2102    0.2448    7.4008 C   0  0  0  0  0  0  0  0  0  0  0  0
   -0.0713   -0.8658    7.4819 N   0  0  0  0  0  0  0  0  0  0  0  0
    0.9867    2.0002    8.7003 C   0  0  0  0  0  0  0  0  0  0  0  0
    1.3124    2.2483    9.7725 N   0  0  0  0  0  0  0  0  0  0  0  0
    2.0578    7.3118    7.5290 C   0  0  0  0  0  0  0  0  0  0  0  0
    1.2048    8.0695    8.5760 C   0  0  0  0  0  0  0  0  0  0  0  0
   -0.2244    7.6382    8.3572 C   0  0  0  0  0  0  0  0  0  0  0  0
   -0.6341    8.1620    7.2096 C   0  0  0  0  0  0  0  0  0  0  0  0
    0.5106    8.9569    6.6313 C   0  0  0  0  0  0  0  0  0  0  0  0
    1.1709    9.4613    7.9244 C   0  0  0  0  0  0  0  0  0  0  0  0
    1.5766    7.9289    6.1778 C   0  0  0  0  0  0  0  0  0  0  0  0
   -0.3781    0.3502    3.2414 C   0  0  0  0  0  0  0  0  0  0  0  0
   -1.0072    0.9168    2.1489 C   0  0  0  0  0  0  0  0  0  0  0  0
   -1.1131    0.0145    1.0928 C   0  0  0  0  0  0  0  0  0  0  0  0
   -1.7152    0.1479   -0.5333 S   0  0  0  0  0  0  0  0  0  0  0  0
   -1.1738   -1.4819   -0.8768 C   0  0  0  0  0  0  0  0  0  0  0  0
   -1.2456   -2.1012   -2.1162 C   0  0  0  0  0  0  0  0  0  0  0  0
   -1.8997   -1.4983   -3.2653 C   0  0  0  0  0  0  0  0  0  0  0  0
   -1.4578    0.0571   -3.8938 S   0  0  0  0  0  0  0  0  0  0  0  0
   -2.6185   -0.0472   -5.1704 C   0  0  0  0  0  0  0  0  0  0  0  0
   -2.8108    1.0687   -6.1357 C   0  0  0  0  0  0  0  0  0  0  0  0
   -3.8284    2.0796   -5.6004 C   0  0  0  0  0  0  0  0  0  0  0  0
   -3.3168   -1.2159   -5.0888 C   0  0  0  0  0  0  0  0  0  0  0  0
   -4.5519   -1.6720   -6.1831 Cl  0  0  0  0  0  0  0  0  0  0  0  0
   -2.9099   -2.0429   -4.0112 C   0  0  0  0  0  0  0  0  0  0  0  0
   -3.6570   -3.5421   -3.6559 Cl  0  0  0  0  0  0  0  0  0  0  0  0
   -0.6593   -3.3726   -2.2286 C   0  0  0  0  0  0  0  0  0  0  0  0
   -0.1334   -4.0358   -1.0893 C   0  0  0  0  0  0  0  0  0  0  0  0
   -0.1250   -3.4444    0.1633 C   0  0  0  0  0  0  0  0  0  0  0  0
    0.3870   -4.1215    1.3476 C   0  0  0  0  0  0  0  0  0  0  0  0
   -0.6536   -4.4864    2.6900 S   0  0  0  0  0  0  0  0  0  0  0  0
    0.6462   -5.1633    3.6082 C   0  0  0  0  0  0  0  0  0  0  0  0
    0.4354   -5.6182    5.0089 C   0  0  0  0  0  0  0  0  0  0  0  0
    0.5182   -4.4321    5.9742 C   0  0  0  0  0  0  0  0  0  0  0  0
    1.8082   -5.1129    2.8970 C   0  0  0  0  0  0  0  0  0  0  0  0
    1.6628   -4.5309    1.6085 C   0  0  0  0  0  0  0  0  0  0  0  0
    2.9750   -4.3031    0.5316 Cl  0  0  0  0  0  0  0  0  0  0  0  0
    3.3160   -5.6851    3.4810 Cl  0  0  0  0  0  0  0  0  0  0  0  0
   -0.6122   -2.1305    0.2529 C   0  0  0  0  0  0  0  0  0  0  0  0
   -0.5858   -1.2501    1.3601 C   0  0  0  0  0  0  0  0  0  0  0  0
    0.0463   -1.3365    2.9513 S   0  0  0  0  0  0  0  0  0  0  0  0
    0.5194   -5.6191   -1.4591 S   0  0  0  0  0  0  0  0  0  0  0  0
    0.1982   -5.3619   -3.1508 C   0  0  0  0  0  0  0  0  0  0  0  0
    0.4837   -6.0707   -4.3039 C   0  0  0  0  0  0  0  0  0  0  0  0
    0.0869   -5.3857   -5.4558 C   0  0  0  0  0  0  0  0  0  0  0  0
   -0.6735   -3.8504   -5.0702 S   0  0  0  0  0  0  0  0  0  0  0  0
   -0.4375   -4.1389   -3.3971 C   0  0  0  0  0  0  0  0  0  0  0  0
    0.3193   -5.8932   -6.7435 C   0  0  0  0  0  0  0  0  0  0  0  0
    0.0427   -5.3524   -7.9736 C   0  0  0  0  0  0  0  0  0  0  0  0
   -0.6237   -4.0684   -8.2196 C   0  0  0  0  0  0  0  0  0  0  0  0
   -1.0348   -3.2667   -7.4016 O   0  0  0  0  0  0  0  0  0  0  0  0
   -0.7015   -3.9243   -9.6869 C   0  0  0  0  0  0  0  0  0  0  0  0
   -1.2460   -2.8855  -10.4156 C   0  0  0  0  0  0  0  0  0  0  0  0
   -1.1963   -2.9761  -11.7970 C   0  0  0  0  0  0  0  0  0  0  0  0
   -1.7092   -1.9928  -12.5451 F   0  0  0  0  0  0  0  0  0  0  0  0
   -0.6143   -4.0837  -12.4153 C   0  0  0  0  0  0  0  0  0  0  0  0
   -0.5793   -4.1449  -13.7502 F   0  0  0  0  0  0  0  0  0  0  0  0
   -0.0683   -5.1268  -11.6816 C   0  0  0  0  0  0  0  0  0  0  0  0
   -0.1133   -5.0439  -10.2984 C   0  0  0  0  0  0  0  0  0  0  0  0
    0.3670   -5.9529   -9.2560 C   0  0  0  0  0  0  0  0  0  0  0  0
    1.0166   -7.1361   -9.4847 C   0  0  0  0  0  0  0  0  0  0  0  0
    1.5014   -8.0208   -8.4969 C   0  0  0  0  0  0  0  0  0  0  0  0
    1.9290   -8.7939   -7.7634 N   0  0  0  0  0  0  0  0  0  0  0  0
    1.3069   -7.6430  -10.7707 C   0  0  0  0  0  0  0  0  0  0  0  0
    1.5749   -8.1100  -11.7837 N   0  0  0  0  0  0  0  0  0  0  0  0
    0.3498    0.0742    5.1765 H   0  0  0  0  0  0  0  0  0  0  0  0
    0.1737    6.1817    3.8687 H   0  0  0  0  0  0  0  0  0  0  0  0
    1.7427    4.2509    8.2820 H   0  0  0  0  0  0  0  0  0  0  0  0
    3.1215    7.3472    7.7557 H   0  0  0  0  0  0  0  0  0  0  0  0
    1.5762    8.0014    9.5948 H   0  0  0  0  0  0  0  0  0  0  0  0
   -0.7546    6.9710    9.0111 H   0  0  0  0  0  0  0  0  0  0  0  0
   -1.5758    8.0200    6.7125 H   0  0  0  0  0  0  0  0  0  0  0  0
    0.2501    9.6977    5.8800 H   0  0  0  0  0  0  0  0  0  0  0  0
    0.5451   10.1660    8.4694 H   0  0  0  0  0  0  0  0  0  0  0  0
    2.1592    9.8914    7.7679 H   0  0  0  0  0  0  0  0  0  0  0  0
    2.3254    8.3696    5.5225 H   0  0  0  0  0  0  0  0  0  0  0  0
   -1.3491    1.9345    2.1266 H   0  0  0  0  0  0  0  0  0  0  0  0
   -1.8566    1.5681   -6.3093 H   0  0  0  0  0  0  0  0  0  0  0  0
   -3.1692    0.6559   -7.0804 H   0  0  0  0  0  0  0  0  0  0  0  0
   -3.4828    2.5009   -4.6595 H   0  0  0  0  0  0  0  0  0  0  0  0
   -4.7873    1.5958   -5.4336 H   0  0  0  0  0  0  0  0  0  0  0  0
   -3.9648    2.8858   -6.3159 H   0  0  0  0  0  0  0  0  0  0  0  0
   -0.5446   -6.0902    5.0959 H   0  0  0  0  0  0  0  0  0  0  0  0
    1.2026   -6.3522    5.2610 H   0  0  0  0  0  0  0  0  0  0  0  0
   -0.2416   -3.6920    5.7369 H   0  0  0  0  0  0  0  0  0  0  0  0
    0.3654   -4.7701    6.9949 H   0  0  0  0  0  0  0  0  0  0  0  0
    1.4940   -3.9582    5.9082 H   0  0  0  0  0  0  0  0  0  0  0  0
    0.9691   -7.0293   -4.3333 H   0  0  0  0  0  0  0  0  0  0  0  0
    0.8058   -6.8610   -6.7338 H   0  0  0  0  0  0  0  0  0  0  0  0
   -1.6947   -2.0329   -9.9313 H   0  0  0  0  0  0  0  0  0  0  0  0
    0.3682   -5.9581  -12.2100 H   0  0  0  0  0  0  0  0  0  0  0  0
  1  2  2  0  0  0  0
  2  3  1  0  0  0  0
  3  4  2  0  0  0  0
  3  5  1  0  0  0  0
  5  6  2  0  0  0  0
  6  7  1  0  0  0  0
  7  8  2  0  0  0  0
  8  9  1  0  0  0  0
  9 10  2  0  0  0  0
 10 11  1  0  0  0  0
 11 12  2  0  0  0  0
 12 13  1  0  0  0  0
 13 14  3  0  0  0  0
 12 15  1  0  0  0  0
 15 16  3  0  0  0  0
  8 17  1  0  0  0  0
 17 18  1  0  0  0  0
 18 19  1  0  0  0  0
 19 20  2  0  0  0  0
 20 21  1  0  0  0  0
 21 22  1  0  0  0  0
 21 23  1  0  0  0  0
  1 24  1  0  0  0  0
 24 25  2  0  0  0  0
 25 26  1  0  0  0  0
 26 27  1  0  0  0  0
 27 28  1  0  0  0  0
 28 29  2  0  0  0  0
 29 30  1  0  0  0  0
 30 31  1  0  0  0  0
 31 32  1  0  0  0  0
 32 33  1  0  0  0  0
 33 34  1  0  0  0  0
 32 35  2  0  0  0  0
 35 36  1  0  0  0  0
 35 37  1  0  0  0  0
 37 38  1  0  0  0  0
 29 39  1  0  0  0  0
 39 40  2  0  0  0  0
 40 41  1  0  0  0  0
 41 42  1  0  0  0  0
 42 43  1  0  0  0  0
 43 44  1  0  0  0  0
 44 45  1  0  0  0  0
 45 46  1  0  0  0  0
 44 47  2  0  0  0  0
 47 48  1  0  0  0  0
 48 49  1  0  0  0  0
 47 50  1  0  0  0  0
 41 51  2  0  0  0  0
 51 52  1  0  0  0  0
 52 53  1  0  0  0  0
 40 54  1  0  0  0  0
 54 55  1  0  0  0  0
 55 56  1  0  0  0  0
 56 57  2  0  0  0  0
 57 58  1  0  0  0  0
 58 59  1  0  0  0  0
 57 60  1  0  0  0  0
 60 61  2  0  0  0  0
 61 62  1  0  0  0  0
 62 63  2  0  0  0  0
 62 64  1  0  0  0  0
 64 65  2  0  0  0  0
 65 66  1  0  0  0  0
 66 67  1  0  0  0  0
 66 68  2  0  0  0  0
 68 69  1  0  0  0  0
 68 70  1  0  0  0  0
 70 71  2  0  0  0  0
 71 72  1  0  0  0  0
 72 73  2  0  0  0  0
 73 74  1  0  0  0  0
 74 75  3  0  0  0  0
 73 76  1  0  0  0  0
 76 77  3  0  0  0  0
 11  2  1  0  0  0  0
 23 17  1  0  0  0  0
 53 24  1  0  0  0  0
 59 55  2  0  0  0  0
 72 61  1  0  0  0  0
 10  5  1  0  0  0  0
 22 18  1  0  0  0  0
 52 26  2  0  0  0  0
 71 64  1  0  0  0  0
 23  7  1  0  0  0  0
 51 28  1  0  0  0  0
 37 30  2  0  0  0  0
 59 39  1  0  0  0  0
 48 42  2  0  0  0  0
  1 78  1  0  0  0  0
  6 79  1  0  0  0  0
  9 80  1  0  0  0  0
 17 81  1  0  0  0  0
 18 82  1  0  0  0  0
 19 83  1  0  0  0  0
 20 84  1  0  0  0  0
 21 85  1  0  0  0  0
 22 86  1  0  0  0  0
 22 87  1  0  0  0  0
 23 88  1  0  0  0  0
 25 89  1  0  0  0  0
 33 90  1  0  0  0  0
 33 91  1  0  0  0  0
 34 92  1  0  0  0  0
 34 93  1  0  0  0  0
 34 94  1  0  0  0  0
 45 95  1  0  0  0  0
 45 96  1  0  0  0  0
 46 97  1  0  0  0  0
 46 98  1  0  0  0  0
 46 99  1  0  0  0  0
 56100  1  0  0  0  0
 60101  1  0  0  0  0
 65102  1  0  0  0  0
 70103  1  0  0  0  0
M  END
