
  xtb     02012217123D
 energy: -263.394593527050 gnorm: 0.000690325265 xtb: 6.4.1 (unknown)
169186  0     0  0            999 V2000
   -4.9878    4.0299    4.7874 C   0  0  0  0  0  0  0  0  0  0  0  0
   -4.9721    4.1392    6.1545 C   0  0  0  0  0  0  0  0  0  0  0  0
   -3.9580    3.6579    7.1164 C   0  0  0  0  0  0  0  0  0  0  0  0
   -3.0097    2.9191    6.9289 O   0  0  0  0  0  0  0  0  0  0  0  0
   -4.3113    4.2633    8.4145 C   0  0  0  0  0  0  0  0  0  0  0  0
   -3.5940    4.1525    9.6041 C   0  0  0  0  0  0  0  0  0  0  0  0
   -4.1433    4.8463   10.6547 C   0  0  0  0  0  0  0  0  0  0  0  0
   -5.3188    5.5986   10.5307 C   0  0  0  0  0  0  0  0  0  0  0  0
   -6.0374    5.7126    9.3647 C   0  0  0  0  0  0  0  0  0  0  0  0
   -5.4976    5.0087    8.2832 C   0  0  0  0  0  0  0  0  0  0  0  0
   -5.9662    4.8890    6.9044 C   0  0  0  0  0  0  0  0  0  0  0  0
   -7.1694    5.3604    6.4444 C   0  0  0  0  0  0  0  0  0  0  0  0
   -7.6968    5.1875    5.1468 C   0  0  0  0  0  0  0  0  0  0  0  0
   -8.2259    5.0845    4.1318 N   0  0  0  0  0  0  0  0  0  0  0  0
   -8.1014    6.0683    7.2322 C   0  0  0  0  0  0  0  0  0  0  0  0
   -8.9104    6.6501    7.8034 N   0  0  0  0  0  0  0  0  0  0  0  0
   -5.2876    6.0345   11.9748 C   0  0  0  0  0  0  0  0  0  0  0  0
   -6.2596    5.3160   12.9341 C   0  0  0  0  0  0  0  0  0  0  0  0
   -5.6817    5.5874   14.3043 C   0  0  0  0  0  0  0  0  0  0  0  0
   -4.5701    4.8723   14.4224 C   0  0  0  0  0  0  0  0  0  0  0  0
   -4.3777    4.1060   13.1337 C   0  0  0  0  0  0  0  0  0  0  0  0
   -5.8428    3.8501   12.7575 C   0  0  0  0  0  0  0  0  0  0  0  0
   -3.9782    5.1933   12.1137 C   0  0  0  0  0  0  0  0  0  0  0  0
   -4.1240    3.3800    3.8914 C   0  0  0  0  0  0  0  0  0  0  0  0
   -4.4883    3.6156    2.1668 S   0  0  0  0  0  0  0  0  0  0  0  0
   -3.1519    2.6328    1.7334 C   0  0  0  0  0  0  0  0  0  0  0  0
   -2.4792    2.1184    0.6280 C   0  0  0  0  0  0  0  0  0  0  0  0
   -2.5888    2.1217   -1.1016 S   0  0  0  0  0  0  0  0  0  0  0  0
   -1.2203    1.0609   -1.1526 C   0  0  0  0  0  0  0  0  0  0  0  0
   -0.5338    0.3813   -2.2057 C   0  0  0  0  0  0  0  0  0  0  0  0
   -0.7305    0.4013   -3.5833 C   0  0  0  0  0  0  0  0  0  0  0  0
    0.0628   -0.4271   -4.3424 C   0  0  0  0  0  0  0  0  0  0  0  0
    0.0618   -0.6029   -5.8528 C   0  0  0  0  0  0  0  0  0  0  0  0
    0.3953    0.7399   -6.4754 C   0  0  0  0  0  0  0  0  0  0  0  0
    1.7101    1.1075   -6.7244 C   0  0  0  0  0  0  0  0  0  0  0  0
    2.0037    2.3540   -7.2462 C   0  0  0  0  0  0  0  0  0  0  0  0
    0.9965    3.2688   -7.5211 C   0  0  0  0  0  0  0  0  0  0  0  0
    1.3137    4.6035   -8.1313 C   0  0  0  0  0  0  0  0  0  0  0  0
    1.2828    4.5136   -9.6583 C   0  0  0  0  0  0  0  0  0  0  0  0
   -0.3170    2.9004   -7.2599 C   0  0  0  0  0  0  0  0  0  0  0  0
   -0.6158    1.6554   -6.7405 C   0  0  0  0  0  0  0  0  0  0  0  0
   -1.2257   -1.1825   -6.4059 C   0  0  0  0  0  0  0  0  0  0  0  0
   -2.1595   -1.8037   -5.5896 C   0  0  0  0  0  0  0  0  0  0  0  0
   -3.3052   -2.3580   -6.1316 C   0  0  0  0  0  0  0  0  0  0  0  0
   -3.5439   -2.3146   -7.4981 C   0  0  0  0  0  0  0  0  0  0  0  0
   -4.7699   -2.9526   -8.0850 C   0  0  0  0  0  0  0  0  0  0  0  0
   -4.5083   -4.4275   -8.3967 C   0  0  0  0  0  0  0  0  0  0  0  0
   -2.5960   -1.7093   -8.3136 C   0  0  0  0  0  0  0  0  0  0  0  0
   -1.4515   -1.1524   -7.7771 C   0  0  0  0  0  0  0  0  0  0  0  0
    1.1490   -1.6357   -6.0175 C   0  0  0  0  0  0  0  0  0  0  0  0
    1.6816   -1.9881   -4.7811 C   0  0  0  0  0  0  0  0  0  0  0  0
    1.0416   -1.2485   -3.7377 C   0  0  0  0  0  0  0  0  0  0  0  0
    1.2471   -1.2557   -2.3602 C   0  0  0  0  0  0  0  0  0  0  0  0
    0.4497   -0.4338   -1.6003 C   0  0  0  0  0  0  0  0  0  0  0  0
    0.4567   -0.2443   -0.0867 C   0  0  0  0  0  0  0  0  0  0  0  0
    0.0978   -1.5238    0.6496 C   0  0  0  0  0  0  0  0  0  0  0  0
   -0.9163   -2.3283    0.1424 C   0  0  0  0  0  0  0  0  0  0  0  0
   -1.3219   -3.4623    0.8188 C   0  0  0  0  0  0  0  0  0  0  0  0
   -0.7345   -3.8218    2.0251 C   0  0  0  0  0  0  0  0  0  0  0  0
   -1.1467   -5.0738    2.7432 C   0  0  0  0  0  0  0  0  0  0  0  0
   -0.2758   -6.2528    2.3041 C   0  0  0  0  0  0  0  0  0  0  0  0
    0.2767   -3.0159    2.5278 C   0  0  0  0  0  0  0  0  0  0  0  0
    0.6864   -1.8801    1.8538 C   0  0  0  0  0  0  0  0  0  0  0  0
    1.8051    0.3387    0.2852 C   0  0  0  0  0  0  0  0  0  0  0  0
    2.9235   -0.4814    0.3819 C   0  0  0  0  0  0  0  0  0  0  0  0
    4.1619    0.0488    0.6884 C   0  0  0  0  0  0  0  0  0  0  0  0
    4.3248    1.4121    0.8976 C   0  0  0  0  0  0  0  0  0  0  0  0
    5.6780    1.9892    1.1968 C   0  0  0  0  0  0  0  0  0  0  0  0
    6.4015    2.3537   -0.1010 C   0  0  0  0  0  0  0  0  0  0  0  0
    3.2127    2.2324    0.7709 C   0  0  0  0  0  0  0  0  0  0  0  0
    1.9704    1.7055    0.4658 C   0  0  0  0  0  0  0  0  0  0  0  0
   -0.6870    0.7280    0.0825 C   0  0  0  0  0  0  0  0  0  0  0  0
   -1.4044    1.3313    1.1183 C   0  0  0  0  0  0  0  0  0  0  0  0
   -1.4035    1.3711    2.4926 N   0  0  0  0  0  0  0  0  0  0  0  0
   -2.4742    2.1492    2.8800 C   0  0  0  0  0  0  0  0  0  0  0  0
   -3.0169    2.5649    4.0845 C   0  0  0  0  0  0  0  0  0  0  0  0
   -0.5470    0.7347    3.3831 C   0  0  0  0  0  0  0  0  0  0  0  0
    0.7881    0.9253    3.5562 C   0  0  0  0  0  0  0  0  0  0  0  0
    1.3141    0.1241    4.5933 C   0  0  0  0  0  0  0  0  0  0  0  0
    0.3845   -0.6578    5.2041 C   0  0  0  0  0  0  0  0  0  0  0  0
    0.5603   -1.5645    6.3733 C   0  0  0  0  0  0  0  0  0  0  0  0
    0.1049   -0.8810    7.6647 C   0  0  0  0  0  0  0  0  0  0  0  0
   -1.1848   -0.4352    4.5050 S   0  0  0  0  0  0  0  0  0  0  0  0
    2.9052   -3.1784   -4.8866 S   0  0  0  0  0  0  0  0  0  0  0  0
    2.7055   -3.2333   -6.6271 C   0  0  0  0  0  0  0  0  0  0  0  0
    1.7244   -2.3371   -7.0594 C   0  0  0  0  0  0  0  0  0  0  0  0
    3.4084   -4.0567   -7.5336 C   0  0  0  0  0  0  0  0  0  0  0  0
    4.3256   -5.0512   -7.3732 C   0  0  0  0  0  0  0  0  0  0  0  0
    4.8441   -5.4719   -6.0883 C   0  0  0  0  0  0  0  0  0  0  0  0
    4.6288   -4.8867   -5.0384 O   0  0  0  0  0  0  0  0  0  0  0  0
    5.6640   -6.6077   -6.0650 N   0  0  0  0  0  0  0  0  0  0  0  0
    6.3860   -6.8766   -4.8235 C   0  0  0  0  0  0  0  0  0  0  0  0
    7.7462   -6.1913   -4.8295 C   0  0  0  0  0  0  0  0  0  0  0  0
    5.8198   -7.5148   -7.0833 C   0  0  0  0  0  0  0  0  0  0  0  0
    6.5490   -8.4698   -6.9878 O   0  0  0  0  0  0  0  0  0  0  0  0
    4.9501   -7.2392   -8.3078 C   0  0  0  0  0  0  0  0  0  0  0  0
    5.4341   -7.9636   -9.4598 C   0  0  0  0  0  0  0  0  0  0  0  0
    5.8001   -8.4994  -10.3995 N   0  0  0  0  0  0  0  0  0  0  0  0
    4.8934   -5.7302   -8.5915 C   0  0  0  0  0  0  0  0  0  0  0  0
    6.2833   -5.1795   -8.9273 C   0  0  0  0  0  0  0  0  0  0  0  0
   -5.7900    4.5569    4.2838 H   0  0  0  0  0  0  0  0  0  0  0  0
   -2.6879    3.5686    9.6509 H   0  0  0  0  0  0  0  0  0  0  0  0
   -6.9345    6.3030    9.2860 H   0  0  0  0  0  0  0  0  0  0  0  0
   -5.2373    7.1083   12.1450 H   0  0  0  0  0  0  0  0  0  0  0  0
   -7.3080    5.5607   12.7871 H   0  0  0  0  0  0  0  0  0  0  0  0
   -6.0968    6.2909   15.0020 H   0  0  0  0  0  0  0  0  0  0  0  0
   -3.8711    4.8596   15.2382 H   0  0  0  0  0  0  0  0  0  0  0  0
   -3.7119    3.2477   13.1693 H   0  0  0  0  0  0  0  0  0  0  0  0
   -6.3411    3.1921   13.4676 H   0  0  0  0  0  0  0  0  0  0  0  0
   -5.9816    3.4683   11.7478 H   0  0  0  0  0  0  0  0  0  0  0  0
   -3.0554    5.7066   12.3786 H   0  0  0  0  0  0  0  0  0  0  0  0
   -1.4854    1.0343   -4.0236 H   0  0  0  0  0  0  0  0  0  0  0  0
    2.5124    0.4164   -6.5106 H   0  0  0  0  0  0  0  0  0  0  0  0
    3.0334    2.6211   -7.4378 H   0  0  0  0  0  0  0  0  0  0  0  0
    0.5839    5.3449   -7.7999 H   0  0  0  0  0  0  0  0  0  0  0  0
    2.3045    4.9315   -7.8101 H   0  0  0  0  0  0  0  0  0  0  0  0
    1.5136    5.4794  -10.1019 H   0  0  0  0  0  0  0  0  0  0  0  0
    0.2980    4.2012   -9.9987 H   0  0  0  0  0  0  0  0  0  0  0  0
    2.0122    3.7868  -10.0090 H   0  0  0  0  0  0  0  0  0  0  0  0
   -1.1166    3.5987   -7.4624 H   0  0  0  0  0  0  0  0  0  0  0  0
   -1.6452    1.3880   -6.5501 H   0  0  0  0  0  0  0  0  0  0  0  0
   -1.9960   -1.8529   -4.5231 H   0  0  0  0  0  0  0  0  0  0  0  0
   -4.0270   -2.8290   -5.4795 H   0  0  0  0  0  0  0  0  0  0  0  0
   -5.6001   -2.8764   -7.3799 H   0  0  0  0  0  0  0  0  0  0  0  0
   -5.0531   -2.4354   -9.0038 H   0  0  0  0  0  0  0  0  0  0  0  0
   -3.6916   -4.5245   -9.1086 H   0  0  0  0  0  0  0  0  0  0  0  0
   -4.2361   -4.9632   -7.4899 H   0  0  0  0  0  0  0  0  0  0  0  0
   -5.3961   -4.8906   -8.8210 H   0  0  0  0  0  0  0  0  0  0  0  0
   -2.7588   -1.6701   -9.3815 H   0  0  0  0  0  0  0  0  0  0  0  0
   -0.7298   -0.6765   -8.4255 H   0  0  0  0  0  0  0  0  0  0  0  0
    1.9982   -1.8955   -1.9255 H   0  0  0  0  0  0  0  0  0  0  0  0
   -1.3933   -2.0619   -0.7903 H   0  0  0  0  0  0  0  0  0  0  0  0
   -2.1118   -4.0742    0.4070 H   0  0  0  0  0  0  0  0  0  0  0  0
   -1.0437   -4.9321    3.8211 H   0  0  0  0  0  0  0  0  0  0  0  0
   -2.1929   -5.2981    2.5266 H   0  0  0  0  0  0  0  0  0  0  0  0
    0.7707   -6.0523    2.5230 H   0  0  0  0  0  0  0  0  0  0  0  0
   -0.3750   -6.4179    1.2336 H   0  0  0  0  0  0  0  0  0  0  0  0
   -0.5722   -7.1603    2.8249 H   0  0  0  0  0  0  0  0  0  0  0  0
    0.7495   -3.2715    3.4656 H   0  0  0  0  0  0  0  0  0  0  0  0
    1.4679   -1.2695    2.2782 H   0  0  0  0  0  0  0  0  0  0  0  0
    2.8250   -1.5457    0.2295 H   0  0  0  0  0  0  0  0  0  0  0  0
    5.0162   -0.6083    0.7685 H   0  0  0  0  0  0  0  0  0  0  0  0
    6.2764    1.2624    1.7500 H   0  0  0  0  0  0  0  0  0  0  0  0
    5.5716    2.8845    1.8128 H   0  0  0  0  0  0  0  0  0  0  0  0
    7.3833    2.7689    0.1143 H   0  0  0  0  0  0  0  0  0  0  0  0
    5.8274    3.0891   -0.6602 H   0  0  0  0  0  0  0  0  0  0  0  0
    6.5255    1.4715   -0.7251 H   0  0  0  0  0  0  0  0  0  0  0  0
    3.3162    3.2986    0.9169 H   0  0  0  0  0  0  0  0  0  0  0  0
    1.1232    2.3695    0.3700 H   0  0  0  0  0  0  0  0  0  0  0  0
   -2.6504    2.3083    5.0610 H   0  0  0  0  0  0  0  0  0  0  0  0
    1.3729    1.6074    2.9661 H   0  0  0  0  0  0  0  0  0  0  0  0
    2.3518    0.1369    4.8759 H   0  0  0  0  0  0  0  0  0  0  0  0
    1.6143   -1.8392    6.4546 H   0  0  0  0  0  0  0  0  0  0  0  0
   -0.0244   -2.4751    6.2248 H   0  0  0  0  0  0  0  0  0  0  0  0
   -0.9416   -0.5950    7.5899 H   0  0  0  0  0  0  0  0  0  0  0  0
    0.2244   -1.5536    8.5104 H   0  0  0  0  0  0  0  0  0  0  0  0
    0.6937    0.0153    7.8446 H   0  0  0  0  0  0  0  0  0  0  0  0
    1.4611   -2.2286   -8.0967 H   0  0  0  0  0  0  0  0  0  0  0  0
    3.1301   -3.8532   -8.5643 H   0  0  0  0  0  0  0  0  0  0  0  0
    6.5060   -7.9579   -4.7403 H   0  0  0  0  0  0  0  0  0  0  0  0
    5.7728   -6.5025   -4.0020 H   0  0  0  0  0  0  0  0  0  0  0  0
    7.6262   -5.1148   -4.9328 H   0  0  0  0  0  0  0  0  0  0  0  0
    8.2624   -6.3960   -3.8960 H   0  0  0  0  0  0  0  0  0  0  0  0
    8.3528   -6.5653   -5.6514 H   0  0  0  0  0  0  0  0  0  0  0  0
    3.9404   -7.6094   -8.0783 H   0  0  0  0  0  0  0  0  0  0  0  0
    4.2359   -5.5572   -9.4506 H   0  0  0  0  0  0  0  0  0  0  0  0
    6.2173   -4.1141   -9.1369 H   0  0  0  0  0  0  0  0  0  0  0  0
    6.6866   -5.6840   -9.8028 H   0  0  0  0  0  0  0  0  0  0  0  0
    6.9727   -5.3240   -8.0980 H   0  0  0  0  0  0  0  0  0  0  0  0
  1  2  2  0  0  0  0
  2  3  1  0  0  0  0
  3  4  2  0  0  0  0
  3  5  1  0  0  0  0
  5  6  2  0  0  0  0
  6  7  1  0  0  0  0
  7  8  2  0  0  0  0
  8  9  1  0  0  0  0
  9 10  2  0  0  0  0
 10 11  1  0  0  0  0
 11 12  2  0  0  0  0
 12 13  1  0  0  0  0
 13 14  3  0  0  0  0
 12 15  1  0  0  0  0
 15 16  3  0  0  0  0
  8 17  1  0  0  0  0
 17 18  1  0  0  0  0
 18 19  1  0  0  0  0
 19 20  2  0  0  0  0
 20 21  1  0  0  0  0
 21 22  1  0  0  0  0
 21 23  1  0  0  0  0
  1 24  1  0  0  0  0
 24 25  1  0  0  0  0
 25 26  1  0  0  0  0
 26 27  1  0  0  0  0
 27 28  1  0  0  0  0
 28 29  1  0  0  0  0
 29 30  1  0  0  0  0
 30 31  2  0  0  0  0
 31 32  1  0  0  0  0
 32 33  1  0  0  0  0
 33 34  1  0  0  0  0
 34 35  2  0  0  0  0
 35 36  1  0  0  0  0
 36 37  2  0  0  0  0
 37 38  1  0  0  0  0
 38 39  1  0  0  0  0
 37 40  1  0  0  0  0
 40 41  2  0  0  0  0
 33 42  1  0  0  0  0
 42 43  2  0  0  0  0
 43 44  1  0  0  0  0
 44 45  2  0  0  0  0
 45 46  1  0  0  0  0
 46 47  1  0  0  0  0
 45 48  1  0  0  0  0
 48 49  2  0  0  0  0
 33 50  1  0  0  0  0
 50 51  2  0  0  0  0
 51 52  1  0  0  0  0
 52 53  1  0  0  0  0
 53 54  2  0  0  0  0
 54 55  1  0  0  0  0
 55 56  1  0  0  0  0
 56 57  2  0  0  0  0
 57 58  1  0  0  0  0
 58 59  2  0  0  0  0
 59 60  1  0  0  0  0
 60 61  1  0  0  0  0
 59 62  1  0  0  0  0
 62 63  2  0  0  0  0
 55 64  1  0  0  0  0
 64 65  2  0  0  0  0
 65 66  1  0  0  0  0
 66 67  2  0  0  0  0
 67 68  1  0  0  0  0
 68 69  1  0  0  0  0
 67 70  1  0  0  0  0
 70 71  2  0  0  0  0
 55 72  1  0  0  0  0
 72 73  1  0  0  0  0
 73 74  1  0  0  0  0
 74 75  1  0  0  0  0
 75 76  1  0  0  0  0
 74 77  1  0  0  0  0
 77 78  2  0  0  0  0
 78 79  1  0  0  0  0
 79 80  2  0  0  0  0
 80 81  1  0  0  0  0
 81 82  1  0  0  0  0
 80 83  1  0  0  0  0
 51 84  1  0  0  0  0
 84 85  1  0  0  0  0
 85 86  2  0  0  0  0
 85 87  1  0  0  0  0
 87 88  2  0  0  0  0
 88 89  1  0  0  0  0
 89 90  2  0  0  0  0
 89 91  1  0  0  0  0
 91 92  1  0  0  0  0
 92 93  1  0  0  0  0
 91 94  1  0  0  0  0
 94 95  2  0  0  0  0
 94 96  1  0  0  0  0
 96 97  1  0  0  0  0
 97 98  3  0  0  0  0
 96 99  1  0  0  0  0
 99100  1  0  0  0  0
 11  2  1  0  0  0  0
 23 17  1  0  0  0  0
 76 24  2  0  0  0  0
 83 77  1  0  0  0  0
 99 88  1  0  0  0  0
 10  5  1  0  0  0  0
 22 18  1  0  0  0  0
 75 26  2  0  0  0  0
 23  7  1  0  0  0  0
 73 27  2  0  0  0  0
 72 29  2  0  0  0  0
 54 30  1  0  0  0  0
 63 56  1  0  0  0  0
 71 64  1  0  0  0  0
 52 32  2  0  0  0  0
 41 34  1  0  0  0  0
 49 42  1  0  0  0  0
 86 50  1  0  0  0  0
  1101  1  0  0  0  0
  6102  1  0  0  0  0
  9103  1  0  0  0  0
 17104  1  0  0  0  0
 18105  1  0  0  0  0
 19106  1  0  0  0  0
 20107  1  0  0  0  0
 21108  1  0  0  0  0
 22109  1  0  0  0  0
 22110  1  0  0  0  0
 23111  1  0  0  0  0
 31112  1  0  0  0  0
 35113  1  0  0  0  0
 36114  1  0  0  0  0
 38115  1  0  0  0  0
 38116  1  0  0  0  0
 39117  1  0  0  0  0
 39118  1  0  0  0  0
 39119  1  0  0  0  0
 40120  1  0  0  0  0
 41121  1  0  0  0  0
 43122  1  0  0  0  0
 44123  1  0  0  0  0
 46124  1  0  0  0  0
 46125  1  0  0  0  0
 47126  1  0  0  0  0
 47127  1  0  0  0  0
 47128  1  0  0  0  0
 48129  1  0  0  0  0
 49130  1  0  0  0  0
 53131  1  0  0  0  0
 57132  1  0  0  0  0
 58133  1  0  0  0  0
 60134  1  0  0  0  0
 60135  1  0  0  0  0
 61136  1  0  0  0  0
 61137  1  0  0  0  0
 61138  1  0  0  0  0
 62139  1  0  0  0  0
 63140  1  0  0  0  0
 65141  1  0  0  0  0
 66142  1  0  0  0  0
 68143  1  0  0  0  0
 68144  1  0  0  0  0
 69145  1  0  0  0  0
 69146  1  0  0  0  0
 69147  1  0  0  0  0
 70148  1  0  0  0  0
 71149  1  0  0  0  0
 76150  1  0  0  0  0
 78151  1  0  0  0  0
 79152  1  0  0  0  0
 81153  1  0  0  0  0
 81154  1  0  0  0  0
 82155  1  0  0  0  0
 82156  1  0  0  0  0
 82157  1  0  0  0  0
 86158  1  0  0  0  0
 87159  1  0  0  0  0
 92160  1  0  0  0  0
 92161  1  0  0  0  0
 93162  1  0  0  0  0
 93163  1  0  0  0  0
 93164  1  0  0  0  0
 96165  1  0  0  0  0
 99166  1  0  0  0  0
100167  1  0  0  0  0
100168  1  0  0  0  0
100169  1  0  0  0  0
M  END
