178

C          1.09770       -4.71310        7.27130
C          1.64680       -4.21380        8.42360
C          2.29410       -2.90400        8.65690
O          2.70490       -2.09450        7.84780
C          2.35340       -2.74100       10.12220
C          2.79290       -1.61540       10.81530
C          2.70740       -1.73130       12.18140
C          2.22310       -2.88430       12.81370
C          1.79850       -4.00590       12.14200
C          1.87630       -3.90710       10.74990
C          1.51870       -4.87150        9.71340
C          1.19970       -6.18620        9.93550
C          1.10940       -6.77810       11.21260
N          1.00980       -7.32680       12.21650
C          0.97300       -7.15920        8.93850
N          0.80150       -8.02160        8.19940
C          2.39300       -2.29630       14.19210
C          1.12560       -1.78000       14.91730
C          0.14170       -1.39390       13.84100
C          0.60250       -0.30340       13.24310
C          1.90680        0.06770       13.90460
C          1.61920       -0.38830       15.34400
C          2.93540       -1.01280       13.48790
C          1.08070       -4.20940        5.95980
S          0.01350       -5.05480        4.81760
C          0.43710       -3.94760        3.57800
C          0.15570       -3.62100        2.25350
S         -0.89670       -4.11500        0.96760
C         -0.32160       -2.77400        0.03170
C         -0.72450       -2.18760       -1.20720
C         -1.69660       -2.57960       -2.12270
C         -1.94820       -1.72950       -3.17410
C         -2.96450       -1.89490       -4.29150
C         -2.61850       -3.15260       -5.06630
C         -3.10500       -4.38410       -4.64570
C         -2.76800       -5.54010       -5.32330
C         -1.93600       -5.49930       -6.43470
C         -1.54280       -6.76090       -7.14770
C         -0.27820       -7.35520       -6.52440
C         -1.43980       -4.26830       -6.84100
C         -1.77210       -3.10870       -6.16500
C         -4.40590       -1.90020       -3.81590
C         -4.76260       -1.44640       -2.55460
C         -6.09160       -1.41600       -2.17150
C         -7.09570       -1.82320       -3.03860
C         -8.53240       -1.83240       -2.60250
C         -8.88720       -3.17560       -1.96110
C         -6.73400       -2.26360       -4.30560
C         -5.40860       -2.29780       -4.69250
C         -2.74330       -0.61990       -5.06560
C         -1.74700        0.15240       -4.46540
C         -1.23230       -0.51770       -3.31360
C         -0.23980       -0.14040       -2.41000
C          0.00860       -0.98640       -1.35670
C          1.01420       -0.82210       -0.22060
C          0.77410        0.43750        0.59300
C          1.79830        1.26750        1.02130
C          1.53070        2.34340        1.84850
C          0.23970        2.61650        2.27490
C         -0.03310        3.73480        3.23820
C         -0.02070        3.20900        4.67510
C         -0.78650        1.78990        1.83390
C         -0.52460        0.71670        1.00580
C          2.40020       -0.93110       -0.82660
C          3.14150       -2.10050       -0.72090
C          4.39530       -2.19750       -1.29780
C          4.94060       -1.13510       -2.00430
C          6.32660       -1.21960       -2.57450
C          7.35420       -0.74040       -1.54680
C          4.18730        0.02520       -2.12880
C          2.93400        0.12540       -1.55600
C          0.65350       -2.00500        0.64630
C          0.93600       -2.48060        1.92840
N          1.69710       -2.12470        3.01640
C          1.38240       -2.99710        4.03690
C          1.74510       -3.14610        5.36590
C          2.59590       -1.07320        3.14300
C          3.72140       -0.83150        2.41880
C          4.41710        0.30900        2.87580
C          3.82690        0.92030        3.93700
C          4.31070        2.09120        4.72100
C          4.84310        1.65080        6.08630
S          2.36960        0.10570        4.40270
S         -1.48070        1.64700       -5.25070
C         -2.73300        1.25290       -6.42070
C         -3.29870       -0.00470       -6.16520
C         -3.17080        2.05460       -7.48320
C         -2.79890        3.31860       -7.86380
C         -1.80760        4.16550       -7.19110
O         -1.10240        3.87290       -6.24060
C         -1.82820        5.46200       -7.89040
C         -1.07510        6.59220       -7.58310
C         -1.32080        7.66760       -8.40260
C         -2.25390        7.62390       -9.44660
C         -3.00200        6.51420       -9.76110
C         -2.76100        5.40540       -8.94530
C         -3.35530        4.06920       -8.97190
C         -4.25740        3.62470       -9.90510
C         -4.74880        4.40080      -10.97550
N         -5.19250        4.96580      -11.87150
C         -4.82150        2.33340       -9.96250
N         -5.32920        1.31060      -10.09350
C         -1.98820        9.05220       -9.85140
C         -1.11850        9.29510      -11.10930
C         -0.22530        8.08770      -11.25070
C          0.66300        8.12420      -10.26650
C          0.38690        9.35730       -9.44210
C         -0.11450       10.30980      -10.53940
C         -0.94350        9.09890       -8.69200
H          0.52970       -5.63060        7.37750
H          3.15710       -0.74760       10.28770
H          1.42620       -4.88370       12.64300
H          3.06290       -2.83340       14.86070
H          0.75100       -2.43930       15.69570
H         -0.73190       -1.96840       13.59420
H          0.19120        0.21470       12.39660
H          2.24350        1.09130       13.76150
H          0.84340        0.20430       15.82660
H          2.50620       -0.41730       15.97540
H          3.96050       -0.71230       13.69630
H         -2.23990       -3.50210       -1.98850
H         -3.76530       -4.43700       -3.79210
H         -3.16180       -6.48870       -4.98680
H         -2.35250       -7.49050       -7.08320
H         -1.35800       -6.54760       -8.20240
H          0.00860       -8.26780       -7.04170
H         -0.44710       -7.58810       -5.47550
H          0.54380       -6.64570       -6.58820
H         -0.78740       -4.21370       -7.70090
H         -1.37260       -2.16290       -6.50090
H         -4.00110       -1.11430       -1.86410
H         -6.35110       -1.06440       -1.18300
H         -8.70550       -1.03200       -1.88020
H         -9.18160       -1.66240       -3.46370
H         -8.73380       -3.98550       -2.67080
H         -9.92740       -3.18340       -1.64430
H         -8.25780       -3.35800       -1.09290
H         -7.50000       -2.57920       -4.99940
H         -5.14620       -2.64470       -5.68150
H          0.28160        0.79450       -2.53830
H          2.81710        1.07430        0.72440
H          2.34660        2.97380        2.17290
H          0.72760        4.51070        3.13010
H         -1.00760        4.17940        3.02640
H         -0.79540        2.45800        4.81030
H         -0.19410        4.01910        5.37960
H          0.93750        2.74660        4.90210
H         -1.80180        1.98630        2.14750
H         -1.33540        0.08050        0.67940
H          2.74110       -2.94880       -0.18450
H          4.95630       -3.11600       -1.19670
H          6.39740       -0.59980       -3.47040
H          6.55080       -2.25110       -2.85320
H          7.30810       -1.35510       -0.65030
H          8.35960       -0.80000       -1.95680
H          7.15430        0.29130       -1.26530
H          4.58560        0.86190       -2.68490
H          2.37210        1.03990       -1.66950
H          2.43570       -2.52260        5.90220
H          4.04190       -1.44330        1.59510
H          5.33320        0.65470        2.43070
H          3.49390        2.80260        4.86800
H          5.10250        2.59020        4.15820
H          5.17860        2.51290        6.65730
H          4.06380        1.13970        6.64700
H          5.67990        0.96760        5.96180
H         -4.08230       -0.41190       -6.77910
H         -3.94820        1.58060       -8.07040
H         -0.37350        6.58400       -6.76360
H         -3.71750        6.50080      -10.56590
H         -2.83900        9.72850       -9.79760
H         -1.67700        9.58550      -11.99500
H         -0.36380        7.32450      -11.99390
H          1.41530        7.39690      -10.02280
H          1.20070        9.70490       -8.81100
H         -0.58350       11.21220      -10.14960
H          0.66380       10.57810      -11.25230
H         -1.10860        9.80980       -7.88450
