
  xtb     02022204023D
 energy: -288.149897255028 gnorm: 0.000545812100 xtb: 6.4.1 (unknown)
181203  0     0  0            999 V2000
   -1.7087   -7.3714    4.0602 C   0  0  0  0  0  0  0  0  0  0  0  0
   -1.6602   -8.6878    3.6806 C   0  0  0  0  0  0  0  0  0  0  0  0
   -1.7788   -9.1904    2.3074 C   0  0  0  0  0  0  0  0  0  0  0  0
   -2.0656   -8.5567    1.3066 O   0  0  0  0  0  0  0  0  0  0  0  0
   -1.4735  -10.6300    2.3663 C   0  0  0  0  0  0  0  0  0  0  0  0
   -1.4040  -11.5163    1.2939 C   0  0  0  0  0  0  0  0  0  0  0  0
   -1.0638  -12.7988    1.6514 C   0  0  0  0  0  0  0  0  0  0  0  0
   -0.8161  -13.1736    2.9784 C   0  0  0  0  0  0  0  0  0  0  0  0
   -0.8913  -12.3109    4.0463 C   0  0  0  0  0  0  0  0  0  0  0  0
   -1.2318  -10.9984    3.7050 C   0  0  0  0  0  0  0  0  0  0  0  0
   -1.3888   -9.8149    4.5501 C   0  0  0  0  0  0  0  0  0  0  0  0
   -1.3143   -9.8055    5.9200 C   0  0  0  0  0  0  0  0  0  0  0  0
   -1.0523  -10.9407    6.7146 C   0  0  0  0  0  0  0  0  0  0  0  0
   -0.8422  -11.8137    7.4309 N   0  0  0  0  0  0  0  0  0  0  0  0
   -1.5072   -8.6795    6.7470 C   0  0  0  0  0  0  0  0  0  0  0  0
   -1.6537   -7.8186    7.4939 N   0  0  0  0  0  0  0  0  0  0  0  0
   -0.5075  -14.6016    2.6017 C   0  0  0  0  0  0  0  0  0  0  0  0
    0.9839  -14.9980    2.5714 C   0  0  0  0  0  0  0  0  0  0  0  0
    1.0083  -16.2518    1.7273 C   0  0  0  0  0  0  0  0  0  0  0  0
    0.7732  -15.8969    0.4705 C   0  0  0  0  0  0  0  0  0  0  0  0
    0.5859  -14.3971    0.4442 C   0  0  0  0  0  0  0  0  0  0  0  0
    1.5534  -13.9911    1.5635 C   0  0  0  0  0  0  0  0  0  0  0  0
   -0.7844  -14.1835    1.1220 C   0  0  0  0  0  0  0  0  0  0  0  0
   -1.8903   -6.2088    3.2976 C   0  0  0  0  0  0  0  0  0  0  0  0
   -2.2274   -6.1336    1.5664 S   0  0  0  0  0  0  0  0  0  0  0  0
   -2.1918   -4.4160    1.6358 C   0  0  0  0  0  0  0  0  0  0  0  0
   -2.2644   -3.2920    0.8125 C   0  0  0  0  0  0  0  0  0  0  0  0
   -2.4117   -2.9045   -0.8704 S   0  0  0  0  0  0  0  0  0  0  0  0
   -2.1189   -1.2420   -0.4789 C   0  0  0  0  0  0  0  0  0  0  0  0
   -1.7884   -0.0878   -1.2549 C   0  0  0  0  0  0  0  0  0  0  0  0
   -1.6975    0.0873   -2.6326 C   0  0  0  0  0  0  0  0  0  0  0  0
   -1.1136    1.2497   -3.0812 C   0  0  0  0  0  0  0  0  0  0  0  0
   -0.8662    1.6912   -4.5146 C   0  0  0  0  0  0  0  0  0  0  0  0
   -2.2247    1.9677   -5.1407 C   0  0  0  0  0  0  0  0  0  0  0  0
   -2.9543    0.9210   -5.6906 C   0  0  0  0  0  0  0  0  0  0  0  0
   -4.2033    1.1478   -6.2361 C   0  0  0  0  0  0  0  0  0  0  0  0
   -4.7575    2.4214   -6.2446 C   0  0  0  0  0  0  0  0  0  0  0  0
   -6.1303    2.6607   -6.8039 C   0  0  0  0  0  0  0  0  0  0  0  0
   -7.1866    2.5154   -5.7067 C   0  0  0  0  0  0  0  0  0  0  0  0
   -4.0297    3.4601   -5.6807 C   0  0  0  0  0  0  0  0  0  0  0  0
   -2.7799    3.2396   -5.1312 C   0  0  0  0  0  0  0  0  0  0  0  0
   -0.0463    0.7248   -5.3458 C   0  0  0  0  0  0  0  0  0  0  0  0
    0.7382   -0.2587   -4.7615 C   0  0  0  0  0  0  0  0  0  0  0  0
    1.5053   -1.1005   -5.5469 C   0  0  0  0  0  0  0  0  0  0  0  0
    1.5172   -0.9762   -6.9291 C   0  0  0  0  0  0  0  0  0  0  0  0
    2.3801   -1.8669   -7.7754 C   0  0  0  0  0  0  0  0  0  0  0  0
    3.7646   -1.2448   -7.9677 C   0  0  0  0  0  0  0  0  0  0  0  0
    0.7482    0.0261   -7.5073 C   0  0  0  0  0  0  0  0  0  0  0  0
   -0.0217    0.8674   -6.7282 C   0  0  0  0  0  0  0  0  0  0  0  0
   -0.0589    2.9440   -4.2937 C   0  0  0  0  0  0  0  0  0  0  0  0
    0.0479    3.2080   -2.9336 C   0  0  0  0  0  0  0  0  0  0  0  0
   -0.6134    2.2047   -2.1657 C   0  0  0  0  0  0  0  0  0  0  0  0
   -0.7670    2.0599   -0.7875 C   0  0  0  0  0  0  0  0  0  0  0  0
   -1.3873    0.9187   -0.3432 C   0  0  0  0  0  0  0  0  0  0  0  0
   -1.6901    0.4882    1.0887 C   0  0  0  0  0  0  0  0  0  0  0  0
   -0.5137    0.7209    2.0160 C   0  0  0  0  0  0  0  0  0  0  0  0
   -0.5008    1.6953    3.0028 C   0  0  0  0  0  0  0  0  0  0  0  0
    0.6031    1.8505    3.8218 C   0  0  0  0  0  0  0  0  0  0  0  0
    1.7120    1.0274    3.6957 C   0  0  0  0  0  0  0  0  0  0  0  0
    2.9045    1.2028    4.5901 C   0  0  0  0  0  0  0  0  0  0  0  0
    3.8986    2.1887    3.9740 C   0  0  0  0  0  0  0  0  0  0  0  0
    1.7025    0.0615    2.6974 C   0  0  0  0  0  0  0  0  0  0  0  0
    0.6108   -0.0841    1.8646 C   0  0  0  0  0  0  0  0  0  0  0  0
   -2.9671    1.2054    1.5177 C   0  0  0  0  0  0  0  0  0  0  0  0
   -4.0741    0.5036    1.9787 C   0  0  0  0  0  0  0  0  0  0  0  0
   -5.2200    1.1677    2.3794 C   0  0  0  0  0  0  0  0  0  0  0  0
   -5.3016    2.5515    2.3262 C   0  0  0  0  0  0  0  0  0  0  0  0
   -6.5603    3.2661    2.7223 C   0  0  0  0  0  0  0  0  0  0  0  0
   -7.4981    3.3977    1.5204 C   0  0  0  0  0  0  0  0  0  0  0  0
   -4.2049    3.2509    1.8405 C   0  0  0  0  0  0  0  0  0  0  0  0
   -3.0588    2.5910    1.4399 C   0  0  0  0  0  0  0  0  0  0  0  0
   -1.9639   -0.9804    0.8750 C   0  0  0  0  0  0  0  0  0  0  0  0
   -2.0441   -2.1526    1.6263 C   0  0  0  0  0  0  0  0  0  0  0  0
   -1.8654   -2.5533    2.9353 N   0  0  0  0  0  0  0  0  0  0  0  0
   -1.9269   -3.9341    2.9421 C   0  0  0  0  0  0  0  0  0  0  0  0
   -1.7753   -4.9398    3.8748 C   0  0  0  0  0  0  0  0  0  0  0  0
   -1.4658   -1.7706    4.0055 C   0  0  0  0  0  0  0  0  0  0  0  0
   -2.0398   -0.6264    4.4695 C   0  0  0  0  0  0  0  0  0  0  0  0
   -1.3065   -0.0963    5.5468 C   0  0  0  0  0  0  0  0  0  0  0  0
   -1.4628    1.2971    6.5521 S   0  0  0  0  0  0  0  0  0  0  0  0
   -0.0124    0.8596    7.4337 C   0  0  0  0  0  0  0  0  0  0  0  0
    0.4355    1.7472    8.5463 C   0  0  0  0  0  0  0  0  0  0  0  0
    1.8177    1.3915    9.0810 C   0  0  0  0  0  0  0  0  0  0  0  0
    0.5438   -0.2934    6.9754 C   0  0  0  0  0  0  0  0  0  0  0  0
   -0.1897   -0.8361    5.9009 C   0  0  0  0  0  0  0  0  0  0  0  0
   -0.0117   -2.2231    4.8887 S   0  0  0  0  0  0  0  0  0  0  0  0
    0.9896    4.5966   -2.6047 S   0  0  0  0  0  0  0  0  0  0  0  0
    1.2613    4.8357   -4.3268 C   0  0  0  0  0  0  0  0  0  0  0  0
    0.6391    3.8466   -5.0798 C   0  0  0  0  0  0  0  0  0  0  0  0
    2.1309    5.8261   -4.8302 C   0  0  0  0  0  0  0  0  0  0  0  0
    2.6565    6.9118   -4.1983 C   0  0  0  0  0  0  0  0  0  0  0  0
    3.9401    7.4956   -4.6673 C   0  0  0  0  0  0  0  0  0  0  0  0
    4.4700    7.3228   -5.7419 O   0  0  0  0  0  0  0  0  0  0  0  0
    4.4551    8.2622   -3.5137 C   0  0  0  0  0  0  0  0  0  0  0  0
    5.7104    8.8535   -3.3852 C   0  0  0  0  0  0  0  0  0  0  0  0
    5.9232    9.4565   -2.1685 C   0  0  0  0  0  0  0  0  0  0  0  0
    4.9594    9.4791   -1.1512 C   0  0  0  0  0  0  0  0  0  0  0  0
    3.7124    8.9123   -1.2668 C   0  0  0  0  0  0  0  0  0  0  0  0
    3.4797    8.2881   -2.4946 C   0  0  0  0  0  0  0  0  0  0  0  0
    2.2904    7.5921   -2.9770 C   0  0  0  0  0  0  0  0  0  0  0  0
    1.0110    7.7769   -2.5203 C   0  0  0  0  0  0  0  0  0  0  0  0
    0.6798    8.5370   -1.3827 C   0  0  0  0  0  0  0  0  0  0  0  0
    0.3602    9.1305   -0.4530 N   0  0  0  0  0  0  0  0  0  0  0  0
   -0.1197    7.2915   -3.2094 C   0  0  0  0  0  0  0  0  0  0  0  0
   -1.0597    6.9471   -3.7717 N   0  0  0  0  0  0  0  0  0  0  0  0
    5.8614   10.2287   -0.2026 C   0  0  0  0  0  0  0  0  0  0  0  0
    6.5253    9.3985    0.9163 C   0  0  0  0  0  0  0  0  0  0  0  0
    7.6861   10.2568    1.3643 C   0  0  0  0  0  0  0  0  0  0  0  0
    8.5987   10.2354    0.4014 C   0  0  0  0  0  0  0  0  0  0  0  0
    8.0700    9.3621   -0.7135 C   0  0  0  0  0  0  0  0  0  0  0  0
    7.2805    8.3351    0.1084 C   0  0  0  0  0  0  0  0  0  0  0  0
    6.9359   10.2043   -1.3364 C   0  0  0  0  0  0  0  0  0  0  0  0
   -1.5408   -7.1616    5.1097 H   0  0  0  0  0  0  0  0  0  0  0  0
   -1.6031  -11.1840    0.2871 H   0  0  0  0  0  0  0  0  0  0  0  0
   -0.6987  -12.6169    5.0609 H   0  0  0  0  0  0  0  0  0  0  0  0
   -1.1407  -15.3609    3.0565 H   0  0  0  0  0  0  0  0  0  0  0  0
    1.4596  -15.0550    3.5466 H   0  0  0  0  0  0  0  0  0  0  0  0
    1.1343  -17.2412    2.1261 H   0  0  0  0  0  0  0  0  0  0  0  0
    0.6634  -16.5304   -0.3901 H   0  0  0  0  0  0  0  0  0  0  0  0
    0.6994  -13.9064   -0.5188 H   0  0  0  0  0  0  0  0  0  0  0  0
    1.4621  -12.9519    1.8741 H   0  0  0  0  0  0  0  0  0  0  0  0
    2.5901  -14.2052    1.3090 H   0  0  0  0  0  0  0  0  0  0  0  0
   -1.6027  -14.6643    0.5892 H   0  0  0  0  0  0  0  0  0  0  0  0
   -2.0363   -0.6818   -3.3090 H   0  0  0  0  0  0  0  0  0  0  0  0
   -2.5357   -0.0749   -5.7070 H   0  0  0  0  0  0  0  0  0  0  0  0
   -4.7538    0.3231   -6.6664 H   0  0  0  0  0  0  0  0  0  0  0  0
   -6.3369    1.9428   -7.6002 H   0  0  0  0  0  0  0  0  0  0  0  0
   -6.1872    3.6660   -7.2261 H   0  0  0  0  0  0  0  0  0  0  0  0
   -7.1533    1.5154   -5.2797 H   0  0  0  0  0  0  0  0  0  0  0  0
   -7.0044    3.2328   -4.9097 H   0  0  0  0  0  0  0  0  0  0  0  0
   -8.1815    2.6886   -6.1104 H   0  0  0  0  0  0  0  0  0  0  0  0
   -4.4410    4.4591   -5.6730 H   0  0  0  0  0  0  0  0  0  0  0  0
   -2.2390    4.0697   -4.7016 H   0  0  0  0  0  0  0  0  0  0  0  0
    0.7498   -0.3736   -3.6873 H   0  0  0  0  0  0  0  0  0  0  0  0
    2.1023   -1.8684   -5.0756 H   0  0  0  0  0  0  0  0  0  0  0  0
    2.4873   -2.8422   -7.2963 H   0  0  0  0  0  0  0  0  0  0  0  0
    1.9137   -2.0148   -8.7516 H   0  0  0  0  0  0  0  0  0  0  0  0
    4.2515   -1.1010   -7.0057 H   0  0  0  0  0  0  0  0  0  0  0  0
    3.6798   -0.2762   -8.4554 H   0  0  0  0  0  0  0  0  0  0  0  0
    4.3897   -1.8892   -8.5813 H   0  0  0  0  0  0  0  0  0  0  0  0
    0.7493    0.1462   -8.5813 H   0  0  0  0  0  0  0  0  0  0  0  0
   -0.6207    1.6356   -7.1958 H   0  0  0  0  0  0  0  0  0  0  0  0
   -0.3661    2.8012   -0.1127 H   0  0  0  0  0  0  0  0  0  0  0  0
   -1.3598    2.3304    3.1558 H   0  0  0  0  0  0  0  0  0  0  0  0
    0.5906    2.6150    4.5857 H   0  0  0  0  0  0  0  0  0  0  0  0
    3.3966    0.2398    4.7416 H   0  0  0  0  0  0  0  0  0  0  0  0
    2.5796    1.5778    5.5630 H   0  0  0  0  0  0  0  0  0  0  0  0
    3.4275    3.1581    3.8276 H   0  0  0  0  0  0  0  0  0  0  0  0
    4.2409    1.8261    3.0073 H   0  0  0  0  0  0  0  0  0  0  0  0
    4.7620    2.3159    4.6231 H   0  0  0  0  0  0  0  0  0  0  0  0
    2.5560   -0.5904    2.5769 H   0  0  0  0  0  0  0  0  0  0  0  0
    0.6247   -0.8408    1.0923 H   0  0  0  0  0  0  0  0  0  0  0  0
   -4.0589   -0.5756    2.0219 H   0  0  0  0  0  0  0  0  0  0  0  0
   -6.0633    0.5960    2.7405 H   0  0  0  0  0  0  0  0  0  0  0  0
   -7.0669    2.7125    3.5155 H   0  0  0  0  0  0  0  0  0  0  0  0
   -6.3177    4.2612    3.1001 H   0  0  0  0  0  0  0  0  0  0  0  0
   -7.7598    2.4147    1.1351 H   0  0  0  0  0  0  0  0  0  0  0  0
   -8.4115    3.9141    1.8057 H   0  0  0  0  0  0  0  0  0  0  0  0
   -7.0151    3.9589    0.7237 H   0  0  0  0  0  0  0  0  0  0  0  0
   -4.2460    4.3286    1.7740 H   0  0  0  0  0  0  0  0  0  0  0  0
   -2.2312    3.1675    1.0587 H   0  0  0  0  0  0  0  0  0  0  0  0
   -1.5725   -4.7981    4.9209 H   0  0  0  0  0  0  0  0  0  0  0  0
   -2.9319   -0.1867    4.0653 H   0  0  0  0  0  0  0  0  0  0  0  0
    0.4328    2.7824    8.1920 H   0  0  0  0  0  0  0  0  0  0  0  0
   -0.2951    1.6894    9.3599 H   0  0  0  0  0  0  0  0  0  0  0  0
    1.8194    0.3926    9.5092 H   0  0  0  0  0  0  0  0  0  0  0  0
    2.5596    1.4319    8.2868 H   0  0  0  0  0  0  0  0  0  0  0  0
    2.1051    2.0967    9.8567 H   0  0  0  0  0  0  0  0  0  0  0  0
    1.4351   -0.7402    7.3726 H   0  0  0  0  0  0  0  0  0  0  0  0
    0.6984    3.8186   -6.1527 H   0  0  0  0  0  0  0  0  0  0  0  0
    2.5221    5.6344   -5.8249 H   0  0  0  0  0  0  0  0  0  0  0  0
    6.4257    8.8185   -4.1919 H   0  0  0  0  0  0  0  0  0  0  0  0
    2.9767    8.9274   -0.4792 H   0  0  0  0  0  0  0  0  0  0  0  0
    5.4909   11.1915    0.1438 H   0  0  0  0  0  0  0  0  0  0  0  0
    5.8457    9.0515    1.6900 H   0  0  0  0  0  0  0  0  0  0  0  0
    7.6990   10.8178    2.2803 H   0  0  0  0  0  0  0  0  0  0  0  0
    9.5264   10.7748    0.3525 H   0  0  0  0  0  0  0  0  0  0  0  0
    8.7986    8.9814   -1.4242 H   0  0  0  0  0  0  0  0  0  0  0  0
    7.9282    7.7246    0.7358 H   0  0  0  0  0  0  0  0  0  0  0  0
    6.6373    7.6896   -0.4868 H   0  0  0  0  0  0  0  0  0  0  0  0
    7.2838   11.1510   -1.7450 H   0  0  0  0  0  0  0  0  0  0  0  0
  1  2  2  0  0  0  0
  2  3  1  0  0  0  0
  3  4  2  0  0  0  0
  3  5  1  0  0  0  0
  5  6  2  0  0  0  0
  6  7  1  0  0  0  0
  7  8  2  0  0  0  0
  8  9  1  0  0  0  0
  9 10  2  0  0  0  0
 10 11  1  0  0  0  0
 11 12  2  0  0  0  0
 12 13  1  0  0  0  0
 13 14  3  0  0  0  0
 12 15  1  0  0  0  0
 15 16  3  0  0  0  0
  8 17  1  0  0  0  0
 17 18  1  0  0  0  0
 18 19  1  0  0  0  0
 19 20  2  0  0  0  0
 20 21  1  0  0  0  0
 21 22  1  0  0  0  0
 21 23  1  0  0  0  0
  1 24  1  0  0  0  0
 24 25  1  0  0  0  0
 25 26  1  0  0  0  0
 26 27  1  0  0  0  0
 27 28  1  0  0  0  0
 28 29  1  0  0  0  0
 29 30  1  0  0  0  0
 30 31  2  0  0  0  0
 31 32  1  0  0  0  0
 32 33  1  0  0  0  0
 33 34  1  0  0  0  0
 34 35  2  0  0  0  0
 35 36  1  0  0  0  0
 36 37  2  0  0  0  0
 37 38  1  0  0  0  0
 38 39  1  0  0  0  0
 37 40  1  0  0  0  0
 40 41  2  0  0  0  0
 33 42  1  0  0  0  0
 42 43  2  0  0  0  0
 43 44  1  0  0  0  0
 44 45  2  0  0  0  0
 45 46  1  0  0  0  0
 46 47  1  0  0  0  0
 45 48  1  0  0  0  0
 48 49  2  0  0  0  0
 33 50  1  0  0  0  0
 50 51  2  0  0  0  0
 51 52  1  0  0  0  0
 52 53  1  0  0  0  0
 53 54  2  0  0  0  0
 54 55  1  0  0  0  0
 55 56  1  0  0  0  0
 56 57  2  0  0  0  0
 57 58  1  0  0  0  0
 58 59  2  0  0  0  0
 59 60  1  0  0  0  0
 60 61  1  0  0  0  0
 59 62  1  0  0  0  0
 62 63  2  0  0  0  0
 55 64  1  0  0  0  0
 64 65  2  0  0  0  0
 65 66  1  0  0  0  0
 66 67  2  0  0  0  0
 67 68  1  0  0  0  0
 68 69  1  0  0  0  0
 67 70  1  0  0  0  0
 70 71  2  0  0  0  0
 55 72  1  0  0  0  0
 72 73  1  0  0  0  0
 73 74  1  0  0  0  0
 74 75  1  0  0  0  0
 75 76  1  0  0  0  0
 74 77  1  0  0  0  0
 77 78  2  0  0  0  0
 78 79  1  0  0  0  0
 79 80  1  0  0  0  0
 80 81  1  0  0  0  0
 81 82  1  0  0  0  0
 82 83  1  0  0  0  0
 81 84  2  0  0  0  0
 84 85  1  0  0  0  0
 85 86  1  0  0  0  0
 51 87  1  0  0  0  0
 87 88  1  0  0  0  0
 88 89  2  0  0  0  0
 88 90  1  0  0  0  0
 90 91  2  0  0  0  0
 91 92  1  0  0  0  0
 92 93  2  0  0  0  0
 92 94  1  0  0  0  0
 94 95  2  0  0  0  0
 95 96  1  0  0  0  0
 96 97  2  0  0  0  0
 97 98  1  0  0  0  0
 98 99  2  0  0  0  0
 99100  1  0  0  0  0
100101  2  0  0  0  0
101102  1  0  0  0  0
102103  3  0  0  0  0
101104  1  0  0  0  0
104105  3  0  0  0  0
 97106  1  0  0  0  0
106107  1  0  0  0  0
107108  1  0  0  0  0
108109  2  0  0  0  0
109110  1  0  0  0  0
110111  1  0  0  0  0
110112  1  0  0  0  0
 11  2  1  0  0  0  0
 23 17  1  0  0  0  0
 76 24  2  0  0  0  0
 86 77  1  0  0  0  0
100 91  1  0  0  0  0
112106  1  0  0  0  0
 10  5  1  0  0  0  0
 22 18  1  0  0  0  0
 75 26  2  0  0  0  0
 85 79  2  0  0  0  0
 99 94  1  0  0  0  0
111107  1  0  0  0  0
 23  7  1  0  0  0  0
 73 27  2  0  0  0  0
112 96  1  0  0  0  0
 72 29  2  0  0  0  0
 54 30  1  0  0  0  0
 63 56  1  0  0  0  0
 71 64  1  0  0  0  0
 52 32  2  0  0  0  0
 41 34  1  0  0  0  0
 49 42  1  0  0  0  0
 89 50  1  0  0  0  0
  1113  1  0  0  0  0
  6114  1  0  0  0  0
  9115  1  0  0  0  0
 17116  1  0  0  0  0
 18117  1  0  0  0  0
 19118  1  0  0  0  0
 20119  1  0  0  0  0
 21120  1  0  0  0  0
 22121  1  0  0  0  0
 22122  1  0  0  0  0
 23123  1  0  0  0  0
 31124  1  0  0  0  0
 35125  1  0  0  0  0
 36126  1  0  0  0  0
 38127  1  0  0  0  0
 38128  1  0  0  0  0
 39129  1  0  0  0  0
 39130  1  0  0  0  0
 39131  1  0  0  0  0
 40132  1  0  0  0  0
 41133  1  0  0  0  0
 43134  1  0  0  0  0
 44135  1  0  0  0  0
 46136  1  0  0  0  0
 46137  1  0  0  0  0
 47138  1  0  0  0  0
 47139  1  0  0  0  0
 47140  1  0  0  0  0
 48141  1  0  0  0  0
 49142  1  0  0  0  0
 53143  1  0  0  0  0
 57144  1  0  0  0  0
 58145  1  0  0  0  0
 60146  1  0  0  0  0
 60147  1  0  0  0  0
 61148  1  0  0  0  0
 61149  1  0  0  0  0
 61150  1  0  0  0  0
 62151  1  0  0  0  0
 63152  1  0  0  0  0
 65153  1  0  0  0  0
 66154  1  0  0  0  0
 68155  1  0  0  0  0
 68156  1  0  0  0  0
 69157  1  0  0  0  0
 69158  1  0  0  0  0
 69159  1  0  0  0  0
 70160  1  0  0  0  0
 71161  1  0  0  0  0
 76162  1  0  0  0  0
 78163  1  0  0  0  0
 82164  1  0  0  0  0
 82165  1  0  0  0  0
 83166  1  0  0  0  0
 83167  1  0  0  0  0
 83168  1  0  0  0  0
 84169  1  0  0  0  0
 89170  1  0  0  0  0
 90171  1  0  0  0  0
 95172  1  0  0  0  0
 98173  1  0  0  0  0
106174  1  0  0  0  0
107175  1  0  0  0  0
108176  1  0  0  0  0
109177  1  0  0  0  0
110178  1  0  0  0  0
111179  1  0  0  0  0
111180  1  0  0  0  0
112181  1  0  0  0  0
M  END
