
  xtb     02022216423D
 energy: -285.151491830234 gnorm: 0.000446871589 xtb: 6.4.1 (unknown)
177197  0     0  0            999 V2000
    1.6045   -6.9411   -1.1937 C   0  0  0  0  0  0  0  0  0  0  0  0
    0.2594   -7.1630   -1.3387 C   0  0  0  0  0  0  0  0  0  0  0  0
   -0.7520   -6.1045   -1.5503 C   0  0  0  0  0  0  0  0  0  0  0  0
   -0.6034   -4.9776   -1.9833 O   0  0  0  0  0  0  0  0  0  0  0  0
   -2.0183   -6.6680   -1.0446 C   0  0  0  0  0  0  0  0  0  0  0  0
   -3.2235   -5.9868   -0.8861 C   0  0  0  0  0  0  0  0  0  0  0  0
   -4.2369   -6.7563   -0.3671 C   0  0  0  0  0  0  0  0  0  0  0  0
   -4.0697   -8.1103   -0.0458 C   0  0  0  0  0  0  0  0  0  0  0  0
   -2.8845   -8.7927   -0.1928 C   0  0  0  0  0  0  0  0  0  0  0  0
   -1.8356   -8.0216   -0.7021 C   0  0  0  0  0  0  0  0  0  0  0  0
   -0.4378   -8.3684   -0.9425 C   0  0  0  0  0  0  0  0  0  0  0  0
    0.1143   -9.6206   -0.8727 C   0  0  0  0  0  0  0  0  0  0  0  0
    1.4563   -9.9043   -1.2036 C   0  0  0  0  0  0  0  0  0  0  0  0
    2.5288  -10.2040   -1.4834 N   0  0  0  0  0  0  0  0  0  0  0  0
   -0.5952  -10.7836   -0.5134 C   0  0  0  0  0  0  0  0  0  0  0  0
   -1.1222  -11.7625   -0.2255 N   0  0  0  0  0  0  0  0  0  0  0  0
   -5.4981   -8.2591    0.4165 C   0  0  0  0  0  0  0  0  0  0  0  0
   -6.4772   -8.9518   -0.5548 C   0  0  0  0  0  0  0  0  0  0  0  0
   -7.8401   -8.5289   -0.0532 C   0  0  0  0  0  0  0  0  0  0  0  0
   -7.9975   -7.2442   -0.3450 C   0  0  0  0  0  0  0  0  0  0  0  0
   -6.7448   -6.7772   -1.0498 C   0  0  0  0  0  0  0  0  0  0  0  0
   -6.3664   -8.0611   -1.7991 C   0  0  0  0  0  0  0  0  0  0  0  0
   -5.6820   -6.7472    0.0683 C   0  0  0  0  0  0  0  0  0  0  0  0
    2.2705   -5.7566   -1.5621 C   0  0  0  0  0  0  0  0  0  0  0  0
    3.5740   -5.1620   -0.5164 S   0  0  0  0  0  0  0  0  0  0  0  0
    3.5951   -3.6767   -1.3831 C   0  0  0  0  0  0  0  0  0  0  0  0
    4.1087   -2.3859   -1.3224 C   0  0  0  0  0  0  0  0  0  0  0  0
    5.0614   -1.3946   -0.2641 S   0  0  0  0  0  0  0  0  0  0  0  0
    4.6368   -0.0213   -1.2337 C   0  0  0  0  0  0  0  0  0  0  0  0
    4.6404    1.3838   -0.9656 C   0  0  0  0  0  0  0  0  0  0  0  0
    4.8373    2.0004    0.2674 C   0  0  0  0  0  0  0  0  0  0  0  0
    4.2180    3.2143    0.4645 C   0  0  0  0  0  0  0  0  0  0  0  0
    3.7058    3.7498    1.8013 C   0  0  0  0  0  0  0  0  0  0  0  0
    3.1711    2.5063    2.4987 C   0  0  0  0  0  0  0  0  0  0  0  0
    2.0349    1.8889    1.9827 C   0  0  0  0  0  0  0  0  0  0  0  0
    1.6365    0.6527    2.4462 C   0  0  0  0  0  0  0  0  0  0  0  0
    2.3626   -0.0081    3.4305 C   0  0  0  0  0  0  0  0  0  0  0  0
    2.0025   -1.4106    3.8249 C   0  0  0  0  0  0  0  0  0  0  0  0
    2.5818   -2.4003    2.8100 C   0  0  0  0  0  0  0  0  0  0  0  0
    3.4677    0.6308    3.9731 C   0  0  0  0  0  0  0  0  0  0  0  0
    3.8713    1.8736    3.5150 C   0  0  0  0  0  0  0  0  0  0  0  0
    4.7353    4.5002    2.6189 C   0  0  0  0  0  0  0  0  0  0  0  0
    6.0876    4.1971    2.5218 C   0  0  0  0  0  0  0  0  0  0  0  0
    7.0153    4.8605    3.3033 C   0  0  0  0  0  0  0  0  0  0  0  0
    6.6230    5.8432    4.2022 C   0  0  0  0  0  0  0  0  0  0  0  0
    7.6366    6.5834    5.0256 C   0  0  0  0  0  0  0  0  0  0  0  0
    8.1353    7.8208    4.2766 C   0  0  0  0  0  0  0  0  0  0  0  0
    5.2731    6.1571    4.2827 C   0  0  0  0  0  0  0  0  0  0  0  0
    4.3424    5.4971    3.5027 C   0  0  0  0  0  0  0  0  0  0  0  0
    2.6018    4.6657    1.3222 C   0  0  0  0  0  0  0  0  0  0  0  0
    2.7064    4.8549   -0.0473 C   0  0  0  0  0  0  0  0  0  0  0  0
    3.5977    3.8848   -0.6098 C   0  0  0  0  0  0  0  0  0  0  0  0
    3.5077    3.3160   -1.8793 C   0  0  0  0  0  0  0  0  0  0  0  0
    3.9477    2.0186   -2.0200 C   0  0  0  0  0  0  0  0  0  0  0  0
    3.4212    0.9821   -3.0161 C   0  0  0  0  0  0  0  0  0  0  0  0
    1.8992    1.0863   -2.9220 C   0  0  0  0  0  0  0  0  0  0  0  0
    1.0704    1.3187   -4.0075 C   0  0  0  0  0  0  0  0  0  0  0  0
   -0.2993    1.4453   -3.8307 C   0  0  0  0  0  0  0  0  0  0  0  0
   -0.8744    1.3509   -2.5726 C   0  0  0  0  0  0  0  0  0  0  0  0
   -2.3592    1.4513   -2.3708 C   0  0  0  0  0  0  0  0  0  0  0  0
   -2.9831    0.0578   -2.2664 C   0  0  0  0  0  0  0  0  0  0  0  0
   -0.0393    1.1086   -1.4871 C   0  0  0  0  0  0  0  0  0  0  0  0
    1.3220    0.9722   -1.6585 C   0  0  0  0  0  0  0  0  0  0  0  0
    3.9735    1.1412   -4.4150 C   0  0  0  0  0  0  0  0  0  0  0  0
    3.8397    2.3457   -5.0974 C   0  0  0  0  0  0  0  0  0  0  0  0
    4.3390    2.4941   -6.3771 C   0  0  0  0  0  0  0  0  0  0  0  0
    4.9859    1.4463   -7.0191 C   0  0  0  0  0  0  0  0  0  0  0  0
    5.5660    1.6216   -8.3921 C   0  0  0  0  0  0  0  0  0  0  0  0
    7.0205    2.0871   -8.2986 C   0  0  0  0  0  0  0  0  0  0  0  0
    5.1268    0.2478   -6.3345 C   0  0  0  0  0  0  0  0  0  0  0  0
    4.6306    0.0961   -5.0525 C   0  0  0  0  0  0  0  0  0  0  0  0
    3.8600   -0.3002   -2.3447 C   0  0  0  0  0  0  0  0  0  0  0  0
    3.5304   -1.6602   -2.3991 C   0  0  0  0  0  0  0  0  0  0  0  0
    2.7215   -2.4887   -3.1273 N   0  0  0  0  0  0  0  0  0  0  0  0
    2.7147   -3.7052   -2.4941 C   0  0  0  0  0  0  0  0  0  0  0  0
    1.9768   -4.8784   -2.5914 C   0  0  0  0  0  0  0  0  0  0  0  0
    1.8192   -2.1320   -4.1949 C   0  0  0  0  0  0  0  0  0  0  0  0
    0.3769   -2.0439   -3.7024 C   0  0  0  0  0  0  0  0  0  0  0  0
    1.4315    5.7863   -0.7640 S   0  0  0  0  0  0  0  0  0  0  0  0
    0.6238    5.7784    0.7724 C   0  0  0  0  0  0  0  0  0  0  0  0
   -0.6746    5.9162    1.2451 C   0  0  0  0  0  0  0  0  0  0  0  0
   -2.2531    6.3184    0.6943 S   0  0  0  0  0  0  0  0  0  0  0  0
   -2.9461    5.4581    2.0878 C   0  0  0  0  0  0  0  0  0  0  0  0
   -1.9804    5.0543    2.9931 C   0  0  0  0  0  0  0  0  0  0  0  0
   -0.6954    5.3361    2.5388 C   0  0  0  0  0  0  0  0  0  0  0  0
    0.5714    4.9438    2.8912 N   0  0  0  0  0  0  0  0  0  0  0  0
    0.8865    4.2847    4.1350 C   0  0  0  0  0  0  0  0  0  0  0  0
    0.7970    5.2521    5.3127 C   0  0  0  0  0  0  0  0  0  0  0  0
    1.3778    5.1508    1.8031 C   0  0  0  0  0  0  0  0  0  0  0  0
   -4.2979    5.0715    1.9836 C   0  0  0  0  0  0  0  0  0  0  0  0
   -4.7421    3.7937    2.2140 C   0  0  0  0  0  0  0  0  0  0  0  0
   -3.8428    2.6216    2.2891 C   0  0  0  0  0  0  0  0  0  0  0  0
   -2.6747    2.5738    2.6200 O   0  0  0  0  0  0  0  0  0  0  0  0
   -4.6499    1.4908    1.7876 C   0  0  0  0  0  0  0  0  0  0  0  0
   -4.2378    0.2290    1.4739 C   0  0  0  0  0  0  0  0  0  0  0  0
   -5.1764   -0.6944    0.9603 C   0  0  0  0  0  0  0  0  0  0  0  0
   -4.7970   -2.0003    0.5900 C   0  0  0  0  0  0  0  0  0  0  0  0
   -5.7116   -2.8835    0.0872 C   0  0  0  0  0  0  0  0  0  0  0  0
   -7.0438   -2.4733   -0.0486 C   0  0  0  0  0  0  0  0  0  0  0  0
   -7.9305   -3.3621   -0.5383 F   0  0  0  0  0  0  0  0  0  0  0  0
   -7.4646   -1.2178    0.2922 C   0  0  0  0  0  0  0  0  0  0  0  0
   -6.5343   -0.2917    0.8031 C   0  0  0  0  0  0  0  0  0  0  0  0
   -6.9327    1.0244    1.1409 C   0  0  0  0  0  0  0  0  0  0  0  0
   -6.0001    1.9067    1.6155 C   0  0  0  0  0  0  0  0  0  0  0  0
   -6.0867    3.3212    1.9634 C   0  0  0  0  0  0  0  0  0  0  0  0
   -7.2299    4.0686    2.0725 C   0  0  0  0  0  0  0  0  0  0  0  0
   -8.5228    3.5629    1.8356 C   0  0  0  0  0  0  0  0  0  0  0  0
   -9.5928    3.1919    1.6455 N   0  0  0  0  0  0  0  0  0  0  0  0
   -7.2330    5.4176    2.4846 C   0  0  0  0  0  0  0  0  0  0  0  0
   -7.2869    6.5089    2.8365 N   0  0  0  0  0  0  0  0  0  0  0  0
    2.1890   -7.6675   -0.6409 H   0  0  0  0  0  0  0  0  0  0  0  0
   -3.3044   -4.9447   -1.1561 H   0  0  0  0  0  0  0  0  0  0  0  0
   -2.7631   -9.8286    0.0776 H   0  0  0  0  0  0  0  0  0  0  0  0
   -5.6306   -8.5759    1.4494 H   0  0  0  0  0  0  0  0  0  0  0  0
   -6.3118  -10.0178   -0.6845 H   0  0  0  0  0  0  0  0  0  0  0  0
   -8.5036   -9.1732    0.4930 H   0  0  0  0  0  0  0  0  0  0  0  0
   -8.8157   -6.5955   -0.0943 H   0  0  0  0  0  0  0  0  0  0  0  0
   -6.8298   -5.8623   -1.6299 H   0  0  0  0  0  0  0  0  0  0  0  0
   -7.0993   -8.3244   -2.5597 H   0  0  0  0  0  0  0  0  0  0  0  0
   -5.3724   -8.0405   -2.2428 H   0  0  0  0  0  0  0  0  0  0  0  0
   -5.9322   -6.0628    0.8778 H   0  0  0  0  0  0  0  0  0  0  0  0
    5.2706    1.4394    1.0825 H   0  0  0  0  0  0  0  0  0  0  0  0
    1.4739    2.3716    1.1951 H   0  0  0  0  0  0  0  0  0  0  0  0
    0.7606    0.1822    2.0235 H   0  0  0  0  0  0  0  0  0  0  0  0
    0.9166   -1.5220    3.8573 H   0  0  0  0  0  0  0  0  0  0  0  0
    2.3999   -1.6350    4.8163 H   0  0  0  0  0  0  0  0  0  0  0  0
    3.6637   -2.3002    2.7578 H   0  0  0  0  0  0  0  0  0  0  0  0
    2.3415   -3.4226    3.0922 H   0  0  0  0  0  0  0  0  0  0  0  0
    2.1762   -2.2105    1.8184 H   0  0  0  0  0  0  0  0  0  0  0  0
    4.0383    0.1427    4.7502 H   0  0  0  0  0  0  0  0  0  0  0  0
    4.7489    2.3409    3.9378 H   0  0  0  0  0  0  0  0  0  0  0  0
    6.4217    3.4389    1.8306 H   0  0  0  0  0  0  0  0  0  0  0  0
    8.0620    4.6062    3.2155 H   0  0  0  0  0  0  0  0  0  0  0  0
    8.4837    5.9301    5.2443 H   0  0  0  0  0  0  0  0  0  0  0  0
    7.1896    6.8923    5.9728 H   0  0  0  0  0  0  0  0  0  0  0  0
    8.5954    7.5326    3.3341 H   0  0  0  0  0  0  0  0  0  0  0  0
    8.8705    8.3556    4.8733 H   0  0  0  0  0  0  0  0  0  0  0  0
    7.3072    8.4924    4.0612 H   0  0  0  0  0  0  0  0  0  0  0  0
    4.9449    6.9268    4.9669 H   0  0  0  0  0  0  0  0  0  0  0  0
    3.3015    5.7699    3.5793 H   0  0  0  0  0  0  0  0  0  0  0  0
    2.9204    3.8128   -2.6360 H   0  0  0  0  0  0  0  0  0  0  0  0
    1.4844    1.4053   -5.0014 H   0  0  0  0  0  0  0  0  0  0  0  0
   -0.9267    1.6279   -4.6914 H   0  0  0  0  0  0  0  0  0  0  0  0
   -2.5665    2.0051   -1.4517 H   0  0  0  0  0  0  0  0  0  0  0  0
   -2.8138    1.9902   -3.2038 H   0  0  0  0  0  0  0  0  0  0  0  0
   -2.8193   -0.5006   -3.1852 H   0  0  0  0  0  0  0  0  0  0  0  0
   -2.5343   -0.4987   -1.4470 H   0  0  0  0  0  0  0  0  0  0  0  0
   -4.0540    0.1310   -2.0881 H   0  0  0  0  0  0  0  0  0  0  0  0
   -0.4633    1.0344   -0.4955 H   0  0  0  0  0  0  0  0  0  0  0  0
    1.9485    0.7843   -0.7981 H   0  0  0  0  0  0  0  0  0  0  0  0
    3.3367    3.1774   -4.6307 H   0  0  0  0  0  0  0  0  0  0  0  0
    4.2202    3.4396   -6.8870 H   0  0  0  0  0  0  0  0  0  0  0  0
    5.5255    0.6752   -8.9353 H   0  0  0  0  0  0  0  0  0  0  0  0
    4.9863    2.3608   -8.9484 H   0  0  0  0  0  0  0  0  0  0  0  0
    7.4423    2.2203   -9.2919 H   0  0  0  0  0  0  0  0  0  0  0  0
    7.0808    3.0329   -7.7649 H   0  0  0  0  0  0  0  0  0  0  0  0
    7.6184    1.3537   -7.7621 H   0  0  0  0  0  0  0  0  0  0  0  0
    5.6308   -0.5820   -6.8092 H   0  0  0  0  0  0  0  0  0  0  0  0
    4.7670   -0.8489   -4.5483 H   0  0  0  0  0  0  0  0  0  0  0  0
    1.2786   -5.1126   -3.3711 H   0  0  0  0  0  0  0  0  0  0  0  0
    1.9009   -2.8923   -4.9788 H   0  0  0  0  0  0  0  0  0  0  0  0
    2.1410   -1.1724   -4.6040 H   0  0  0  0  0  0  0  0  0  0  0  0
    0.0503   -2.9927   -3.2853 H   0  0  0  0  0  0  0  0  0  0  0  0
    0.2887   -1.2816   -2.9332 H   0  0  0  0  0  0  0  0  0  0  0  0
   -0.2751   -1.7781   -4.5297 H   0  0  0  0  0  0  0  0  0  0  0  0
   -2.2237    4.5816    3.9255 H   0  0  0  0  0  0  0  0  0  0  0  0
    0.1811    3.4585    4.2738 H   0  0  0  0  0  0  0  0  0  0  0  0
    1.8919    3.8680    4.0618 H   0  0  0  0  0  0  0  0  0  0  0  0
   -0.2014    5.6765    5.3848 H   0  0  0  0  0  0  0  0  0  0  0  0
    1.5092    6.0662    5.1979 H   0  0  0  0  0  0  0  0  0  0  0  0
    1.0204    4.7256    6.2363 H   0  0  0  0  0  0  0  0  0  0  0  0
   -4.9715    5.7732    1.5048 H   0  0  0  0  0  0  0  0  0  0  0  0
   -3.2061   -0.0609    1.6052 H   0  0  0  0  0  0  0  0  0  0  0  0
   -3.7648   -2.2950    0.7068 H   0  0  0  0  0  0  0  0  0  0  0  0
   -5.4369   -3.8839   -0.2058 H   0  0  0  0  0  0  0  0  0  0  0  0
   -8.4988   -0.9361    0.1704 H   0  0  0  0  0  0  0  0  0  0  0  0
   -7.9633    1.3076    0.9957 H   0  0  0  0  0  0  0  0  0  0  0  0
  1  2  2  0  0  0  0
  2  3  1  0  0  0  0
  3  4  2  0  0  0  0
  3  5  1  0  0  0  0
  5  6  2  0  0  0  0
  6  7  1  0  0  0  0
  7  8  2  0  0  0  0
  8  9  1  0  0  0  0
  9 10  2  0  0  0  0
 10 11  1  0  0  0  0
 11 12  2  0  0  0  0
 12 13  1  0  0  0  0
 13 14  3  0  0  0  0
 12 15  1  0  0  0  0
 15 16  3  0  0  0  0
  8 17  1  0  0  0  0
 17 18  1  0  0  0  0
 18 19  1  0  0  0  0
 19 20  2  0  0  0  0
 20 21  1  0  0  0  0
 21 22  1  0  0  0  0
 21 23  1  0  0  0  0
  1 24  1  0  0  0  0
 24 25  1  0  0  0  0
 25 26  1  0  0  0  0
 26 27  1  0  0  0  0
 27 28  1  0  0  0  0
 28 29  1  0  0  0  0
 29 30  1  0  0  0  0
 30 31  2  0  0  0  0
 31 32  1  0  0  0  0
 32 33  1  0  0  0  0
 33 34  1  0  0  0  0
 34 35  2  0  0  0  0
 35 36  1  0  0  0  0
 36 37  2  0  0  0  0
 37 38  1  0  0  0  0
 38 39  1  0  0  0  0
 37 40  1  0  0  0  0
 40 41  2  0  0  0  0
 33 42  1  0  0  0  0
 42 43  2  0  0  0  0
 43 44  1  0  0  0  0
 44 45  2  0  0  0  0
 45 46  1  0  0  0  0
 46 47  1  0  0  0  0
 45 48  1  0  0  0  0
 48 49  2  0  0  0  0
 33 50  1  0  0  0  0
 50 51  2  0  0  0  0
 51 52  1  0  0  0  0
 52 53  1  0  0  0  0
 53 54  2  0  0  0  0
 54 55  1  0  0  0  0
 55 56  1  0  0  0  0
 56 57  2  0  0  0  0
 57 58  1  0  0  0  0
 58 59  2  0  0  0  0
 59 60  1  0  0  0  0
 60 61  1  0  0  0  0
 59 62  1  0  0  0  0
 62 63  2  0  0  0  0
 55 64  1  0  0  0  0
 64 65  2  0  0  0  0
 65 66  1  0  0  0  0
 66 67  2  0  0  0  0
 67 68  1  0  0  0  0
 68 69  1  0  0  0  0
 67 70  1  0  0  0  0
 70 71  2  0  0  0  0
 55 72  1  0  0  0  0
 72 73  1  0  0  0  0
 73 74  1  0  0  0  0
 74 75  1  0  0  0  0
 75 76  1  0  0  0  0
 74 77  1  0  0  0  0
 77 78  1  0  0  0  0
 51 79  1  0  0  0  0
 79 80  1  0  0  0  0
 80 81  1  0  0  0  0
 81 82  1  0  0  0  0
 82 83  1  0  0  0  0
 83 84  2  0  0  0  0
 84 85  1  0  0  0  0
 85 86  1  0  0  0  0
 86 87  1  0  0  0  0
 87 88  1  0  0  0  0
 86 89  1  0  0  0  0
 83 90  1  0  0  0  0
 90 91  2  0  0  0  0
 91 92  1  0  0  0  0
 92 93  2  0  0  0  0
 92 94  1  0  0  0  0
 94 95  2  0  0  0  0
 95 96  1  0  0  0  0
 96 97  2  0  0  0  0
 97 98  1  0  0  0  0
 98 99  2  0  0  0  0
 99100  1  0  0  0  0
 99101  1  0  0  0  0
101102  2  0  0  0  0
102103  1  0  0  0  0
103104  2  0  0  0  0
104105  1  0  0  0  0
105106  2  0  0  0  0
106107  1  0  0  0  0
107108  3  0  0  0  0
106109  1  0  0  0  0
109110  3  0  0  0  0
 11  2  1  0  0  0  0
 23 17  1  0  0  0  0
 76 24  2  0  0  0  0
 89 80  2  0  0  0  0
105 91  1  0  0  0  0
 10  5  1  0  0  0  0
 22 18  1  0  0  0  0
 75 26  2  0  0  0  0
 85 81  2  0  0  0  0
104 94  1  0  0  0  0
 23  7  1  0  0  0  0
 73 27  2  0  0  0  0
102 96  1  0  0  0  0
 72 29  2  0  0  0  0
 54 30  1  0  0  0  0
 63 56  1  0  0  0  0
 71 64  1  0  0  0  0
 52 32  2  0  0  0  0
 41 34  1  0  0  0  0
 49 42  1  0  0  0  0
 89 50  1  0  0  0  0
  1111  1  0  0  0  0
  6112  1  0  0  0  0
  9113  1  0  0  0  0
 17114  1  0  0  0  0
 18115  1  0  0  0  0
 19116  1  0  0  0  0
 20117  1  0  0  0  0
 21118  1  0  0  0  0
 22119  1  0  0  0  0
 22120  1  0  0  0  0
 23121  1  0  0  0  0
 31122  1  0  0  0  0
 35123  1  0  0  0  0
 36124  1  0  0  0  0
 38125  1  0  0  0  0
 38126  1  0  0  0  0
 39127  1  0  0  0  0
 39128  1  0  0  0  0
 39129  1  0  0  0  0
 40130  1  0  0  0  0
 41131  1  0  0  0  0
 43132  1  0  0  0  0
 44133  1  0  0  0  0
 46134  1  0  0  0  0
 46135  1  0  0  0  0
 47136  1  0  0  0  0
 47137  1  0  0  0  0
 47138  1  0  0  0  0
 48139  1  0  0  0  0
 49140  1  0  0  0  0
 53141  1  0  0  0  0
 57142  1  0  0  0  0
 58143  1  0  0  0  0
 60144  1  0  0  0  0
 60145  1  0  0  0  0
 61146  1  0  0  0  0
 61147  1  0  0  0  0
 61148  1  0  0  0  0
 62149  1  0  0  0  0
 63150  1  0  0  0  0
 65151  1  0  0  0  0
 66152  1  0  0  0  0
 68153  1  0  0  0  0
 68154  1  0  0  0  0
 69155  1  0  0  0  0
 69156  1  0  0  0  0
 69157  1  0  0  0  0
 70158  1  0  0  0  0
 71159  1  0  0  0  0
 76160  1  0  0  0  0
 77161  1  0  0  0  0
 77162  1  0  0  0  0
 78163  1  0  0  0  0
 78164  1  0  0  0  0
 78165  1  0  0  0  0
 84166  1  0  0  0  0
 87167  1  0  0  0  0
 87168  1  0  0  0  0
 88169  1  0  0  0  0
 88170  1  0  0  0  0
 88171  1  0  0  0  0
 90172  1  0  0  0  0
 95173  1  0  0  0  0
 97174  1  0  0  0  0
 98175  1  0  0  0  0
101176  1  0  0  0  0
103177  1  0  0  0  0
M  END
