
  xtb     02012220483D
 energy: -281.246688449344 gnorm: 0.000353566848 xtb: 6.4.1 (unknown)
171189  0     0  0            999 V2000
   -6.8683    4.8233   -0.3993 C   0  0  0  0  0  0  0  0  0  0  0  0
   -7.1273    6.1691   -0.4056 C   0  0  0  0  0  0  0  0  0  0  0  0
   -6.1880    7.2978   -0.5859 C   0  0  0  0  0  0  0  0  0  0  0  0
   -5.0361    7.2827   -0.9747 O   0  0  0  0  0  0  0  0  0  0  0  0
   -6.9321    8.5086   -0.1916 C   0  0  0  0  0  0  0  0  0  0  0  0
   -6.4263    9.8049   -0.1163 C   0  0  0  0  0  0  0  0  0  0  0  0
   -7.3406   10.7370    0.3106 C   0  0  0  0  0  0  0  0  0  0  0  0
   -8.6632   10.4056    0.6344 C   0  0  0  0  0  0  0  0  0  0  0  0
   -9.1771    9.1334    0.5538 C   0  0  0  0  0  0  0  0  0  0  0  0
   -8.2609    8.1680    0.1236 C   0  0  0  0  0  0  0  0  0  0  0  0
   -8.4279    6.7312   -0.0795 C   0  0  0  0  0  0  0  0  0  0  0  0
   -9.6255    6.0651   -0.0277 C   0  0  0  0  0  0  0  0  0  0  0  0
   -9.8309    4.7001   -0.3215 C   0  0  0  0  0  0  0  0  0  0  0  0
  -10.1001    3.6092   -0.5616 N   0  0  0  0  0  0  0  0  0  0  0  0
  -10.8603    6.6690    0.2895 C   0  0  0  0  0  0  0  0  0  0  0  0
  -11.9007    7.0825    0.5451 N   0  0  0  0  0  0  0  0  0  0  0  0
   -9.0118   11.8249    1.0085 C   0  0  0  0  0  0  0  0  0  0  0  0
   -9.0834   12.1401    2.5177 C   0  0  0  0  0  0  0  0  0  0  0  0
   -8.9581   13.6453    2.5799 C   0  0  0  0  0  0  0  0  0  0  0  0
   -7.7057   13.9589    2.2736 C   0  0  0  0  0  0  0  0  0  0  0  0
   -6.9637   12.6709    1.9988 C   0  0  0  0  0  0  0  0  0  0  0  0
   -7.6785   11.7393    2.9862 C   0  0  0  0  0  0  0  0  0  0  0  0
   -7.5374   12.1943    0.6472 C   0  0  0  0  0  0  0  0  0  0  0  0
   -5.6872    4.1002   -0.6354 C   0  0  0  0  0  0  0  0  0  0  0  0
   -4.4191    4.4801   -1.0667 C   0  0  0  0  0  0  0  0  0  0  0  0
   -3.5385    3.4176   -1.1208 C   0  0  0  0  0  0  0  0  0  0  0  0
   -2.0758    3.2152   -1.4738 C   0  0  0  0  0  0  0  0  0  0  0  0
   -1.1815    4.0456   -0.5657 C   0  0  0  0  0  0  0  0  0  0  0  0
   -0.1746    4.8678   -1.0468 C   0  0  0  0  0  0  0  0  0  0  0  0
    0.6060    5.6032   -0.1728 C   0  0  0  0  0  0  0  0  0  0  0  0
    0.4086    5.5344    1.1996 C   0  0  0  0  0  0  0  0  0  0  0  0
    1.2817    6.3125    2.1422 C   0  0  0  0  0  0  0  0  0  0  0  0
    2.5630    5.5391    2.4604 C   0  0  0  0  0  0  0  0  0  0  0  0
   -0.5888    4.6944    1.6774 C   0  0  0  0  0  0  0  0  0  0  0  0
   -1.3736    3.9616    0.8084 C   0  0  0  0  0  0  0  0  0  0  0  0
   -1.8978    3.5232   -2.9489 C   0  0  0  0  0  0  0  0  0  0  0  0
   -2.1236    4.8188   -3.4029 C   0  0  0  0  0  0  0  0  0  0  0  0
   -1.9902    5.1286   -4.7419 C   0  0  0  0  0  0  0  0  0  0  0  0
   -1.6358    4.1554   -5.6682 C   0  0  0  0  0  0  0  0  0  0  0  0
   -1.4407    4.5072   -7.1148 C   0  0  0  0  0  0  0  0  0  0  0  0
    0.0032    4.9470   -7.3660 C   0  0  0  0  0  0  0  0  0  0  0  0
   -1.4221    2.8630   -5.2121 C   0  0  0  0  0  0  0  0  0  0  0  0
   -1.5565    2.5463   -3.8715 C   0  0  0  0  0  0  0  0  0  0  0  0
   -1.9174    1.7477   -1.1414 C   0  0  0  0  0  0  0  0  0  0  0  0
   -3.1255    1.2002   -0.7394 C   0  0  0  0  0  0  0  0  0  0  0  0
   -4.1201    2.2044   -0.7306 C   0  0  0  0  0  0  0  0  0  0  0  0
   -5.7669    2.3612   -0.3187 S   0  0  0  0  0  0  0  0  0  0  0  0
   -3.0255   -0.4649   -0.3036 S   0  0  0  0  0  0  0  0  0  0  0  0
   -1.3097   -0.4374   -0.6308 C   0  0  0  0  0  0  0  0  0  0  0  0
   -0.4490   -1.5306   -0.4405 C   0  0  0  0  0  0  0  0  0  0  0  0
    0.9243   -1.3010   -0.6968 C   0  0  0  0  0  0  0  0  0  0  0  0
    1.3832   -0.0473   -1.1595 C   0  0  0  0  0  0  0  0  0  0  0  0
    0.5261    1.0015   -1.3662 C   0  0  0  0  0  0  0  0  0  0  0  0
    0.8501    2.2219   -1.8431 O   0  0  0  0  0  0  0  0  0  0  0  0
    2.2073    2.5561   -2.0566 C   0  0  0  0  0  0  0  0  0  0  0  0
    2.9451    2.8536   -0.7558 C   0  0  0  0  0  0  0  0  0  0  0  0
   -0.8595    0.8170   -1.0753 C   0  0  0  0  0  0  0  0  0  0  0  0
    1.7912   -2.3772   -0.4475 C   0  0  0  0  0  0  0  0  0  0  0  0
    1.3512   -3.6427   -0.0143 C   0  0  0  0  0  0  0  0  0  0  0  0
   -0.0437   -3.8345    0.2345 C   0  0  0  0  0  0  0  0  0  0  0  0
   -0.9007   -2.7861    0.0206 C   0  0  0  0  0  0  0  0  0  0  0  0
   -0.4100   -5.0437    0.7135 O   0  0  0  0  0  0  0  0  0  0  0  0
   -1.7477   -5.2149    1.1484 C   0  0  0  0  0  0  0  0  0  0  0  0
   -1.8824   -6.5858    1.7924 C   0  0  0  0  0  0  0  0  0  0  0  0
    2.4429   -4.5166    0.1822 C   0  0  0  0  0  0  0  0  0  0  0  0
    3.6631   -3.8964   -0.0551 C   0  0  0  0  0  0  0  0  0  0  0  0
    3.5283   -2.2635   -0.5834 S   0  0  0  0  0  0  0  0  0  0  0  0
    4.7147   -4.7910    0.2325 C   0  0  0  0  0  0  0  0  0  0  0  0
    6.4219   -4.7823    0.2607 S   0  0  0  0  0  0  0  0  0  0  0  0
    6.4278   -6.4579    0.8094 C   0  0  0  0  0  0  0  0  0  0  0  0
    5.1313   -6.9436    0.9777 C   0  0  0  0  0  0  0  0  0  0  0  0
    4.1699   -6.0168    0.6303 C   0  0  0  0  0  0  0  0  0  0  0  0
    2.6605   -5.9723    0.5379 C   0  0  0  0  0  0  0  0  0  0  0  0
    2.1955   -6.7957   -0.6640 C   0  0  0  0  0  0  0  0  0  0  0  0
    3.0107   -6.9349   -1.7808 C   0  0  0  0  0  0  0  0  0  0  0  0
    2.5813   -7.6620   -2.8753 C   0  0  0  0  0  0  0  0  0  0  0  0
    1.3270   -8.2567   -2.8933 C   0  0  0  0  0  0  0  0  0  0  0  0
    0.8852   -9.0909   -4.0607 C   0  0  0  0  0  0  0  0  0  0  0  0
    1.2694  -10.5558   -3.8422 C   0  0  0  0  0  0  0  0  0  0  0  0
    0.5118   -8.1002   -1.7806 C   0  0  0  0  0  0  0  0  0  0  0  0
    0.9368   -7.3782   -0.6809 C   0  0  0  0  0  0  0  0  0  0  0  0
    2.0669   -6.4155    1.8543 C   0  0  0  0  0  0  0  0  0  0  0  0
    1.9795   -7.7697    2.1536 C   0  0  0  0  0  0  0  0  0  0  0  0
    1.4744   -8.1888    3.3693 C   0  0  0  0  0  0  0  0  0  0  0  0
    1.0515   -7.2694    4.3214 C   0  0  0  0  0  0  0  0  0  0  0  0
    0.5307   -7.7274    5.6532 C   0  0  0  0  0  0  0  0  0  0  0  0
    1.6805   -7.8880    6.6497 C   0  0  0  0  0  0  0  0  0  0  0  0
    1.1698   -5.9172    4.0290 C   0  0  0  0  0  0  0  0  0  0  0  0
    1.6768   -5.4930    2.8141 C   0  0  0  0  0  0  0  0  0  0  0  0
    7.6090   -7.1507    1.1196 C   0  0  0  0  0  0  0  0  0  0  0  0
    8.8996   -6.8639    0.7680 C   0  0  0  0  0  0  0  0  0  0  0  0
   10.0140   -7.3833    1.5941 C   0  0  0  0  0  0  0  0  0  0  0  0
    9.9514   -8.2377    2.4471 O   0  0  0  0  0  0  0  0  0  0  0  0
   11.1956   -6.5850    1.1836 C   0  0  0  0  0  0  0  0  0  0  0  0
   10.8468   -5.7555    0.1005 C   0  0  0  0  0  0  0  0  0  0  0  0
   11.7757   -4.8836   -0.4404 C   0  0  0  0  0  0  0  0  0  0  0  0
   13.0501   -4.8521    0.1073 C   0  0  0  0  0  0  0  0  0  0  0  0
   13.3959   -5.6786    1.1651 C   0  0  0  0  0  0  0  0  0  0  0  0
   15.1513   -5.5942    1.8602 Br  0  0  0  0  0  0  0  0  0  0  0  0
   12.4699   -6.5656    1.7265 C   0  0  0  0  0  0  0  0  0  0  0  0
   12.8951   -7.5848    3.0346 Cl  0  0  0  0  0  0  0  0  0  0  0  0
    9.4580   -6.0308   -0.2668 C   0  0  0  0  0  0  0  0  0  0  0  0
    8.9070   -5.7865   -1.5000 C   0  0  0  0  0  0  0  0  0  0  0  0
    9.5482   -5.0505   -2.5149 C   0  0  0  0  0  0  0  0  0  0  0  0
   10.0248   -4.4447   -3.3659 N   0  0  0  0  0  0  0  0  0  0  0  0
    7.6789   -6.3372   -1.9197 C   0  0  0  0  0  0  0  0  0  0  0  0
    6.7097   -6.8096   -2.3151 N   0  0  0  0  0  0  0  0  0  0  0  0
   -7.7011    4.1865   -0.1230 H   0  0  0  0  0  0  0  0  0  0  0  0
   -5.4005   10.0143   -0.3765 H   0  0  0  0  0  0  0  0  0  0  0  0
  -10.1966    8.8965    0.8071 H   0  0  0  0  0  0  0  0  0  0  0  0
   -9.8186   12.2821    0.4391 H   0  0  0  0  0  0  0  0  0  0  0  0
   -9.9301   11.6975    3.0352 H   0  0  0  0  0  0  0  0  0  0  0  0
   -9.7796   14.3079    2.7792 H   0  0  0  0  0  0  0  0  0  0  0  0
   -7.2721   14.9358    2.1657 H   0  0  0  0  0  0  0  0  0  0  0  0
   -5.8786   12.7117    2.0443 H   0  0  0  0  0  0  0  0  0  0  0  0
   -7.4482   10.6845    2.8475 H   0  0  0  0  0  0  0  0  0  0  0  0
   -7.4949   12.0188    4.0223 H   0  0  0  0  0  0  0  0  0  0  0  0
   -7.3603   12.8993   -0.1629 H   0  0  0  0  0  0  0  0  0  0  0  0
   -4.1898    5.5027   -1.2992 H   0  0  0  0  0  0  0  0  0  0  0  0
    0.0079    4.9361   -2.1075 H   0  0  0  0  0  0  0  0  0  0  0  0
    1.3800    6.2473   -0.5672 H   0  0  0  0  0  0  0  0  0  0  0  0
    0.7398    6.5062    3.0699 H   0  0  0  0  0  0  0  0  0  0  0  0
    1.5447    7.2729    1.6939 H   0  0  0  0  0  0  0  0  0  0  0  0
    3.1742    6.0923    3.1696 H   0  0  0  0  0  0  0  0  0  0  0  0
    3.1455    5.3770    1.5560 H   0  0  0  0  0  0  0  0  0  0  0  0
    2.3230    4.5694    2.8913 H   0  0  0  0  0  0  0  0  0  0  0  0
   -0.7582    4.6184    2.7422 H   0  0  0  0  0  0  0  0  0  0  0  0
   -2.1483    3.3191    1.2034 H   0  0  0  0  0  0  0  0  0  0  0  0
   -2.3967    5.5938   -2.7033 H   0  0  0  0  0  0  0  0  0  0  0  0
   -2.1683    6.1416   -5.0734 H   0  0  0  0  0  0  0  0  0  0  0  0
   -2.1170    5.3181   -7.3927 H   0  0  0  0  0  0  0  0  0  0  0  0
   -1.6678    3.6423   -7.7412 H   0  0  0  0  0  0  0  0  0  0  0  0
    0.2457    5.8145   -6.7561 H   0  0  0  0  0  0  0  0  0  0  0  0
    0.1461    5.2071   -8.4122 H   0  0  0  0  0  0  0  0  0  0  0  0
    0.6924    4.1452   -7.1099 H   0  0  0  0  0  0  0  0  0  0  0  0
   -1.1512    2.0875   -5.9147 H   0  0  0  0  0  0  0  0  0  0  0  0
   -1.3899    1.5290   -3.5529 H   0  0  0  0  0  0  0  0  0  0  0  0
    2.4406    0.0444   -1.3505 H   0  0  0  0  0  0  0  0  0  0  0  0
    2.1650    3.4563   -2.6751 H   0  0  0  0  0  0  0  0  0  0  0  0
    2.7139    1.7678   -2.6267 H   0  0  0  0  0  0  0  0  0  0  0  0
    2.4177    3.6337   -0.2123 H   0  0  0  0  0  0  0  0  0  0  0  0
    3.9547    3.1883   -0.9769 H   0  0  0  0  0  0  0  0  0  0  0  0
    2.9979    1.9702   -0.1245 H   0  0  0  0  0  0  0  0  0  0  0  0
   -1.9585   -2.8843    0.2050 H   0  0  0  0  0  0  0  0  0  0  0  0
   -2.4336   -5.1269    0.2951 H   0  0  0  0  0  0  0  0  0  0  0  0
   -1.9955   -4.4345    1.8807 H   0  0  0  0  0  0  0  0  0  0  0  0
   -1.1225   -6.7121    2.5594 H   0  0  0  0  0  0  0  0  0  0  0  0
   -2.8657   -6.6757    2.2455 H   0  0  0  0  0  0  0  0  0  0  0  0
   -1.7675   -7.3717    1.0513 H   0  0  0  0  0  0  0  0  0  0  0  0
    4.9362   -7.9456    1.3137 H   0  0  0  0  0  0  0  0  0  0  0  0
    3.9938   -6.4896   -1.8090 H   0  0  0  0  0  0  0  0  0  0  0  0
    3.2372   -7.7658   -3.7271 H   0  0  0  0  0  0  0  0  0  0  0  0
   -0.1977   -9.0168   -4.1818 H   0  0  0  0  0  0  0  0  0  0  0  0
    1.3581   -8.7280   -4.9751 H   0  0  0  0  0  0  0  0  0  0  0  0
    2.3471  -10.6500   -3.7300 H   0  0  0  0  0  0  0  0  0  0  0  0
    0.9532  -11.1629   -4.6873 H   0  0  0  0  0  0  0  0  0  0  0  0
    0.7966  -10.9410   -2.9413 H   0  0  0  0  0  0  0  0  0  0  0  0
   -0.4717   -8.5494   -1.7730 H   0  0  0  0  0  0  0  0  0  0  0  0
    0.2904   -7.2649    0.1720 H   0  0  0  0  0  0  0  0  0  0  0  0
    2.2974   -8.5001    1.4239 H   0  0  0  0  0  0  0  0  0  0  0  0
    1.4030   -9.2460    3.5818 H   0  0  0  0  0  0  0  0  0  0  0  0
    0.0164   -8.6840    5.5406 H   0  0  0  0  0  0  0  0  0  0  0  0
   -0.1835   -6.9989    6.0428 H   0  0  0  0  0  0  0  0  0  0  0  0
    1.3042   -8.2180    7.6151 H   0  0  0  0  0  0  0  0  0  0  0  0
    2.3964   -8.6218    6.2864 H   0  0  0  0  0  0  0  0  0  0  0  0
    2.1998   -6.9417    6.7837 H   0  0  0  0  0  0  0  0  0  0  0  0
    0.8577   -5.1850    4.7605 H   0  0  0  0  0  0  0  0  0  0  0  0
    1.7622   -4.4353    2.6133 H   0  0  0  0  0  0  0  0  0  0  0  0
    7.4947   -7.9838    1.8071 H   0  0  0  0  0  0  0  0  0  0  0  0
   11.5277   -4.2286   -1.2592 H   0  0  0  0  0  0  0  0  0  0  0  0
   13.7902   -4.1760   -0.2923 H   0  0  0  0  0  0  0  0  0  0  0  0
  1  2  2  0  0  0  0
  2  3  1  0  0  0  0
  3  4  2  0  0  0  0
  3  5  1  0  0  0  0
  5  6  2  0  0  0  0
  6  7  1  0  0  0  0
  7  8  2  0  0  0  0
  8  9  1  0  0  0  0
  9 10  2  0  0  0  0
 10 11  1  0  0  0  0
 11 12  2  0  0  0  0
 12 13  1  0  0  0  0
 13 14  3  0  0  0  0
 12 15  1  0  0  0  0
 15 16  3  0  0  0  0
  8 17  1  0  0  0  0
 17 18  1  0  0  0  0
 18 19  1  0  0  0  0
 19 20  2  0  0  0  0
 20 21  1  0  0  0  0
 21 22  1  0  0  0  0
 21 23  1  0  0  0  0
  1 24  1  0  0  0  0
 24 25  2  0  0  0  0
 25 26  1  0  0  0  0
 26 27  1  0  0  0  0
 27 28  1  0  0  0  0
 28 29  2  0  0  0  0
 29 30  1  0  0  0  0
 30 31  2  0  0  0  0
 31 32  1  0  0  0  0
 32 33  1  0  0  0  0
 31 34  1  0  0  0  0
 34 35  2  0  0  0  0
 27 36  1  0  0  0  0
 36 37  2  0  0  0  0
 37 38  1  0  0  0  0
 38 39  2  0  0  0  0
 39 40  1  0  0  0  0
 40 41  1  0  0  0  0
 39 42  1  0  0  0  0
 42 43  2  0  0  0  0
 27 44  1  0  0  0  0
 44 45  2  0  0  0  0
 45 46  1  0  0  0  0
 46 47  1  0  0  0  0
 45 48  1  0  0  0  0
 48 49  1  0  0  0  0
 49 50  2  0  0  0  0
 50 51  1  0  0  0  0
 51 52  2  0  0  0  0
 52 53  1  0  0  0  0
 53 54  1  0  0  0  0
 54 55  1  0  0  0  0
 55 56  1  0  0  0  0
 53 57  2  0  0  0  0
 51 58  1  0  0  0  0
 58 59  2  0  0  0  0
 59 60  1  0  0  0  0
 60 61  2  0  0  0  0
 60 62  1  0  0  0  0
 62 63  1  0  0  0  0
 63 64  1  0  0  0  0
 59 65  1  0  0  0  0
 65 66  2  0  0  0  0
 66 67  1  0  0  0  0
 66 68  1  0  0  0  0
 68 69  1  0  0  0  0
 69 70  1  0  0  0  0
 70 71  2  0  0  0  0
 71 72  1  0  0  0  0
 72 73  1  0  0  0  0
 73 74  1  0  0  0  0
 74 75  2  0  0  0  0
 75 76  1  0  0  0  0
 76 77  2  0  0  0  0
 77 78  1  0  0  0  0
 78 79  1  0  0  0  0
 77 80  1  0  0  0  0
 80 81  2  0  0  0  0
 73 82  1  0  0  0  0
 82 83  2  0  0  0  0
 83 84  1  0  0  0  0
 84 85  2  0  0  0  0
 85 86  1  0  0  0  0
 86 87  1  0  0  0  0
 85 88  1  0  0  0  0
 88 89  2  0  0  0  0
 70 90  1  0  0  0  0
 90 91  2  0  0  0  0
 91 92  1  0  0  0  0
 92 93  2  0  0  0  0
 92 94  1  0  0  0  0
 94 95  2  0  0  0  0
 95 96  1  0  0  0  0
 96 97  2  0  0  0  0
 97 98  1  0  0  0  0
 98 99  1  0  0  0  0
 98100  2  0  0  0  0
100101  1  0  0  0  0
 95102  1  0  0  0  0
102103  2  0  0  0  0
103104  1  0  0  0  0
104105  3  0  0  0  0
103106  1  0  0  0  0
106107  3  0  0  0  0
 11  2  1  0  0  0  0
 23 17  1  0  0  0  0
 47 24  1  0  0  0  0
 57 49  1  0  0  0  0
 67 58  1  0  0  0  0
 72 68  2  0  0  0  0
 81 74  1  0  0  0  0
 89 82  1  0  0  0  0
102 91  1  0  0  0  0
 10  5  1  0  0  0  0
 22 18  1  0  0  0  0
 46 26  2  0  0  0  0
 61 50  1  0  0  0  0
 73 65  1  0  0  0  0
100 94  1  0  0  0  0
 23  7  1  0  0  0  0
 35 28  1  0  0  0  0
 43 36  1  0  0  0  0
 57 44  1  0  0  0  0
  1108  1  0  0  0  0
  6109  1  0  0  0  0
  9110  1  0  0  0  0
 17111  1  0  0  0  0
 18112  1  0  0  0  0
 19113  1  0  0  0  0
 20114  1  0  0  0  0
 21115  1  0  0  0  0
 22116  1  0  0  0  0
 22117  1  0  0  0  0
 23118  1  0  0  0  0
 25119  1  0  0  0  0
 29120  1  0  0  0  0
 30121  1  0  0  0  0
 32122  1  0  0  0  0
 32123  1  0  0  0  0
 33124  1  0  0  0  0
 33125  1  0  0  0  0
 33126  1  0  0  0  0
 34127  1  0  0  0  0
 35128  1  0  0  0  0
 37129  1  0  0  0  0
 38130  1  0  0  0  0
 40131  1  0  0  0  0
 40132  1  0  0  0  0
 41133  1  0  0  0  0
 41134  1  0  0  0  0
 41135  1  0  0  0  0
 42136  1  0  0  0  0
 43137  1  0  0  0  0
 52138  1  0  0  0  0
 55139  1  0  0  0  0
 55140  1  0  0  0  0
 56141  1  0  0  0  0
 56142  1  0  0  0  0
 56143  1  0  0  0  0
 61144  1  0  0  0  0
 63145  1  0  0  0  0
 63146  1  0  0  0  0
 64147  1  0  0  0  0
 64148  1  0  0  0  0
 64149  1  0  0  0  0
 71150  1  0  0  0  0
 75151  1  0  0  0  0
 76152  1  0  0  0  0
 78153  1  0  0  0  0
 78154  1  0  0  0  0
 79155  1  0  0  0  0
 79156  1  0  0  0  0
 79157  1  0  0  0  0
 80158  1  0  0  0  0
 81159  1  0  0  0  0
 83160  1  0  0  0  0
 84161  1  0  0  0  0
 86162  1  0  0  0  0
 86163  1  0  0  0  0
 87164  1  0  0  0  0
 87165  1  0  0  0  0
 87166  1  0  0  0  0
 88167  1  0  0  0  0
 89168  1  0  0  0  0
 90169  1  0  0  0  0
 96170  1  0  0  0  0
 97171  1  0  0  0  0
M  END
