177

C         -8.76990       -0.28410       -3.99750
C         -9.83140        0.48800       -3.59800
C         -9.87660        1.33500       -2.40130
O         -9.02470        1.44660       -1.53700
C        -11.16900        2.04090       -2.44210
C        -11.63870        2.98090       -1.52880
C        -12.87830        3.48800       -1.83670
C        -13.59550        3.09140       -2.97270
C        -13.14250        2.16420       -3.88140
C        -11.88520        1.63110       -3.58450
C        -11.08440        0.64290       -4.30770
C        -11.48060       -0.01320       -5.44680
C        -12.72460        0.17130       -6.08470
N        -13.71360        0.26460       -6.66140
C        -10.72830       -0.97510       -6.15110
N        -10.18790       -1.76490       -6.78810
C        -14.75430        4.00410       -2.65790
C        -16.03170        3.36850       -2.05610
C        -15.58970        2.11930       -1.33510
C        -14.91140        2.49190       -0.25810
C        -14.88230        4.00010       -0.23130
C        -16.25070        4.30860       -0.85980
C        -13.95590        4.44420       -1.39040
C         -7.50570       -0.47010       -3.42280
S         -6.92730        0.24080       -1.91400
C         -5.39920       -0.51410       -2.14920
C         -4.13590       -0.61530       -1.57530
S         -3.27780       -0.02520       -0.19110
C         -1.87350       -0.86340       -0.75650
C         -0.52430       -0.93800       -0.29590
C          0.09270       -0.34320        0.80130
C          1.45010       -0.51610        0.93130
C          2.38560        0.04310        2.00100
C          2.08740       -0.65300        3.31820
C          0.88300       -0.41900        3.97440
C          0.58710       -1.05910        5.16210
C          1.47930       -1.95840        5.73170
C          1.17900       -2.61770        7.04630
C          1.73590       -1.78370        8.20200
C          2.67750       -2.19490        5.07390
C          2.97730       -1.55650        3.88370
C          2.27700        1.55750        2.06660
C          2.15670        2.26270        3.25520
C          2.08630        3.64490        3.24780
C          2.14460        4.36020        2.06060
C          2.02400        5.85610        2.05520
C          0.55750        6.27210        1.92210
C          2.27290        3.65100        0.87230
C          2.34000        2.27180        0.87430
C          3.72920       -0.35200        1.43150
C          3.55950       -1.11120        0.28460
C          2.17510       -1.24020       -0.04200
C          1.55370       -1.86040       -1.12290
C          0.19200       -1.71270       -1.23390
C         -0.74090       -2.25420       -2.31380
C         -0.29940       -1.80690       -3.69490
C         -0.30930       -2.64590       -4.80170
C          0.07240       -2.17270       -6.04530
C          0.46740       -0.85420       -6.22050
C          0.83800       -0.33630       -7.57960
C         -0.40210        0.18600       -8.30820
C          0.46240       -0.01420       -5.11370
C          0.08400       -0.48160       -3.87050
C         -0.79610       -3.76070       -2.12920
C          0.27640       -4.55300       -2.52530
C          0.25500       -5.92020       -2.33030
C         -0.83170       -6.54010       -1.72650
C         -0.83550       -8.02090       -1.48160
C         -0.21090       -8.33920       -0.12150
C         -1.88930       -5.74520       -1.30900
C         -1.87250       -4.37510       -1.50350
C         -2.03930       -1.57230       -1.93710
C         -3.34390       -1.43430       -2.42560
N         -4.09660       -1.82600       -3.50130
C         -5.34660       -1.28140       -3.34310
C         -6.53400       -1.25930       -4.04890
C         -3.70680       -2.66750       -4.60360
C         -4.03980       -4.13590       -4.34940
S          5.02330       -1.62420       -0.48610
C          5.91740       -0.79650        0.74930
C          7.23160       -0.53750        1.11580
S          8.85110       -0.82550        0.63300
C          9.44860        0.12670        2.01420
C          8.40780        0.61670        2.79830
C          7.17100        0.25120        2.29980
N          5.86120        0.45160        2.65530
C          5.42660        1.28470        3.74730
C          5.52990        2.76520        3.39080
C          5.08480       -0.16000        1.71220
C         10.83850        0.25090        2.10500
C         11.64980        0.93010        2.98840
C         11.26220        1.77550        4.13140
O         10.15340        2.02560        4.56840
C         12.52220        2.30560        4.69040
C         12.68680        3.14790        5.75100
C         13.99300        3.54110        6.11750
C         14.22330        4.40870        7.20260
C         15.49820        4.77440        7.53190
F         15.71540        5.60130        8.56600
C         16.59520        4.29020        6.79280
F         17.83490        4.66690        7.13850
C         16.40330        3.44630        5.73510
C         15.10130        3.04940        5.36990
C         14.89540        2.17540        4.27730
C         13.61990        1.80550        3.94130
C         13.09770        0.93470        2.88890
C         13.88480        0.25100        1.99500
C         13.45270       -0.62350        0.97600
N         13.21320       -1.35440        0.12180
C         15.29360        0.31860        1.97350
N         16.43920        0.32590        1.89080
H         -8.89340       -0.83290       -4.92340
H        -11.04860        3.26140       -0.67020
H        -13.70690        1.87570       -4.75210
H        -14.98070        4.76150       -3.40590
H        -16.85200        3.25220       -2.75910
H        -15.76060        1.12430       -1.70240
H        -14.40170        1.87030        0.45460
H        -14.65700        4.45910        0.72790
H        -16.37160        5.35280       -1.14500
H        -17.08320        4.00080       -0.22880
H        -13.66310        5.48940       -1.30990
H         -0.48780        0.25410        1.48570
H          0.17160        0.27920        3.56190
H         -0.35460       -0.85850        5.65280
H          0.09960       -2.72640        7.16800
H          1.62840       -3.61240        7.07190
H          1.52090       -2.26230        9.15440
H          2.81360       -1.67310        8.10440
H          1.28870       -0.79200        8.20320
H          3.38830       -2.89260        5.49330
H          3.91600       -1.77540        3.39730
H          2.11300        1.74090        4.19990
H          1.98930        4.17440        4.18490
H          2.43120        6.26390        2.98260
H          2.59280        6.27060        1.22050
H          0.13610        5.88300        0.99800
H          0.46880        7.35580        1.91570
H         -0.02380        5.88060        2.75390
H          2.32360        4.18600       -0.06520
H          2.44180        1.73850       -0.06030
H          2.14060       -2.39980       -1.84930
H         -0.60530       -3.68020       -4.69950
H          0.06340       -2.84420       -6.89200
H          1.56500        0.47220       -7.48190
H          1.29170       -1.13510       -8.16950
H         -0.86580        0.98850       -7.73880
H         -0.13330        0.56730       -9.29030
H         -1.13210       -0.61080       -8.43300
H          0.76180        1.01790       -5.22650
H          0.08730        0.18740       -3.02170
H          1.13360       -4.10070       -3.00060
H          1.09650       -6.51620       -2.65360
H         -1.86020       -8.39740       -1.50380
H         -0.26780       -8.52710       -2.26500
H         -0.77110       -7.85440        0.67490
H         -0.21210       -9.41210        0.05540
H          0.81550       -7.98130       -0.08330
H         -2.74200       -6.20140       -0.82630
H         -2.70760       -3.78440       -1.15630
H         -6.72520       -1.76840       -4.97670
H         -4.23660       -2.31500       -5.49340
H         -2.63480       -2.54410       -4.76740
H         -3.78210       -4.72770       -5.22330
H         -5.10240       -4.25400       -4.14940
H         -3.47840       -4.51160       -3.49720
H          8.58610        1.20980        3.67580
H          4.39490        1.02000        3.98390
H          6.05650        1.06580        4.61460
H          6.56330        3.03210        3.18350
H          4.92580        2.98660        2.51400
H          5.17220        3.37000        4.21870
H         11.35610       -0.28310        1.31720
H         11.83170        3.50950        6.30180
H         13.39350        4.78820        7.77820
H         17.25440        3.08420        5.17980
H         15.75750        1.82400        3.73500
