
  xtb     02022200463D
 energy: -289.389742046853 gnorm: 0.000256274917 xtb: 6.4.1 (unknown)
184206  0     0  0            999 V2000
    4.1803    1.8459   -9.2570 C   0  0  0  0  0  0  0  0  0  0  0  0
    4.6664    0.9042  -10.1286 C   0  0  0  0  0  0  0  0  0  0  0  0
    4.5898   -0.5676  -10.0168 C   0  0  0  0  0  0  0  0  0  0  0  0
    3.8855   -1.2471   -9.2936 O   0  0  0  0  0  0  0  0  0  0  0  0
    5.5974   -1.0941  -10.9577 C   0  0  0  0  0  0  0  0  0  0  0  0
    5.9520   -2.4295  -11.1328 C   0  0  0  0  0  0  0  0  0  0  0  0
    6.9387   -2.6278  -12.0680 C   0  0  0  0  0  0  0  0  0  0  0  0
    7.5349   -1.5743  -12.7735 C   0  0  0  0  0  0  0  0  0  0  0  0
    7.1933   -0.2526  -12.6108 C   0  0  0  0  0  0  0  0  0  0  0  0
    6.1855   -0.0306  -11.6685 C   0  0  0  0  0  0  0  0  0  0  0  0
    5.5640    1.2143  -11.2255 C   0  0  0  0  0  0  0  0  0  0  0  0
    5.7404    2.4423  -11.8102 C   0  0  0  0  0  0  0  0  0  0  0  0
    5.0447    3.6186  -11.4593 C   0  0  0  0  0  0  0  0  0  0  0  0
    4.5043    4.6121  -11.2576 N   0  0  0  0  0  0  0  0  0  0  0  0
    6.6078    2.6897  -12.8936 C   0  0  0  0  0  0  0  0  0  0  0  0
    7.2966    2.9631  -13.7710 N   0  0  0  0  0  0  0  0  0  0  0  0
    8.4457   -2.4990  -13.5419 C   0  0  0  0  0  0  0  0  0  0  0  0
    8.0780   -2.8146  -15.0127 C   0  0  0  0  0  0  0  0  0  0  0  0
    6.5827   -2.6500  -15.1248 C   0  0  0  0  0  0  0  0  0  0  0  0
    6.0148   -3.6471  -14.4596 C   0  0  0  0  0  0  0  0  0  0  0  0
    7.1159   -4.5037  -13.8854 C   0  0  0  0  0  0  0  0  0  0  0  0
    8.1804   -4.3480  -14.9831 C   0  0  0  0  0  0  0  0  0  0  0  0
    7.7785   -3.6732  -12.7584 C   0  0  0  0  0  0  0  0  0  0  0  0
    3.3111    1.7006   -8.1641 C   0  0  0  0  0  0  0  0  0  0  0  0
    3.2731    3.0392   -6.9970 S   0  0  0  0  0  0  0  0  0  0  0  0
    2.1701    2.1661   -6.0130 C   0  0  0  0  0  0  0  0  0  0  0  0
    1.4973    2.2309   -4.7985 C   0  0  0  0  0  0  0  0  0  0  0  0
    1.3508    3.2795   -3.4257 S   0  0  0  0  0  0  0  0  0  0  0  0
    0.3216    2.0994   -2.6851 C   0  0  0  0  0  0  0  0  0  0  0  0
   -0.2941    1.9999   -1.3994 C   0  0  0  0  0  0  0  0  0  0  0  0
   -0.2544    2.8550   -0.3013 C   0  0  0  0  0  0  0  0  0  0  0  0
   -0.8628    2.4221    0.8529 C   0  0  0  0  0  0  0  0  0  0  0  0
   -0.9405    3.1218    2.2075 C   0  0  0  0  0  0  0  0  0  0  0  0
   -1.8854    4.2989    2.0394 C   0  0  0  0  0  0  0  0  0  0  0  0
   -3.1971    4.2448    2.4919 C   0  0  0  0  0  0  0  0  0  0  0  0
   -4.0567    5.3117    2.2975 C   0  0  0  0  0  0  0  0  0  0  0  0
   -3.6370    6.4574    1.6374 C   0  0  0  0  0  0  0  0  0  0  0  0
   -4.5543    7.6345    1.4769 C   0  0  0  0  0  0  0  0  0  0  0  0
   -4.4261    8.5770    2.6756 C   0  0  0  0  0  0  0  0  0  0  0  0
   -2.3305    6.5013    1.1673 C   0  0  0  0  0  0  0  0  0  0  0  0
   -1.4695    5.4382    1.3584 C   0  0  0  0  0  0  0  0  0  0  0  0
    0.4409    3.4936    2.7115 C   0  0  0  0  0  0  0  0  0  0  0  0
    0.7234    4.7098    3.3200 C   0  0  0  0  0  0  0  0  0  0  0  0
    1.9964    4.9800    3.7922 C   0  0  0  0  0  0  0  0  0  0  0  0
    3.0158    4.0454    3.6805 C   0  0  0  0  0  0  0  0  0  0  0  0
    4.4055    4.3631    4.1502 C   0  0  0  0  0  0  0  0  0  0  0  0
    5.2089    5.0240    3.0281 C   0  0  0  0  0  0  0  0  0  0  0  0
    2.7267    2.8262    3.0801 C   0  0  0  0  0  0  0  0  0  0  0  0
    1.4589    2.5520    2.6059 C   0  0  0  0  0  0  0  0  0  0  0  0
   -1.5320    2.0212    3.0627 C   0  0  0  0  0  0  0  0  0  0  0  0
   -1.8673    0.9361    2.2666 C   0  0  0  0  0  0  0  0  0  0  0  0
   -1.4839    1.1556    0.9087 C   0  0  0  0  0  0  0  0  0  0  0  0
   -1.5699    0.3234   -0.2041 C   0  0  0  0  0  0  0  0  0  0  0  0
   -0.9710    0.7608   -1.3605 C   0  0  0  0  0  0  0  0  0  0  0  0
   -0.8583    0.0385   -2.6994 C   0  0  0  0  0  0  0  0  0  0  0  0
   -2.1937    0.0657   -3.4345 C   0  0  0  0  0  0  0  0  0  0  0  0
   -2.6361   -0.9819   -4.2306 C   0  0  0  0  0  0  0  0  0  0  0  0
   -3.8265   -0.8838   -4.9293 C   0  0  0  0  0  0  0  0  0  0  0  0
   -4.6084    0.2598   -4.8578 C   0  0  0  0  0  0  0  0  0  0  0  0
   -5.8751    0.3800   -5.6542 C   0  0  0  0  0  0  0  0  0  0  0  0
   -5.5801    0.9496   -7.0434 C   0  0  0  0  0  0  0  0  0  0  0  0
   -4.1606    1.3094   -4.0661 C   0  0  0  0  0  0  0  0  0  0  0  0
   -2.9727    1.2162   -3.3681 C   0  0  0  0  0  0  0  0  0  0  0  0
   -0.2997   -1.3419   -2.4379 C   0  0  0  0  0  0  0  0  0  0  0  0
   -1.1287   -2.3728   -2.0083 C   0  0  0  0  0  0  0  0  0  0  0  0
   -0.6083   -3.6185   -1.7144 C   0  0  0  0  0  0  0  0  0  0  0  0
    0.7529   -3.8702   -1.8277 C   0  0  0  0  0  0  0  0  0  0  0  0
    1.3184   -5.2133   -1.4682 C   0  0  0  0  0  0  0  0  0  0  0  0
    1.6616   -5.2654    0.0219 C   0  0  0  0  0  0  0  0  0  0  0  0
    1.5817   -2.8307   -2.2255 C   0  0  0  0  0  0  0  0  0  0  0  0
    1.0651   -1.5825   -2.5225 C   0  0  0  0  0  0  0  0  0  0  0  0
    0.0775    0.9665   -3.4449 C   0  0  0  0  0  0  0  0  0  0  0  0
    0.7521    1.0261   -4.6704 C   0  0  0  0  0  0  0  0  0  0  0  0
    0.9518    0.2488   -5.7776 N   0  0  0  0  0  0  0  0  0  0  0  0
    1.8211    0.9207   -6.5980 C   0  0  0  0  0  0  0  0  0  0  0  0
    2.4538    0.6702   -7.8062 C   0  0  0  0  0  0  0  0  0  0  0  0
    0.4552   -1.0804   -6.0311 C   0  0  0  0  0  0  0  0  0  0  0  0
    1.5642   -2.1282   -5.9765 C   0  0  0  0  0  0  0  0  0  0  0  0
   -2.5388   -0.4196    3.1058 S   0  0  0  0  0  0  0  0  0  0  0  0
   -2.3638    0.4632    4.5864 C   0  0  0  0  0  0  0  0  0  0  0  0
   -2.5718    0.2793    5.9495 C   0  0  0  0  0  0  0  0  0  0  0  0
   -3.0937   -0.9054    7.0824 S   0  0  0  0  0  0  0  0  0  0  0  0
   -2.7564    0.2158    8.4040 C   0  0  0  0  0  0  0  0  0  0  0  0
   -2.2696    1.4469    7.9490 C   0  0  0  0  0  0  0  0  0  0  0  0
   -2.1505    1.4838    6.5735 C   0  0  0  0  0  0  0  0  0  0  0  0
   -1.6914    2.3697    5.6309 N   0  0  0  0  0  0  0  0  0  0  0  0
   -1.2025    3.6926    5.9236 C   0  0  0  0  0  0  0  0  0  0  0  0
   -2.3243    4.7288    5.9358 C   0  0  0  0  0  0  0  0  0  0  0  0
   -1.8160    1.7629    4.4087 C   0  0  0  0  0  0  0  0  0  0  0  0
   -2.9083   -0.0440    9.7717 C   0  0  0  0  0  0  0  0  0  0  0  0
   -3.2668   -1.1929   10.4312 C   0  0  0  0  0  0  0  0  0  0  0  0
   -3.5757   -2.4834    9.8066 C   0  0  0  0  0  0  0  0  0  0  0  0
   -3.6745   -2.7297    8.6171 O   0  0  0  0  0  0  0  0  0  0  0  0
   -3.7422   -3.4469   10.9094 C   0  0  0  0  0  0  0  0  0  0  0  0
   -3.9908   -4.8122   10.7988 C   0  0  0  0  0  0  0  0  0  0  0  0
   -4.0711   -5.4649   12.0056 C   0  0  0  0  0  0  0  0  0  0  0  0
   -3.9117   -4.8074   13.2321 C   0  0  0  0  0  0  0  0  0  0  0  0
   -3.6683   -3.4596   13.3542 C   0  0  0  0  0  0  0  0  0  0  0  0
   -3.5878   -2.7753   12.1385 C   0  0  0  0  0  0  0  0  0  0  0  0
   -3.3319   -1.3604   11.8677 C   0  0  0  0  0  0  0  0  0  0  0  0
   -3.2041   -0.3835   12.8240 C   0  0  0  0  0  0  0  0  0  0  0  0
   -2.9808    0.9866   12.5791 C   0  0  0  0  0  0  0  0  0  0  0  0
   -2.8022    2.1174   12.4741 N   0  0  0  0  0  0  0  0  0  0  0  0
   -3.2988   -0.6070   14.2129 C   0  0  0  0  0  0  0  0  0  0  0  0
   -3.3640   -0.7067   15.3554 N   0  0  0  0  0  0  0  0  0  0  0  0
   -4.1103   -6.0734   14.0277 C   0  0  0  0  0  0  0  0  0  0  0  0
   -5.4805   -6.2861   14.7167 C   0  0  0  0  0  0  0  0  0  0  0  0
   -6.4901   -5.5073   13.9106 C   0  0  0  0  0  0  0  0  0  0  0  0
   -6.6455   -6.1275   12.7486 C   0  0  0  0  0  0  0  0  0  0  0  0
   -5.7440   -7.3372   12.7481 C   0  0  0  0  0  0  0  0  0  0  0  0
   -5.7937   -7.7127   14.2377 C   0  0  0  0  0  0  0  0  0  0  0  0
   -4.2920   -6.8054   12.6606 C   0  0  0  0  0  0  0  0  0  0  0  0
    4.5656    2.8526   -9.3736 H   0  0  0  0  0  0  0  0  0  0  0  0
    5.4716   -3.2095  -10.5629 H   0  0  0  0  0  0  0  0  0  0  0  0
    7.6670    0.5475  -13.1546 H   0  0  0  0  0  0  0  0  0  0  0  0
    9.5134   -2.3379  -13.4064 H   0  0  0  0  0  0  0  0  0  0  0  0
    8.6755   -2.2862  -15.7506 H   0  0  0  0  0  0  0  0  0  0  0  0
    6.1070   -1.8188  -15.6115 H   0  0  0  0  0  0  0  0  0  0  0  0
    4.9691   -3.8154  -14.2793 H   0  0  0  0  0  0  0  0  0  0  0  0
    6.8377   -5.5143  -13.5975 H   0  0  0  0  0  0  0  0  0  0  0  0
    7.8850   -4.8083  -15.9248 H   0  0  0  0  0  0  0  0  0  0  0  0
    9.1640   -4.7116  -14.6883 H   0  0  0  0  0  0  0  0  0  0  0  0
    8.4112   -4.2801  -12.1134 H   0  0  0  0  0  0  0  0  0  0  0  0
    0.2697    3.7956   -0.3640 H   0  0  0  0  0  0  0  0  0  0  0  0
   -3.5610    3.3612    2.9955 H   0  0  0  0  0  0  0  0  0  0  0  0
   -5.0717    5.2477    2.6635 H   0  0  0  0  0  0  0  0  0  0  0  0
   -4.3039    8.1777    0.5636 H   0  0  0  0  0  0  0  0  0  0  0  0
   -5.5876    7.2908    1.3987 H   0  0  0  0  0  0  0  0  0  0  0  0
   -5.0914    9.4296    2.5620 H   0  0  0  0  0  0  0  0  0  0  0  0
   -4.6825    8.0565    3.5958 H   0  0  0  0  0  0  0  0  0  0  0  0
   -3.4052    8.9425    2.7622 H   0  0  0  0  0  0  0  0  0  0  0  0
   -1.9831    7.3782    0.6396 H   0  0  0  0  0  0  0  0  0  0  0  0
   -0.4605    5.5006    0.9799 H   0  0  0  0  0  0  0  0  0  0  0  0
   -0.0475    5.4600    3.4231 H   0  0  0  0  0  0  0  0  0  0  0  0
    2.1957    5.9340    4.2596 H   0  0  0  0  0  0  0  0  0  0  0  0
    4.3621    5.0382    5.0073 H   0  0  0  0  0  0  0  0  0  0  0  0
    4.9096    3.4462    4.4619 H   0  0  0  0  0  0  0  0  0  0  0  0
    6.2168    5.2529    3.3658 H   0  0  0  0  0  0  0  0  0  0  0  0
    4.7295    5.9483    2.7133 H   0  0  0  0  0  0  0  0  0  0  0  0
    5.2720    4.3618    2.1676 H   0  0  0  0  0  0  0  0  0  0  0  0
    3.5034    2.0811    2.9851 H   0  0  0  0  0  0  0  0  0  0  0  0
    1.2533    1.5963    2.1452 H   0  0  0  0  0  0  0  0  0  0  0  0
   -2.0601   -0.6345   -0.1327 H   0  0  0  0  0  0  0  0  0  0  0  0
   -2.0664   -1.8971   -4.3025 H   0  0  0  0  0  0  0  0  0  0  0  0
   -4.1511   -1.7155   -5.5385 H   0  0  0  0  0  0  0  0  0  0  0  0
   -6.3419   -0.6014   -5.7595 H   0  0  0  0  0  0  0  0  0  0  0  0
   -6.5757    1.0385   -5.1370 H   0  0  0  0  0  0  0  0  0  0  0  0
   -4.8964    0.2978   -7.5828 H   0  0  0  0  0  0  0  0  0  0  0  0
   -6.4979    1.0432   -7.6190 H   0  0  0  0  0  0  0  0  0  0  0  0
   -5.1206    1.9320   -6.9595 H   0  0  0  0  0  0  0  0  0  0  0  0
   -4.7497    2.2124   -3.9932 H   0  0  0  0  0  0  0  0  0  0  0  0
   -2.6485    2.0493   -2.7618 H   0  0  0  0  0  0  0  0  0  0  0  0
   -2.1910   -2.2040   -1.9088 H   0  0  0  0  0  0  0  0  0  0  0  0
   -1.2710   -4.4083   -1.3902 H   0  0  0  0  0  0  0  0  0  0  0  0
    2.2207   -5.4042   -2.0528 H   0  0  0  0  0  0  0  0  0  0  0  0
    0.5908   -5.9947   -1.6970 H   0  0  0  0  0  0  0  0  0  0  0  0
    2.0698   -6.2384    0.2847 H   0  0  0  0  0  0  0  0  0  0  0  0
    0.7718   -5.0878    0.6217 H   0  0  0  0  0  0  0  0  0  0  0  0
    2.3964   -4.5018    0.2676 H   0  0  0  0  0  0  0  0  0  0  0  0
    2.6469   -2.9984   -2.3032 H   0  0  0  0  0  0  0  0  0  0  0  0
    1.7333   -0.7857   -2.8161 H   0  0  0  0  0  0  0  0  0  0  0  0
    2.3235   -0.2056   -8.4114 H   0  0  0  0  0  0  0  0  0  0  0  0
   -0.3013   -1.2960   -5.2777 H   0  0  0  0  0  0  0  0  0  0  0  0
   -0.0177   -1.0922   -7.0190 H   0  0  0  0  0  0  0  0  0  0  0  0
    2.0330   -2.1310   -4.9960 H   0  0  0  0  0  0  0  0  0  0  0  0
    1.1411   -3.1123   -6.1584 H   0  0  0  0  0  0  0  0  0  0  0  0
    2.3226   -1.9314   -6.7294 H   0  0  0  0  0  0  0  0  0  0  0  0
   -2.0181    2.2444    8.6253 H   0  0  0  0  0  0  0  0  0  0  0  0
   -0.4516    3.9558    5.1762 H   0  0  0  0  0  0  0  0  0  0  0  0
   -0.7185    3.6572    6.9037 H   0  0  0  0  0  0  0  0  0  0  0  0
   -3.0889    4.4507    6.6576 H   0  0  0  0  0  0  0  0  0  0  0  0
   -2.7813    4.8058    4.9519 H   0  0  0  0  0  0  0  0  0  0  0  0
   -1.9233    5.7007    6.2098 H   0  0  0  0  0  0  0  0  0  0  0  0
   -2.6615    0.8103   10.3905 H   0  0  0  0  0  0  0  0  0  0  0  0
   -4.0992   -5.2788    9.8322 H   0  0  0  0  0  0  0  0  0  0  0  0
   -3.5429   -2.9720   14.3064 H   0  0  0  0  0  0  0  0  0  0  0  0
   -3.2768   -6.3741   14.6595 H   0  0  0  0  0  0  0  0  0  0  0  0
   -5.4797   -6.1058   15.7883 H   0  0  0  0  0  0  0  0  0  0  0  0
   -6.9294   -4.5822   14.2349 H   0  0  0  0  0  0  0  0  0  0  0  0
   -7.2408   -5.8239   11.9074 H   0  0  0  0  0  0  0  0  0  0  0  0
   -5.9842   -8.1147   12.0275 H   0  0  0  0  0  0  0  0  0  0  0  0
   -5.0387   -8.4428   14.5265 H   0  0  0  0  0  0  0  0  0  0  0  0
   -6.7777   -8.0567   14.5531 H   0  0  0  0  0  0  0  0  0  0  0  0
   -3.5795   -7.5865   12.4020 H   0  0  0  0  0  0  0  0  0  0  0  0
  1  2  2  0  0  0  0
  2  3  1  0  0  0  0
  3  4  2  0  0  0  0
  3  5  1  0  0  0  0
  5  6  2  0  0  0  0
  6  7  1  0  0  0  0
  7  8  2  0  0  0  0
  8  9  1  0  0  0  0
  9 10  2  0  0  0  0
 10 11  1  0  0  0  0
 11 12  2  0  0  0  0
 12 13  1  0  0  0  0
 13 14  3  0  0  0  0
 12 15  1  0  0  0  0
 15 16  3  0  0  0  0
  8 17  1  0  0  0  0
 17 18  1  0  0  0  0
 18 19  1  0  0  0  0
 19 20  2  0  0  0  0
 20 21  1  0  0  0  0
 21 22  1  0  0  0  0
 21 23  1  0  0  0  0
  1 24  1  0  0  0  0
 24 25  1  0  0  0  0
 25 26  1  0  0  0  0
 26 27  1  0  0  0  0
 27 28  1  0  0  0  0
 28 29  1  0  0  0  0
 29 30  1  0  0  0  0
 30 31  2  0  0  0  0
 31 32  1  0  0  0  0
 32 33  1  0  0  0  0
 33 34  1  0  0  0  0
 34 35  2  0  0  0  0
 35 36  1  0  0  0  0
 36 37  2  0  0  0  0
 37 38  1  0  0  0  0
 38 39  1  0  0  0  0
 37 40  1  0  0  0  0
 40 41  2  0  0  0  0
 33 42  1  0  0  0  0
 42 43  2  0  0  0  0
 43 44  1  0  0  0  0
 44 45  2  0  0  0  0
 45 46  1  0  0  0  0
 46 47  1  0  0  0  0
 45 48  1  0  0  0  0
 48 49  2  0  0  0  0
 33 50  1  0  0  0  0
 50 51  2  0  0  0  0
 51 52  1  0  0  0  0
 52 53  1  0  0  0  0
 53 54  2  0  0  0  0
 54 55  1  0  0  0  0
 55 56  1  0  0  0  0
 56 57  2  0  0  0  0
 57 58  1  0  0  0  0
 58 59  2  0  0  0  0
 59 60  1  0  0  0  0
 60 61  1  0  0  0  0
 59 62  1  0  0  0  0
 62 63  2  0  0  0  0
 55 64  1  0  0  0  0
 64 65  2  0  0  0  0
 65 66  1  0  0  0  0
 66 67  2  0  0  0  0
 67 68  1  0  0  0  0
 68 69  1  0  0  0  0
 67 70  1  0  0  0  0
 70 71  2  0  0  0  0
 55 72  1  0  0  0  0
 72 73  1  0  0  0  0
 73 74  1  0  0  0  0
 74 75  1  0  0  0  0
 75 76  1  0  0  0  0
 74 77  1  0  0  0  0
 77 78  1  0  0  0  0
 51 79  1  0  0  0  0
 79 80  1  0  0  0  0
 80 81  1  0  0  0  0
 81 82  1  0  0  0  0
 82 83  1  0  0  0  0
 83 84  2  0  0  0  0
 84 85  1  0  0  0  0
 85 86  1  0  0  0  0
 86 87  1  0  0  0  0
 87 88  1  0  0  0  0
 86 89  1  0  0  0  0
 83 90  1  0  0  0  0
 90 91  2  0  0  0  0
 91 92  1  0  0  0  0
 92 93  2  0  0  0  0
 92 94  1  0  0  0  0
 94 95  2  0  0  0  0
 95 96  1  0  0  0  0
 96 97  2  0  0  0  0
 97 98  1  0  0  0  0
 98 99  2  0  0  0  0
 99100  1  0  0  0  0
100101  2  0  0  0  0
101102  1  0  0  0  0
102103  3  0  0  0  0
101104  1  0  0  0  0
104105  3  0  0  0  0
 97106  1  0  0  0  0
106107  1  0  0  0  0
107108  1  0  0  0  0
108109  2  0  0  0  0
109110  1  0  0  0  0
110111  1  0  0  0  0
110112  1  0  0  0  0
 11  2  1  0  0  0  0
 23 17  1  0  0  0  0
 76 24  2  0  0  0  0
 89 80  2  0  0  0  0
100 91  1  0  0  0  0
112106  1  0  0  0  0
 10  5  1  0  0  0  0
 22 18  1  0  0  0  0
 75 26  2  0  0  0  0
 85 81  2  0  0  0  0
 99 94  1  0  0  0  0
111107  1  0  0  0  0
 23  7  1  0  0  0  0
 73 27  2  0  0  0  0
112 96  1  0  0  0  0
 72 29  2  0  0  0  0
 54 30  1  0  0  0  0
 63 56  1  0  0  0  0
 71 64  1  0  0  0  0
 52 32  2  0  0  0  0
 41 34  1  0  0  0  0
 49 42  1  0  0  0  0
 89 50  1  0  0  0  0
  1113  1  0  0  0  0
  6114  1  0  0  0  0
  9115  1  0  0  0  0
 17116  1  0  0  0  0
 18117  1  0  0  0  0
 19118  1  0  0  0  0
 20119  1  0  0  0  0
 21120  1  0  0  0  0
 22121  1  0  0  0  0
 22122  1  0  0  0  0
 23123  1  0  0  0  0
 31124  1  0  0  0  0
 35125  1  0  0  0  0
 36126  1  0  0  0  0
 38127  1  0  0  0  0
 38128  1  0  0  0  0
 39129  1  0  0  0  0
 39130  1  0  0  0  0
 39131  1  0  0  0  0
 40132  1  0  0  0  0
 41133  1  0  0  0  0
 43134  1  0  0  0  0
 44135  1  0  0  0  0
 46136  1  0  0  0  0
 46137  1  0  0  0  0
 47138  1  0  0  0  0
 47139  1  0  0  0  0
 47140  1  0  0  0  0
 48141  1  0  0  0  0
 49142  1  0  0  0  0
 53143  1  0  0  0  0
 57144  1  0  0  0  0
 58145  1  0  0  0  0
 60146  1  0  0  0  0
 60147  1  0  0  0  0
 61148  1  0  0  0  0
 61149  1  0  0  0  0
 61150  1  0  0  0  0
 62151  1  0  0  0  0
 63152  1  0  0  0  0
 65153  1  0  0  0  0
 66154  1  0  0  0  0
 68155  1  0  0  0  0
 68156  1  0  0  0  0
 69157  1  0  0  0  0
 69158  1  0  0  0  0
 69159  1  0  0  0  0
 70160  1  0  0  0  0
 71161  1  0  0  0  0
 76162  1  0  0  0  0
 77163  1  0  0  0  0
 77164  1  0  0  0  0
 78165  1  0  0  0  0
 78166  1  0  0  0  0
 78167  1  0  0  0  0
 84168  1  0  0  0  0
 87169  1  0  0  0  0
 87170  1  0  0  0  0
 88171  1  0  0  0  0
 88172  1  0  0  0  0
 88173  1  0  0  0  0
 90174  1  0  0  0  0
 95175  1  0  0  0  0
 98176  1  0  0  0  0
106177  1  0  0  0  0
107178  1  0  0  0  0
108179  1  0  0  0  0
109180  1  0  0  0  0
110181  1  0  0  0  0
111182  1  0  0  0  0
111183  1  0  0  0  0
112184  1  0  0  0  0
M  END
