
  xtb     02012219173D
 energy: -261.017633397397 gnorm: 0.000479225367 xtb: 6.4.1 (unknown)
163181  0     0  0            999 V2000
   -5.4611   -3.2091   -1.9797 C   0  0  0  0  0  0  0  0  0  0  0  0
   -5.8355   -2.6442   -3.1697 C   0  0  0  0  0  0  0  0  0  0  0  0
   -5.1200   -1.5773   -3.8825 C   0  0  0  0  0  0  0  0  0  0  0  0
   -4.0148   -1.1288   -3.6340 O   0  0  0  0  0  0  0  0  0  0  0  0
   -6.0121   -1.1394   -4.9699 C   0  0  0  0  0  0  0  0  0  0  0  0
   -5.7913   -0.0958   -5.8661 C   0  0  0  0  0  0  0  0  0  0  0  0
   -6.8228    0.1083   -6.7508 C   0  0  0  0  0  0  0  0  0  0  0  0
   -7.9869   -0.6717   -6.7480 C   0  0  0  0  0  0  0  0  0  0  0  0
   -8.2121   -1.7114   -5.8772 C   0  0  0  0  0  0  0  0  0  0  0  0
   -7.1763   -1.9339   -4.9646 C   0  0  0  0  0  0  0  0  0  0  0  0
   -7.0640   -2.9186   -3.8899 C   0  0  0  0  0  0  0  0  0  0  0  0
   -7.9523   -3.9353   -3.6493 C   0  0  0  0  0  0  0  0  0  0  0  0
   -9.1256   -4.1644   -4.3979 C   0  0  0  0  0  0  0  0  0  0  0  0
  -10.0952   -4.4122   -4.9610 N   0  0  0  0  0  0  0  0  0  0  0  0
   -7.8222   -4.9194   -2.6472 C   0  0  0  0  0  0  0  0  0  0  0  0
   -7.7885   -5.7627   -1.8674 N   0  0  0  0  0  0  0  0  0  0  0  0
   -8.6067    0.1049   -7.8827 C   0  0  0  0  0  0  0  0  0  0  0  0
   -9.6986    1.1265   -7.4995 C   0  0  0  0  0  0  0  0  0  0  0  0
   -9.7687    2.0469   -8.6966 C   0  0  0  0  0  0  0  0  0  0  0  0
   -8.6655    2.7843   -8.7036 C   0  0  0  0  0  0  0  0  0  0  0  0
   -7.8316    2.3751   -7.5109 C   0  0  0  0  0  0  0  0  0  0  0  0
   -8.9471    2.0321   -6.5150 C   0  0  0  0  0  0  0  0  0  0  0  0
   -7.3076    0.9730   -7.8882 C   0  0  0  0  0  0  0  0  0  0  0  0
   -4.3366   -2.9699   -1.1739 C   0  0  0  0  0  0  0  0  0  0  0  0
   -2.9907   -1.9170   -1.5283 S   0  0  0  0  0  0  0  0  0  0  0  0
   -2.2814   -2.2748    0.0044 C   0  0  0  0  0  0  0  0  0  0  0  0
   -1.1186   -1.6275    0.5193 C   0  0  0  0  0  0  0  0  0  0  0  0
   -0.8656   -1.7528    1.9240 C   0  0  0  0  0  0  0  0  0  0  0  0
    0.1178   -0.9189    2.5069 C   0  0  0  0  0  0  0  0  0  0  0  0
    0.3273   -1.0097    3.8919 C   0  0  0  0  0  0  0  0  0  0  0  0
   -0.3997   -1.8875    4.6559 C   0  0  0  0  0  0  0  0  0  0  0  0
   -1.3480   -2.7225    4.0710 C   0  0  0  0  0  0  0  0  0  0  0  0
   -1.5894   -2.6695    2.7152 C   0  0  0  0  0  0  0  0  0  0  0  0
   -2.5516   -3.6637    2.0877 C   0  0  0  0  0  0  0  0  0  0  0  0
   -3.0379   -3.1660    0.7521 C   0  0  0  0  0  0  0  0  0  0  0  0
   -4.1854   -3.5601    0.0816 C   0  0  0  0  0  0  0  0  0  0  0  0
   -1.8205   -4.9711    1.7698 C   0  0  0  0  0  0  0  0  0  0  0  0
   -0.4420   -5.0923    1.8690 C   0  0  0  0  0  0  0  0  0  0  0  0
    0.1866   -6.2791    1.5340 C   0  0  0  0  0  0  0  0  0  0  0  0
   -0.5377   -7.3751    1.0895 C   0  0  0  0  0  0  0  0  0  0  0  0
    0.1517   -8.6463    0.6858 C   0  0  0  0  0  0  0  0  0  0  0  0
    0.4829   -8.6231   -0.8078 C   0  0  0  0  0  0  0  0  0  0  0  0
   -1.9169   -7.2478    0.9814 C   0  0  0  0  0  0  0  0  0  0  0  0
   -2.5478   -6.0650    1.3118 C   0  0  0  0  0  0  0  0  0  0  0  0
   -3.7277   -3.8696    3.0281 C   0  0  0  0  0  0  0  0  0  0  0  0
   -3.8331   -4.9725    3.8643 C   0  0  0  0  0  0  0  0  0  0  0  0
   -4.9081   -5.1006    4.7255 C   0  0  0  0  0  0  0  0  0  0  0  0
   -5.8983   -4.1298    4.7844 C   0  0  0  0  0  0  0  0  0  0  0  0
   -7.0915   -4.2994    5.6793 C   0  0  0  0  0  0  0  0  0  0  0  0
   -8.2169   -5.0204    4.9343 C   0  0  0  0  0  0  0  0  0  0  0  0
   -5.7779   -3.0166    3.9624 C   0  0  0  0  0  0  0  0  0  0  0  0
   -4.7056   -2.8845    3.1018 C   0  0  0  0  0  0  0  0  0  0  0  0
    0.8971   -0.0426    1.6670 C   0  0  0  0  0  0  0  0  0  0  0  0
    1.7731    0.9120    2.2084 C   0  0  0  0  0  0  0  0  0  0  0  0
    2.5822    1.6917    1.4160 C   0  0  0  0  0  0  0  0  0  0  0  0
    3.3535    2.7683    1.9450 C   0  0  0  0  0  0  0  0  0  0  0  0
    4.2721    3.4780    1.1795 C   0  0  0  0  0  0  0  0  0  0  0  0
    4.6782    2.9849   -0.1838 C   0  0  0  0  0  0  0  0  0  0  0  0
    5.0134    4.1531   -1.0950 C   0  0  0  0  0  0  0  0  0  0  0  0
    6.1097    4.1422   -1.9465 C   0  0  0  0  0  0  0  0  0  0  0  0
    6.3586    5.2141   -2.7844 C   0  0  0  0  0  0  0  0  0  0  0  0
    5.5182    6.3188   -2.8027 C   0  0  0  0  0  0  0  0  0  0  0  0
    5.8241    7.5022   -3.6739 C   0  0  0  0  0  0  0  0  0  0  0  0
    6.7371    8.4838   -2.9362 C   0  0  0  0  0  0  0  0  0  0  0  0
    4.4113    6.3176   -1.9637 C   0  0  0  0  0  0  0  0  0  0  0  0
    4.1577    5.2479   -1.1271 C   0  0  0  0  0  0  0  0  0  0  0  0
    5.8947    2.0929    0.0845 C   0  0  0  0  0  0  0  0  0  0  0  0
    7.0601    2.6688    0.5804 C   0  0  0  0  0  0  0  0  0  0  0  0
    8.1643    1.8942    0.8741 C   0  0  0  0  0  0  0  0  0  0  0  0
    8.1380    0.5170    0.6925 C   0  0  0  0  0  0  0  0  0  0  0  0
    9.3532   -0.3185    0.9735 C   0  0  0  0  0  0  0  0  0  0  0  0
   10.2542   -0.3831   -0.2614 C   0  0  0  0  0  0  0  0  0  0  0  0
    6.9741   -0.0552    0.2012 C   0  0  0  0  0  0  0  0  0  0  0  0
    5.8650    0.7180   -0.0964 C   0  0  0  0  0  0  0  0  0  0  0  0
    3.5623    2.1665   -0.8087 C   0  0  0  0  0  0  0  0  0  0  0  0
    3.5261    1.9922   -2.1750 C   0  0  0  0  0  0  0  0  0  0  0  0
    2.5729    1.1616   -2.7586 C   0  0  0  0  0  0  0  0  0  0  0  0
    1.6657    0.4846   -1.9834 C   0  0  0  0  0  0  0  0  0  0  0  0
    1.6628    0.6310   -0.5870 C   0  0  0  0  0  0  0  0  0  0  0  0
    0.7559   -0.1028    0.2605 C   0  0  0  0  0  0  0  0  0  0  0  0
   -0.3032   -0.8552   -0.2723 C   0  0  0  0  0  0  0  0  0  0  0  0
    2.6165    1.4976   -0.0038 C   0  0  0  0  0  0  0  0  0  0  0  0
    4.7886    4.5633    1.8650 C   0  0  0  0  0  0  0  0  0  0  0  0
    4.2832    4.7077    3.1607 C   0  0  0  0  0  0  0  0  0  0  0  0
    3.1454    3.4322    3.5239 S   0  0  0  0  0  0  0  0  0  0  0  0
    4.6548    5.7760    3.9852 C   0  0  0  0  0  0  0  0  0  0  0  0
    4.2518    6.1070    5.2561 C   0  0  0  0  0  0  0  0  0  0  0  0
    3.3108    5.3442    6.0846 C   0  0  0  0  0  0  0  0  0  0  0  0
    2.7543    4.2960    5.8096 O   0  0  0  0  0  0  0  0  0  0  0  0
    3.1691    6.1024    7.3416 C   0  0  0  0  0  0  0  0  0  0  0  0
    2.3885    5.8171    8.4451 C   0  0  0  0  0  0  0  0  0  0  0  0
    2.4136    6.6928    9.5189 C   0  0  0  0  0  0  0  0  0  0  0  0
    3.2149    7.8272    9.4652 C   0  0  0  0  0  0  0  0  0  0  0  0
    3.2321    8.9062   10.8084 Cl  0  0  0  0  0  0  0  0  0  0  0  0
    4.0069    8.1248    8.3597 C   0  0  0  0  0  0  0  0  0  0  0  0
    3.9801    7.2490    7.2882 C   0  0  0  0  0  0  0  0  0  0  0  0
    4.6761    7.2749    5.9991 C   0  0  0  0  0  0  0  0  0  0  0  0
    5.5586    8.2468    5.6021 C   0  0  0  0  0  0  0  0  0  0  0  0
    5.9219    9.3593    6.3902 C   0  0  0  0  0  0  0  0  0  0  0  0
    6.2647   10.2882    6.9714 N   0  0  0  0  0  0  0  0  0  0  0  0
    6.2374    8.2951    4.3666 C   0  0  0  0  0  0  0  0  0  0  0  0
    6.8298    8.4155    3.3893 N   0  0  0  0  0  0  0  0  0  0  0  0
   -6.1441   -3.9286   -1.5439 H   0  0  0  0  0  0  0  0  0  0  0  0
   -4.8799    0.4803   -5.8316 H   0  0  0  0  0  0  0  0  0  0  0  0
   -9.1133   -2.3010   -5.8897 H   0  0  0  0  0  0  0  0  0  0  0  0
   -8.8550   -0.4692   -8.7732 H   0  0  0  0  0  0  0  0  0  0  0  0
  -10.6341    0.6879   -7.1634 H   0  0  0  0  0  0  0  0  0  0  0  0
  -10.5609    2.0286   -9.4217 H   0  0  0  0  0  0  0  0  0  0  0  0
   -8.3521    3.5050   -9.4359 H   0  0  0  0  0  0  0  0  0  0  0  0
   -7.0668    3.0752   -7.1853 H   0  0  0  0  0  0  0  0  0  0  0  0
   -8.6003    1.5224   -5.6180 H   0  0  0  0  0  0  0  0  0  0  0  0
   -9.5307    2.9071   -6.2335 H   0  0  0  0  0  0  0  0  0  0  0  0
   -6.6871    0.9761   -8.7823 H   0  0  0  0  0  0  0  0  0  0  0  0
    1.0794   -0.4038    4.3698 H   0  0  0  0  0  0  0  0  0  0  0  0
   -0.2257   -1.9480    5.7198 H   0  0  0  0  0  0  0  0  0  0  0  0
   -1.8881   -3.4253    4.6867 H   0  0  0  0  0  0  0  0  0  0  0  0
   -4.9269   -4.2291    0.4818 H   0  0  0  0  0  0  0  0  0  0  0  0
    0.1572   -4.2634    2.2140 H   0  0  0  0  0  0  0  0  0  0  0  0
    1.2614   -6.3506    1.6241 H   0  0  0  0  0  0  0  0  0  0  0  0
   -0.4940   -9.5010    0.8973 H   0  0  0  0  0  0  0  0  0  0  0  0
    1.0746   -8.7647    1.2573 H   0  0  0  0  0  0  0  0  0  0  0  0
    1.1330   -7.7818   -1.0376 H   0  0  0  0  0  0  0  0  0  0  0  0
   -0.4269   -8.5219   -1.3953 H   0  0  0  0  0  0  0  0  0  0  0  0
    0.9857   -9.5418   -1.1008 H   0  0  0  0  0  0  0  0  0  0  0  0
   -2.5053   -8.0856    0.6354 H   0  0  0  0  0  0  0  0  0  0  0  0
   -3.6213   -5.9980    1.2227 H   0  0  0  0  0  0  0  0  0  0  0  0
   -3.0724   -5.7394    3.8462 H   0  0  0  0  0  0  0  0  0  0  0  0
   -4.9744   -5.9691    5.3656 H   0  0  0  0  0  0  0  0  0  0  0  0
   -7.4478   -3.3221    6.0112 H   0  0  0  0  0  0  0  0  0  0  0  0
   -6.8142   -4.8802    6.5614 H   0  0  0  0  0  0  0  0  0  0  0  0
   -9.0814   -5.1484    5.5815 H   0  0  0  0  0  0  0  0  0  0  0  0
   -8.5191   -4.4486    4.0597 H   0  0  0  0  0  0  0  0  0  0  0  0
   -7.8831   -6.0009    4.6021 H   0  0  0  0  0  0  0  0  0  0  0  0
   -6.5302   -2.2416    4.0003 H   0  0  0  0  0  0  0  0  0  0  0  0
   -4.6244   -2.0044    2.4791 H   0  0  0  0  0  0  0  0  0  0  0  0
    1.8040    1.0835    3.2728 H   0  0  0  0  0  0  0  0  0  0  0  0
    6.7750    3.2911   -1.9595 H   0  0  0  0  0  0  0  0  0  0  0  0
    7.2188    5.1880   -3.4383 H   0  0  0  0  0  0  0  0  0  0  0  0
    6.3179    7.1704   -4.5897 H   0  0  0  0  0  0  0  0  0  0  0  0
    4.8973    8.0093   -3.9494 H   0  0  0  0  0  0  0  0  0  0  0  0
    6.9605    9.3424   -3.5651 H   0  0  0  0  0  0  0  0  0  0  0  0
    6.2579    8.8351   -2.0253 H   0  0  0  0  0  0  0  0  0  0  0  0
    7.6723    7.9993   -2.6644 H   0  0  0  0  0  0  0  0  0  0  0  0
    3.7371    7.1622   -1.9689 H   0  0  0  0  0  0  0  0  0  0  0  0
    3.2835    5.2606   -0.4913 H   0  0  0  0  0  0  0  0  0  0  0  0
    7.1092    3.7366    0.7308 H   0  0  0  0  0  0  0  0  0  0  0  0
    9.0587    2.3657    1.2557 H   0  0  0  0  0  0  0  0  0  0  0  0
    9.9140    0.1125    1.8054 H   0  0  0  0  0  0  0  0  0  0  0  0
    9.0509   -1.3300    1.2522 H   0  0  0  0  0  0  0  0  0  0  0  0
   11.1343   -0.9893   -0.0595 H   0  0  0  0  0  0  0  0  0  0  0  0
    9.7157   -0.8200   -1.0995 H   0  0  0  0  0  0  0  0  0  0  0  0
   10.5780    0.6155   -0.5459 H   0  0  0  0  0  0  0  0  0  0  0  0
    6.9274   -1.1245    0.0509 H   0  0  0  0  0  0  0  0  0  0  0  0
    4.9776    0.2341   -0.4751 H   0  0  0  0  0  0  0  0  0  0  0  0
    4.2495    2.4918   -2.8010 H   0  0  0  0  0  0  0  0  0  0  0  0
    2.5640    1.0377   -3.8312 H   0  0  0  0  0  0  0  0  0  0  0  0
    0.9662   -0.1802   -2.4626 H   0  0  0  0  0  0  0  0  0  0  0  0
   -0.5266   -0.8140   -1.3265 H   0  0  0  0  0  0  0  0  0  0  0  0
    5.4918    5.2667    1.4542 H   0  0  0  0  0  0  0  0  0  0  0  0
    5.3636    6.4443    3.5113 H   0  0  0  0  0  0  0  0  0  0  0  0
    1.7747    4.9299    8.4596 H   0  0  0  0  0  0  0  0  0  0  0  0
    1.8164    6.5042   10.3969 H   0  0  0  0  0  0  0  0  0  0  0  0
    4.6122    9.0159    8.3612 H   0  0  0  0  0  0  0  0  0  0  0  0
  1  2  2  0  0  0  0
  2  3  1  0  0  0  0
  3  4  2  0  0  0  0
  3  5  1  0  0  0  0
  5  6  2  0  0  0  0
  6  7  1  0  0  0  0
  7  8  2  0  0  0  0
  8  9  1  0  0  0  0
  9 10  2  0  0  0  0
 10 11  1  0  0  0  0
 11 12  2  0  0  0  0
 12 13  1  0  0  0  0
 13 14  3  0  0  0  0
 12 15  1  0  0  0  0
 15 16  3  0  0  0  0
  8 17  1  0  0  0  0
 17 18  1  0  0  0  0
 18 19  1  0  0  0  0
 19 20  2  0  0  0  0
 20 21  1  0  0  0  0
 21 22  1  0  0  0  0
 21 23  1  0  0  0  0
  1 24  1  0  0  0  0
 24 25  1  0  0  0  0
 25 26  1  0  0  0  0
 26 27  1  0  0  0  0
 27 28  2  0  0  0  0
 28 29  1  0  0  0  0
 29 30  1  0  0  0  0
 30 31  2  0  0  0  0
 31 32  1  0  0  0  0
 32 33  2  0  0  0  0
 33 34  1  0  0  0  0
 34 35  1  0  0  0  0
 35 36  1  0  0  0  0
 34 37  1  0  0  0  0
 37 38  2  0  0  0  0
 38 39  1  0  0  0  0
 39 40  2  0  0  0  0
 40 41  1  0  0  0  0
 41 42  1  0  0  0  0
 40 43  1  0  0  0  0
 43 44  2  0  0  0  0
 34 45  1  0  0  0  0
 45 46  2  0  0  0  0
 46 47  1  0  0  0  0
 47 48  2  0  0  0  0
 48 49  1  0  0  0  0
 49 50  1  0  0  0  0
 48 51  1  0  0  0  0
 51 52  2  0  0  0  0
 29 53  2  0  0  0  0
 53 54  1  0  0  0  0
 54 55  2  0  0  0  0
 55 56  1  0  0  0  0
 56 57  2  0  0  0  0
 57 58  1  0  0  0  0
 58 59  1  0  0  0  0
 59 60  2  0  0  0  0
 60 61  1  0  0  0  0
 61 62  2  0  0  0  0
 62 63  1  0  0  0  0
 63 64  1  0  0  0  0
 62 65  1  0  0  0  0
 65 66  2  0  0  0  0
 58 67  1  0  0  0  0
 67 68  2  0  0  0  0
 68 69  1  0  0  0  0
 69 70  2  0  0  0  0
 70 71  1  0  0  0  0
 71 72  1  0  0  0  0
 70 73  1  0  0  0  0
 73 74  2  0  0  0  0
 58 75  1  0  0  0  0
 75 76  1  0  0  0  0
 76 77  2  0  0  0  0
 77 78  1  0  0  0  0
 78 79  2  0  0  0  0
 79 80  1  0  0  0  0
 80 81  2  0  0  0  0
 79 82  1  0  0  0  0
 57 83  1  0  0  0  0
 83 84  2  0  0  0  0
 84 85  1  0  0  0  0
 84 86  1  0  0  0  0
 86 87  2  0  0  0  0
 87 88  1  0  0  0  0
 88 89  2  0  0  0  0
 88 90  1  0  0  0  0
 90 91  2  0  0  0  0
 91 92  1  0  0  0  0
 92 93  2  0  0  0  0
 93 94  1  0  0  0  0
 93 95  1  0  0  0  0
 95 96  2  0  0  0  0
 96 97  1  0  0  0  0
 97 98  2  0  0  0  0
 98 99  1  0  0  0  0
 99100  3  0  0  0  0
 98101  1  0  0  0  0
101102  3  0  0  0  0
 11  2  1  0  0  0  0
 23 17  1  0  0  0  0
 36 24  2  0  0  0  0
 44 37  1  0  0  0  0
 52 45  1  0  0  0  0
 80 53  1  0  0  0  0
 97 87  1  0  0  0  0
 10  5  1  0  0  0  0
 22 18  1  0  0  0  0
 35 26  2  0  0  0  0
 82 55  1  0  0  0  0
 96 90  1  0  0  0  0
 23  7  1  0  0  0  0
 81 27  1  0  0  0  0
 33 28  1  0  0  0  0
 85 56  1  0  0  0  0
 66 59  1  0  0  0  0
 74 67  1  0  0  0  0
 82 75  2  0  0  0  0
  1103  1  0  0  0  0
  6104  1  0  0  0  0
  9105  1  0  0  0  0
 17106  1  0  0  0  0
 18107  1  0  0  0  0
 19108  1  0  0  0  0
 20109  1  0  0  0  0
 21110  1  0  0  0  0
 22111  1  0  0  0  0
 22112  1  0  0  0  0
 23113  1  0  0  0  0
 30114  1  0  0  0  0
 31115  1  0  0  0  0
 32116  1  0  0  0  0
 36117  1  0  0  0  0
 38118  1  0  0  0  0
 39119  1  0  0  0  0
 41120  1  0  0  0  0
 41121  1  0  0  0  0
 42122  1  0  0  0  0
 42123  1  0  0  0  0
 42124  1  0  0  0  0
 43125  1  0  0  0  0
 44126  1  0  0  0  0
 46127  1  0  0  0  0
 47128  1  0  0  0  0
 49129  1  0  0  0  0
 49130  1  0  0  0  0
 50131  1  0  0  0  0
 50132  1  0  0  0  0
 50133  1  0  0  0  0
 51134  1  0  0  0  0
 52135  1  0  0  0  0
 54136  1  0  0  0  0
 60137  1  0  0  0  0
 61138  1  0  0  0  0
 63139  1  0  0  0  0
 63140  1  0  0  0  0
 64141  1  0  0  0  0
 64142  1  0  0  0  0
 64143  1  0  0  0  0
 65144  1  0  0  0  0
 66145  1  0  0  0  0
 68146  1  0  0  0  0
 69147  1  0  0  0  0
 71148  1  0  0  0  0
 71149  1  0  0  0  0
 72150  1  0  0  0  0
 72151  1  0  0  0  0
 72152  1  0  0  0  0
 73153  1  0  0  0  0
 74154  1  0  0  0  0
 76155  1  0  0  0  0
 77156  1  0  0  0  0
 78157  1  0  0  0  0
 81158  1  0  0  0  0
 83159  1  0  0  0  0
 86160  1  0  0  0  0
 91161  1  0  0  0  0
 92162  1  0  0  0  0
 95163  1  0  0  0  0
M  END
