168

C          7.79390       -1.62850        1.74410
C          8.15670       -2.77830        2.36990
C          9.59000       -3.14510        2.52700
O         10.54520       -2.42070        2.35980
C          9.58650       -4.58090        2.87060
C         10.69010       -5.42050        3.00610
C         10.37120       -6.71980        3.32070
C          9.04990       -7.16380        3.47010
C          7.95110       -6.34810        3.34500
C          8.25610       -5.01840        3.04660
C          7.36820       -3.86970        2.90300
C          6.11730       -3.76070        3.45230
C          5.41540       -2.54120        3.54910
N          4.83630       -1.56110        3.70060
C          5.43460       -4.82210        4.07870
N          4.82940       -5.65050        4.59430
C          9.47490       -8.57710        3.77920
C          9.41390       -9.03470        5.25730
C          9.55910       -7.78830        6.09520
C         10.80810       -7.36030        5.96930
C         11.53010       -8.30950        5.04510
C         10.82450       -9.62670        5.40530
C         10.94690       -8.07930        3.62800
C          6.53580       -1.31690        1.17120
S          5.48330       -2.58600        0.53680
C          4.30870       -1.41050        0.09960
C          3.02960       -1.29680       -0.44180
S          1.73430       -2.29920       -1.00660
C          0.75130       -0.87820       -1.16440
C         -0.64060       -0.65690       -1.39350
C         -1.66930       -1.55630       -1.65680
C         -2.95160       -1.05920       -1.66280
C         -4.25060       -1.81900       -1.87270
C         -4.28510       -2.98480       -0.90410
C         -3.72220       -4.20330       -1.26310
C         -3.69030       -5.25280       -0.36500
C         -4.21160       -5.11350        0.91480
C         -4.21500       -6.26950        1.87260
C         -5.49080       -7.09750        1.70590
C         -4.76870       -3.89240        1.26970
C         -4.80010       -2.83770        0.37600
C         -4.46670       -2.26490       -3.30830
C         -3.69800       -1.77320       -4.35280
C         -3.95860       -2.16190       -5.65490
C         -4.99500       -3.03730       -5.94700
C         -5.24570       -3.48920       -7.35670
C         -4.41510       -4.73450       -7.67400
C         -5.76650       -3.52010       -4.89710
C         -5.51030       -3.13680       -3.59530
C         -5.26080       -0.73760       -1.58160
C         -4.61490        0.47760       -1.32670
C         -3.20040        0.30190       -1.36920
C         -2.16470        1.20880       -1.14120
C         -0.88110        0.72400       -1.18420
C          0.43470        1.47140       -0.98430
C          0.71350        2.26000       -2.25750
C         -0.16710        3.25260       -2.67410
C          0.07340        3.97560       -3.82660
C          1.19780        3.73050       -4.60380
C          1.43850        4.49010       -5.87600
C          0.79420        3.76660       -7.06010
C          2.06650        2.72910       -4.19640
C          1.82870        2.00300       -3.04350
C          0.43640        2.31190        0.27920
C          0.64200        3.68290        0.28920
C          0.66870        4.37880        1.48510
C          0.50600        3.72770        2.69860
C          0.51370        4.49000        3.99120
C         -0.90730        4.90210        4.37940
C          0.29390        2.35450        2.68410
C          0.25590        1.65720        1.49360
C          1.38680        0.30990       -0.84210
C          2.69630        0.08060       -0.41990
N          3.74630        0.79850        0.10600
C          4.73240       -0.10590        0.43410
C          6.00220       -0.05350        1.00050
C          3.76530        2.14970        0.42470
C          3.88320        2.67770        1.67540
C          3.89330        4.08270        1.62720
S          3.95060        5.33980        2.80630
C          3.82750        6.55660        1.55530
C          3.76170        7.99520        1.93590
C          2.39170        8.34920        2.51960
C          3.75190        6.01620        0.30900
C          3.79290        4.60820        0.34610
S          3.70620        3.36110       -0.84370
S         -5.68790        1.76570       -1.00700
C         -7.05510        0.67470       -1.21030
C         -6.62980       -0.62720       -1.52800
C         -8.40690        0.99160       -1.06050
C         -9.02170        2.17480       -0.71770
C         -8.34560        3.44330       -0.43980
O         -7.15230        3.68350       -0.48090
C         -9.41310        4.40450       -0.09240
C         -9.29510        5.73260        0.25910
C        -10.45450        6.44050        0.55120
Cl       -10.35250        8.09690        0.99460
C        -11.70000        5.80890        0.48600
Cl       -13.12620        6.69430        0.85180
C        -11.81280        4.46870        0.12970
C        -10.65960        3.76000       -0.16240
C        -10.44760        2.36640       -0.55700
C        -11.44480        1.43980       -0.72930
C        -12.81710        1.71190       -0.54780
N        -13.94830        1.86040       -0.41990
C        -11.26930        0.09240       -1.10680
N        -11.22350       -1.01500       -1.41020
H          8.57710       -0.88750        1.61710
H         11.69270       -5.04480        2.87380
H          6.93720       -6.69660        3.45590
H          9.12310       -9.34260        3.09060
H          8.57180       -9.67840        5.49640
H          8.74800       -7.32850        6.62880
H         11.24990       -6.47030        6.37780
H         12.61570       -8.29350        5.09360
H         11.03870       -9.95480        6.42120
H         11.03140      -10.43560        4.70580
H         11.56170       -8.52770        2.84990
H         -1.45980       -2.60170       -1.82250
H         -3.31480       -4.33410       -2.25540
H         -3.24900       -6.19390       -0.66130
H         -3.34670       -6.90510        1.68800
H         -4.15670       -5.90060        2.89850
H         -6.36790       -6.48390        1.89860
H         -5.49370       -7.93560        2.39880
H         -5.56070       -7.48460        0.69170
H         -5.17810       -3.76130        2.26120
H         -5.22920       -1.89360        0.67920
H         -2.89040       -1.08390       -4.15330
H         -3.34780       -1.77210       -6.45690
H         -6.30460       -3.71980       -7.48870
H         -4.97950       -2.69210       -8.05380
H         -4.67530       -5.54490       -6.99670
H         -4.59600       -5.06300       -8.69470
H         -3.35470       -4.52080       -7.56000
H         -6.58100       -4.20000       -5.10230
H         -6.11840       -3.52390       -2.79070
H         -2.39160        2.23540       -0.90040
H         -1.04840        3.47200       -2.09280
H         -0.62410        4.74560       -4.12460
H          2.51190        4.58390       -6.05280
H          1.01580        5.49350       -5.79450
H          1.21330        2.76860       -7.16670
H         -0.27860        3.67200       -6.90720
H          0.96710        4.31670       -7.98210
H          2.94750        2.51400       -4.78390
H          2.53020        1.23230       -2.76260
H          0.79470        4.21890       -0.63530
H          0.83200        5.44730        1.47070
H          0.93860        3.86970        4.78270
H          1.13320        5.38290        3.88950
H         -1.34260        5.53300        3.60750
H         -0.90080        5.45350        5.31670
H         -1.53740        4.02350        4.49730
H          0.16300        1.82460        3.61650
H          0.08950        0.58890        1.50260
H          6.50000        0.84110        1.32680
H          3.93570        2.08460        2.56950
H          3.95250        8.60410        1.05010
H          4.53300        8.21440        2.67760
H          1.60720        8.15040        1.79280
H          2.35710        9.40190        2.78770
H          2.19830        7.75790        3.41190
H          3.67200        6.59440       -0.59310
H         -7.32920       -1.42800       -1.68920
H         -9.05860        0.14390       -1.23460
H         -8.32710        6.20590        0.30610
H        -12.79080        4.01810        0.09150
