
  xtb     02032200303D
 energy: -280.614079762522 gnorm: 0.000550678430 xtb: 6.4.1 (unknown)
178199  0     0  0            999 V2000
    1.0977   -4.7131    7.2713 C   0  0  0  0  0  0  0  0  0  0  0  0
    1.6468   -4.2138    8.4236 C   0  0  0  0  0  0  0  0  0  0  0  0
    2.2941   -2.9040    8.6569 C   0  0  0  0  0  0  0  0  0  0  0  0
    2.7049   -2.0945    7.8478 O   0  0  0  0  0  0  0  0  0  0  0  0
    2.3534   -2.7410   10.1222 C   0  0  0  0  0  0  0  0  0  0  0  0
    2.7929   -1.6154   10.8153 C   0  0  0  0  0  0  0  0  0  0  0  0
    2.7074   -1.7313   12.1814 C   0  0  0  0  0  0  0  0  0  0  0  0
    2.2231   -2.8843   12.8137 C   0  0  0  0  0  0  0  0  0  0  0  0
    1.7985   -4.0059   12.1420 C   0  0  0  0  0  0  0  0  0  0  0  0
    1.8763   -3.9071   10.7499 C   0  0  0  0  0  0  0  0  0  0  0  0
    1.5187   -4.8715    9.7134 C   0  0  0  0  0  0  0  0  0  0  0  0
    1.1997   -6.1862    9.9355 C   0  0  0  0  0  0  0  0  0  0  0  0
    1.1094   -6.7781   11.2126 C   0  0  0  0  0  0  0  0  0  0  0  0
    1.0098   -7.3268   12.2165 N   0  0  0  0  0  0  0  0  0  0  0  0
    0.9730   -7.1592    8.9385 C   0  0  0  0  0  0  0  0  0  0  0  0
    0.8015   -8.0216    8.1994 N   0  0  0  0  0  0  0  0  0  0  0  0
    2.3930   -2.2963   14.1921 C   0  0  0  0  0  0  0  0  0  0  0  0
    1.1256   -1.7800   14.9173 C   0  0  0  0  0  0  0  0  0  0  0  0
    0.1417   -1.3939   13.8410 C   0  0  0  0  0  0  0  0  0  0  0  0
    0.6025   -0.3034   13.2431 C   0  0  0  0  0  0  0  0  0  0  0  0
    1.9068    0.0677   13.9046 C   0  0  0  0  0  0  0  0  0  0  0  0
    1.6192   -0.3883   15.3440 C   0  0  0  0  0  0  0  0  0  0  0  0
    2.9354   -1.0128   13.4879 C   0  0  0  0  0  0  0  0  0  0  0  0
    1.0807   -4.2094    5.9598 C   0  0  0  0  0  0  0  0  0  0  0  0
    0.0135   -5.0548    4.8176 S   0  0  0  0  0  0  0  0  0  0  0  0
    0.4371   -3.9476    3.5780 C   0  0  0  0  0  0  0  0  0  0  0  0
    0.1557   -3.6210    2.2535 C   0  0  0  0  0  0  0  0  0  0  0  0
   -0.8967   -4.1150    0.9676 S   0  0  0  0  0  0  0  0  0  0  0  0
   -0.3216   -2.7740    0.0317 C   0  0  0  0  0  0  0  0  0  0  0  0
   -0.7245   -2.1876   -1.2072 C   0  0  0  0  0  0  0  0  0  0  0  0
   -1.6966   -2.5796   -2.1227 C   0  0  0  0  0  0  0  0  0  0  0  0
   -1.9482   -1.7295   -3.1741 C   0  0  0  0  0  0  0  0  0  0  0  0
   -2.9645   -1.8949   -4.2915 C   0  0  0  0  0  0  0  0  0  0  0  0
   -2.6185   -3.1526   -5.0663 C   0  0  0  0  0  0  0  0  0  0  0  0
   -3.1050   -4.3841   -4.6457 C   0  0  0  0  0  0  0  0  0  0  0  0
   -2.7680   -5.5401   -5.3233 C   0  0  0  0  0  0  0  0  0  0  0  0
   -1.9360   -5.4993   -6.4347 C   0  0  0  0  0  0  0  0  0  0  0  0
   -1.5428   -6.7609   -7.1477 C   0  0  0  0  0  0  0  0  0  0  0  0
   -0.2782   -7.3552   -6.5244 C   0  0  0  0  0  0  0  0  0  0  0  0
   -1.4398   -4.2683   -6.8410 C   0  0  0  0  0  0  0  0  0  0  0  0
   -1.7721   -3.1087   -6.1650 C   0  0  0  0  0  0  0  0  0  0  0  0
   -4.4059   -1.9002   -3.8159 C   0  0  0  0  0  0  0  0  0  0  0  0
   -4.7626   -1.4464   -2.5546 C   0  0  0  0  0  0  0  0  0  0  0  0
   -6.0916   -1.4160   -2.1715 C   0  0  0  0  0  0  0  0  0  0  0  0
   -7.0957   -1.8232   -3.0386 C   0  0  0  0  0  0  0  0  0  0  0  0
   -8.5324   -1.8324   -2.6025 C   0  0  0  0  0  0  0  0  0  0  0  0
   -8.8872   -3.1756   -1.9611 C   0  0  0  0  0  0  0  0  0  0  0  0
   -6.7340   -2.2636   -4.3056 C   0  0  0  0  0  0  0  0  0  0  0  0
   -5.4086   -2.2978   -4.6925 C   0  0  0  0  0  0  0  0  0  0  0  0
   -2.7433   -0.6199   -5.0656 C   0  0  0  0  0  0  0  0  0  0  0  0
   -1.7470    0.1524   -4.4654 C   0  0  0  0  0  0  0  0  0  0  0  0
   -1.2323   -0.5177   -3.3136 C   0  0  0  0  0  0  0  0  0  0  0  0
   -0.2398   -0.1404   -2.4100 C   0  0  0  0  0  0  0  0  0  0  0  0
    0.0086   -0.9864   -1.3567 C   0  0  0  0  0  0  0  0  0  0  0  0
    1.0142   -0.8221   -0.2206 C   0  0  0  0  0  0  0  0  0  0  0  0
    0.7741    0.4375    0.5930 C   0  0  0  0  0  0  0  0  0  0  0  0
    1.7983    1.2675    1.0213 C   0  0  0  0  0  0  0  0  0  0  0  0
    1.5307    2.3434    1.8485 C   0  0  0  0  0  0  0  0  0  0  0  0
    0.2397    2.6165    2.2749 C   0  0  0  0  0  0  0  0  0  0  0  0
   -0.0331    3.7348    3.2382 C   0  0  0  0  0  0  0  0  0  0  0  0
   -0.0207    3.2090    4.6751 C   0  0  0  0  0  0  0  0  0  0  0  0
   -0.7865    1.7899    1.8339 C   0  0  0  0  0  0  0  0  0  0  0  0
   -0.5246    0.7167    1.0058 C   0  0  0  0  0  0  0  0  0  0  0  0
    2.4002   -0.9311   -0.8266 C   0  0  0  0  0  0  0  0  0  0  0  0
    3.1415   -2.1005   -0.7209 C   0  0  0  0  0  0  0  0  0  0  0  0
    4.3953   -2.1975   -1.2978 C   0  0  0  0  0  0  0  0  0  0  0  0
    4.9406   -1.1351   -2.0043 C   0  0  0  0  0  0  0  0  0  0  0  0
    6.3266   -1.2196   -2.5745 C   0  0  0  0  0  0  0  0  0  0  0  0
    7.3542   -0.7404   -1.5468 C   0  0  0  0  0  0  0  0  0  0  0  0
    4.1873    0.0252   -2.1288 C   0  0  0  0  0  0  0  0  0  0  0  0
    2.9340    0.1254   -1.5560 C   0  0  0  0  0  0  0  0  0  0  0  0
    0.6535   -2.0050    0.6463 C   0  0  0  0  0  0  0  0  0  0  0  0
    0.9360   -2.4806    1.9284 C   0  0  0  0  0  0  0  0  0  0  0  0
    1.6971   -2.1247    3.0164 N   0  0  0  0  0  0  0  0  0  0  0  0
    1.3824   -2.9971    4.0369 C   0  0  0  0  0  0  0  0  0  0  0  0
    1.7451   -3.1461    5.3659 C   0  0  0  0  0  0  0  0  0  0  0  0
    2.5959   -1.0732    3.1430 C   0  0  0  0  0  0  0  0  0  0  0  0
    3.7214   -0.8315    2.4188 C   0  0  0  0  0  0  0  0  0  0  0  0
    4.4171    0.3090    2.8758 C   0  0  0  0  0  0  0  0  0  0  0  0
    3.8269    0.9203    3.9370 C   0  0  0  0  0  0  0  0  0  0  0  0
    4.3107    2.0912    4.7210 C   0  0  0  0  0  0  0  0  0  0  0  0
    4.8431    1.6508    6.0863 C   0  0  0  0  0  0  0  0  0  0  0  0
    2.3696    0.1057    4.4027 S   0  0  0  0  0  0  0  0  0  0  0  0
   -1.4807    1.6470   -5.2507 S   0  0  0  0  0  0  0  0  0  0  0  0
   -2.7330    1.2529   -6.4207 C   0  0  0  0  0  0  0  0  0  0  0  0
   -3.2987   -0.0047   -6.1652 C   0  0  0  0  0  0  0  0  0  0  0  0
   -3.1708    2.0546   -7.4832 C   0  0  0  0  0  0  0  0  0  0  0  0
   -2.7989    3.3186   -7.8638 C   0  0  0  0  0  0  0  0  0  0  0  0
   -1.8076    4.1655   -7.1911 C   0  0  0  0  0  0  0  0  0  0  0  0
   -1.1024    3.8729   -6.2406 O   0  0  0  0  0  0  0  0  0  0  0  0
   -1.8282    5.4620   -7.8904 C   0  0  0  0  0  0  0  0  0  0  0  0
   -1.0751    6.5922   -7.5831 C   0  0  0  0  0  0  0  0  0  0  0  0
   -1.3208    7.6676   -8.4026 C   0  0  0  0  0  0  0  0  0  0  0  0
   -2.2539    7.6239   -9.4466 C   0  0  0  0  0  0  0  0  0  0  0  0
   -3.0020    6.5142   -9.7611 C   0  0  0  0  0  0  0  0  0  0  0  0
   -2.7610    5.4054   -8.9453 C   0  0  0  0  0  0  0  0  0  0  0  0
   -3.3553    4.0692   -8.9719 C   0  0  0  0  0  0  0  0  0  0  0  0
   -4.2574    3.6247   -9.9051 C   0  0  0  0  0  0  0  0  0  0  0  0
   -4.7488    4.4008  -10.9755 C   0  0  0  0  0  0  0  0  0  0  0  0
   -5.1925    4.9658  -11.8715 N   0  0  0  0  0  0  0  0  0  0  0  0
   -4.8215    2.3334   -9.9625 C   0  0  0  0  0  0  0  0  0  0  0  0
   -5.3292    1.3106  -10.0935 N   0  0  0  0  0  0  0  0  0  0  0  0
   -1.9882    9.0522   -9.8514 C   0  0  0  0  0  0  0  0  0  0  0  0
   -1.1185    9.2951  -11.1093 C   0  0  0  0  0  0  0  0  0  0  0  0
   -0.2253    8.0877  -11.2507 C   0  0  0  0  0  0  0  0  0  0  0  0
    0.6630    8.1242  -10.2665 C   0  0  0  0  0  0  0  0  0  0  0  0
    0.3869    9.3573   -9.4421 C   0  0  0  0  0  0  0  0  0  0  0  0
   -0.1145   10.3098  -10.5394 C   0  0  0  0  0  0  0  0  0  0  0  0
   -0.9435    9.0989   -8.6920 C   0  0  0  0  0  0  0  0  0  0  0  0
    0.5297   -5.6306    7.3775 H   0  0  0  0  0  0  0  0  0  0  0  0
    3.1571   -0.7476   10.2877 H   0  0  0  0  0  0  0  0  0  0  0  0
    1.4262   -4.8837   12.6430 H   0  0  0  0  0  0  0  0  0  0  0  0
    3.0629   -2.8334   14.8607 H   0  0  0  0  0  0  0  0  0  0  0  0
    0.7510   -2.4393   15.6957 H   0  0  0  0  0  0  0  0  0  0  0  0
   -0.7319   -1.9684   13.5942 H   0  0  0  0  0  0  0  0  0  0  0  0
    0.1912    0.2147   12.3966 H   0  0  0  0  0  0  0  0  0  0  0  0
    2.2435    1.0913   13.7615 H   0  0  0  0  0  0  0  0  0  0  0  0
    0.8434    0.2043   15.8266 H   0  0  0  0  0  0  0  0  0  0  0  0
    2.5062   -0.4173   15.9754 H   0  0  0  0  0  0  0  0  0  0  0  0
    3.9605   -0.7123   13.6963 H   0  0  0  0  0  0  0  0  0  0  0  0
   -2.2399   -3.5021   -1.9885 H   0  0  0  0  0  0  0  0  0  0  0  0
   -3.7653   -4.4370   -3.7921 H   0  0  0  0  0  0  0  0  0  0  0  0
   -3.1618   -6.4887   -4.9868 H   0  0  0  0  0  0  0  0  0  0  0  0
   -2.3525   -7.4905   -7.0832 H   0  0  0  0  0  0  0  0  0  0  0  0
   -1.3580   -6.5476   -8.2024 H   0  0  0  0  0  0  0  0  0  0  0  0
    0.0086   -8.2678   -7.0417 H   0  0  0  0  0  0  0  0  0  0  0  0
   -0.4471   -7.5881   -5.4755 H   0  0  0  0  0  0  0  0  0  0  0  0
    0.5438   -6.6457   -6.5882 H   0  0  0  0  0  0  0  0  0  0  0  0
   -0.7874   -4.2137   -7.7009 H   0  0  0  0  0  0  0  0  0  0  0  0
   -1.3726   -2.1629   -6.5009 H   0  0  0  0  0  0  0  0  0  0  0  0
   -4.0011   -1.1143   -1.8641 H   0  0  0  0  0  0  0  0  0  0  0  0
   -6.3511   -1.0644   -1.1830 H   0  0  0  0  0  0  0  0  0  0  0  0
   -8.7055   -1.0320   -1.8802 H   0  0  0  0  0  0  0  0  0  0  0  0
   -9.1816   -1.6624   -3.4637 H   0  0  0  0  0  0  0  0  0  0  0  0
   -8.7338   -3.9855   -2.6708 H   0  0  0  0  0  0  0  0  0  0  0  0
   -9.9274   -3.1834   -1.6443 H   0  0  0  0  0  0  0  0  0  0  0  0
   -8.2578   -3.3580   -1.0929 H   0  0  0  0  0  0  0  0  0  0  0  0
   -7.5000   -2.5792   -4.9994 H   0  0  0  0  0  0  0  0  0  0  0  0
   -5.1462   -2.6447   -5.6815 H   0  0  0  0  0  0  0  0  0  0  0  0
    0.2816    0.7945   -2.5383 H   0  0  0  0  0  0  0  0  0  0  0  0
    2.8171    1.0743    0.7244 H   0  0  0  0  0  0  0  0  0  0  0  0
    2.3466    2.9738    2.1729 H   0  0  0  0  0  0  0  0  0  0  0  0
    0.7276    4.5107    3.1301 H   0  0  0  0  0  0  0  0  0  0  0  0
   -1.0076    4.1794    3.0264 H   0  0  0  0  0  0  0  0  0  0  0  0
   -0.7954    2.4580    4.8103 H   0  0  0  0  0  0  0  0  0  0  0  0
   -0.1941    4.0191    5.3796 H   0  0  0  0  0  0  0  0  0  0  0  0
    0.9375    2.7466    4.9021 H   0  0  0  0  0  0  0  0  0  0  0  0
   -1.8018    1.9863    2.1475 H   0  0  0  0  0  0  0  0  0  0  0  0
   -1.3354    0.0805    0.6794 H   0  0  0  0  0  0  0  0  0  0  0  0
    2.7411   -2.9488   -0.1845 H   0  0  0  0  0  0  0  0  0  0  0  0
    4.9563   -3.1160   -1.1967 H   0  0  0  0  0  0  0  0  0  0  0  0
    6.3974   -0.5998   -3.4704 H   0  0  0  0  0  0  0  0  0  0  0  0
    6.5508   -2.2511   -2.8532 H   0  0  0  0  0  0  0  0  0  0  0  0
    7.3081   -1.3551   -0.6503 H   0  0  0  0  0  0  0  0  0  0  0  0
    8.3596   -0.8000   -1.9568 H   0  0  0  0  0  0  0  0  0  0  0  0
    7.1543    0.2913   -1.2653 H   0  0  0  0  0  0  0  0  0  0  0  0
    4.5856    0.8619   -2.6849 H   0  0  0  0  0  0  0  0  0  0  0  0
    2.3721    1.0399   -1.6695 H   0  0  0  0  0  0  0  0  0  0  0  0
    2.4357   -2.5226    5.9022 H   0  0  0  0  0  0  0  0  0  0  0  0
    4.0419   -1.4433    1.5951 H   0  0  0  0  0  0  0  0  0  0  0  0
    5.3332    0.6547    2.4307 H   0  0  0  0  0  0  0  0  0  0  0  0
    3.4939    2.8026    4.8680 H   0  0  0  0  0  0  0  0  0  0  0  0
    5.1025    2.5902    4.1582 H   0  0  0  0  0  0  0  0  0  0  0  0
    5.1786    2.5129    6.6573 H   0  0  0  0  0  0  0  0  0  0  0  0
    4.0638    1.1397    6.6470 H   0  0  0  0  0  0  0  0  0  0  0  0
    5.6799    0.9676    5.9618 H   0  0  0  0  0  0  0  0  0  0  0  0
   -4.0823   -0.4119   -6.7791 H   0  0  0  0  0  0  0  0  0  0  0  0
   -3.9482    1.5806   -8.0704 H   0  0  0  0  0  0  0  0  0  0  0  0
   -0.3735    6.5840   -6.7636 H   0  0  0  0  0  0  0  0  0  0  0  0
   -3.7175    6.5008  -10.5659 H   0  0  0  0  0  0  0  0  0  0  0  0
   -2.8390    9.7285   -9.7976 H   0  0  0  0  0  0  0  0  0  0  0  0
   -1.6770    9.5855  -11.9950 H   0  0  0  0  0  0  0  0  0  0  0  0
   -0.3638    7.3245  -11.9939 H   0  0  0  0  0  0  0  0  0  0  0  0
    1.4153    7.3969  -10.0228 H   0  0  0  0  0  0  0  0  0  0  0  0
    1.2007    9.7049   -8.8110 H   0  0  0  0  0  0  0  0  0  0  0  0
   -0.5835   11.2122  -10.1496 H   0  0  0  0  0  0  0  0  0  0  0  0
    0.6638   10.5781  -11.2523 H   0  0  0  0  0  0  0  0  0  0  0  0
   -1.1086    9.8098   -7.8845 H   0  0  0  0  0  0  0  0  0  0  0  0
  1  2  2  0  0  0  0
  2  3  1  0  0  0  0
  3  4  2  0  0  0  0
  3  5  1  0  0  0  0
  5  6  2  0  0  0  0
  6  7  1  0  0  0  0
  7  8  2  0  0  0  0
  8  9  1  0  0  0  0
  9 10  2  0  0  0  0
 10 11  1  0  0  0  0
 11 12  2  0  0  0  0
 12 13  1  0  0  0  0
 13 14  3  0  0  0  0
 12 15  1  0  0  0  0
 15 16  3  0  0  0  0
  8 17  1  0  0  0  0
 17 18  1  0  0  0  0
 18 19  1  0  0  0  0
 19 20  2  0  0  0  0
 20 21  1  0  0  0  0
 21 22  1  0  0  0  0
 21 23  1  0  0  0  0
  1 24  1  0  0  0  0
 24 25  1  0  0  0  0
 25 26  1  0  0  0  0
 26 27  1  0  0  0  0
 27 28  1  0  0  0  0
 28 29  1  0  0  0  0
 29 30  1  0  0  0  0
 30 31  2  0  0  0  0
 31 32  1  0  0  0  0
 32 33  1  0  0  0  0
 33 34  1  0  0  0  0
 34 35  2  0  0  0  0
 35 36  1  0  0  0  0
 36 37  2  0  0  0  0
 37 38  1  0  0  0  0
 38 39  1  0  0  0  0
 37 40  1  0  0  0  0
 40 41  2  0  0  0  0
 33 42  1  0  0  0  0
 42 43  2  0  0  0  0
 43 44  1  0  0  0  0
 44 45  2  0  0  0  0
 45 46  1  0  0  0  0
 46 47  1  0  0  0  0
 45 48  1  0  0  0  0
 48 49  2  0  0  0  0
 33 50  1  0  0  0  0
 50 51  2  0  0  0  0
 51 52  1  0  0  0  0
 52 53  1  0  0  0  0
 53 54  2  0  0  0  0
 54 55  1  0  0  0  0
 55 56  1  0  0  0  0
 56 57  2  0  0  0  0
 57 58  1  0  0  0  0
 58 59  2  0  0  0  0
 59 60  1  0  0  0  0
 60 61  1  0  0  0  0
 59 62  1  0  0  0  0
 62 63  2  0  0  0  0
 55 64  1  0  0  0  0
 64 65  2  0  0  0  0
 65 66  1  0  0  0  0
 66 67  2  0  0  0  0
 67 68  1  0  0  0  0
 68 69  1  0  0  0  0
 67 70  1  0  0  0  0
 70 71  2  0  0  0  0
 55 72  1  0  0  0  0
 72 73  1  0  0  0  0
 73 74  1  0  0  0  0
 74 75  1  0  0  0  0
 75 76  1  0  0  0  0
 74 77  1  0  0  0  0
 77 78  2  0  0  0  0
 78 79  1  0  0  0  0
 79 80  2  0  0  0  0
 80 81  1  0  0  0  0
 81 82  1  0  0  0  0
 80 83  1  0  0  0  0
 51 84  1  0  0  0  0
 84 85  1  0  0  0  0
 85 86  2  0  0  0  0
 85 87  1  0  0  0  0
 87 88  2  0  0  0  0
 88 89  1  0  0  0  0
 89 90  2  0  0  0  0
 89 91  1  0  0  0  0
 91 92  2  0  0  0  0
 92 93  1  0  0  0  0
 93 94  2  0  0  0  0
 94 95  1  0  0  0  0
 95 96  2  0  0  0  0
 96 97  1  0  0  0  0
 97 98  2  0  0  0  0
 98 99  1  0  0  0  0
 99100  3  0  0  0  0
 98101  1  0  0  0  0
101102  3  0  0  0  0
 94103  1  0  0  0  0
103104  1  0  0  0  0
104105  1  0  0  0  0
105106  2  0  0  0  0
106107  1  0  0  0  0
107108  1  0  0  0  0
107109  1  0  0  0  0
 11  2  1  0  0  0  0
 23 17  1  0  0  0  0
 76 24  2  0  0  0  0
 83 77  1  0  0  0  0
 97 88  1  0  0  0  0
109103  1  0  0  0  0
 10  5  1  0  0  0  0
 22 18  1  0  0  0  0
 75 26  2  0  0  0  0
 96 91  1  0  0  0  0
108104  1  0  0  0  0
 23  7  1  0  0  0  0
 73 27  2  0  0  0  0
109 93  1  0  0  0  0
 72 29  2  0  0  0  0
 54 30  1  0  0  0  0
 63 56  1  0  0  0  0
 71 64  1  0  0  0  0
 52 32  2  0  0  0  0
 41 34  1  0  0  0  0
 49 42  1  0  0  0  0
 86 50  1  0  0  0  0
  1110  1  0  0  0  0
  6111  1  0  0  0  0
  9112  1  0  0  0  0
 17113  1  0  0  0  0
 18114  1  0  0  0  0
 19115  1  0  0  0  0
 20116  1  0  0  0  0
 21117  1  0  0  0  0
 22118  1  0  0  0  0
 22119  1  0  0  0  0
 23120  1  0  0  0  0
 31121  1  0  0  0  0
 35122  1  0  0  0  0
 36123  1  0  0  0  0
 38124  1  0  0  0  0
 38125  1  0  0  0  0
 39126  1  0  0  0  0
 39127  1  0  0  0  0
 39128  1  0  0  0  0
 40129  1  0  0  0  0
 41130  1  0  0  0  0
 43131  1  0  0  0  0
 44132  1  0  0  0  0
 46133  1  0  0  0  0
 46134  1  0  0  0  0
 47135  1  0  0  0  0
 47136  1  0  0  0  0
 47137  1  0  0  0  0
 48138  1  0  0  0  0
 49139  1  0  0  0  0
 53140  1  0  0  0  0
 57141  1  0  0  0  0
 58142  1  0  0  0  0
 60143  1  0  0  0  0
 60144  1  0  0  0  0
 61145  1  0  0  0  0
 61146  1  0  0  0  0
 61147  1  0  0  0  0
 62148  1  0  0  0  0
 63149  1  0  0  0  0
 65150  1  0  0  0  0
 66151  1  0  0  0  0
 68152  1  0  0  0  0
 68153  1  0  0  0  0
 69154  1  0  0  0  0
 69155  1  0  0  0  0
 69156  1  0  0  0  0
 70157  1  0  0  0  0
 71158  1  0  0  0  0
 76159  1  0  0  0  0
 78160  1  0  0  0  0
 79161  1  0  0  0  0
 81162  1  0  0  0  0
 81163  1  0  0  0  0
 82164  1  0  0  0  0
 82165  1  0  0  0  0
 82166  1  0  0  0  0
 86167  1  0  0  0  0
 87168  1  0  0  0  0
 92169  1  0  0  0  0
 95170  1  0  0  0  0
103171  1  0  0  0  0
104172  1  0  0  0  0
105173  1  0  0  0  0
106174  1  0  0  0  0
107175  1  0  0  0  0
108176  1  0  0  0  0
108177  1  0  0  0  0
109178  1  0  0  0  0
M  END
