
  xtb     02102222193D
 energy: -270.854266718093 gnorm: 0.000594342525 xtb: 6.4.1 (unknown)
165183  0     0  0            999 V2000
   -7.4482   -0.1134    2.4044 C   0  0  0  0  0  0  0  0  0  0  0  0
   -8.0672    0.8085    3.2054 C   0  0  0  0  0  0  0  0  0  0  0  0
   -7.4956    2.0082    3.8576 C   0  0  0  0  0  0  0  0  0  0  0  0
   -6.4436    2.5738    3.6319 O   0  0  0  0  0  0  0  0  0  0  0  0
   -8.4750    2.4093    4.8861 C   0  0  0  0  0  0  0  0  0  0  0  0
   -8.3283    3.4319    5.8208 C   0  0  0  0  0  0  0  0  0  0  0  0
   -9.3968    3.5684    6.6735 C   0  0  0  0  0  0  0  0  0  0  0  0
  -10.5283    2.7441    6.6060 C   0  0  0  0  0  0  0  0  0  0  0  0
  -10.6875    1.7347    5.6872 C   0  0  0  0  0  0  0  0  0  0  0  0
   -9.6134    1.5846    4.8056 C   0  0  0  0  0  0  0  0  0  0  0  0
   -9.4211    0.6426    3.7075 C   0  0  0  0  0  0  0  0  0  0  0  0
  -10.3873   -0.1835    3.1951 C   0  0  0  0  0  0  0  0  0  0  0  0
  -10.2481   -1.0009    2.0527 C   0  0  0  0  0  0  0  0  0  0  0  0
  -10.2351   -1.6728    1.1211 N   0  0  0  0  0  0  0  0  0  0  0  0
  -11.6969   -0.2899    3.7084 C   0  0  0  0  0  0  0  0  0  0  0  0
  -12.7762   -0.4323    4.0735 N   0  0  0  0  0  0  0  0  0  0  0  0
  -11.2042    3.4415    7.7592 C   0  0  0  0  0  0  0  0  0  0  0  0
  -12.3408    4.4400    7.4289 C   0  0  0  0  0  0  0  0  0  0  0  0
  -12.0658    4.9576    6.0388 C   0  0  0  0  0  0  0  0  0  0  0  0
  -10.9969    5.7402    6.1023 C   0  0  0  0  0  0  0  0  0  0  0  0
  -10.5291    5.7653    7.5365 C   0  0  0  0  0  0  0  0  0  0  0  0
  -11.8782    5.6450    8.2633 C   0  0  0  0  0  0  0  0  0  0  0  0
   -9.9451    4.3617    7.8335 C   0  0  0  0  0  0  0  0  0  0  0  0
   -6.1612   -0.1360    1.8386 C   0  0  0  0  0  0  0  0  0  0  0  0
   -5.6848   -1.6669    1.0756 S   0  0  0  0  0  0  0  0  0  0  0  0
   -4.1572   -1.0040    0.6678 C   0  0  0  0  0  0  0  0  0  0  0  0
   -2.9475   -1.3313    0.0618 C   0  0  0  0  0  0  0  0  0  0  0  0
   -2.1642   -2.7009   -0.6516 S   0  0  0  0  0  0  0  0  0  0  0  0
   -0.7403   -1.7339   -0.8468 C   0  0  0  0  0  0  0  0  0  0  0  0
    0.5840   -2.0094   -1.3021 C   0  0  0  0  0  0  0  0  0  0  0  0
    1.1520   -3.1812   -1.7954 C   0  0  0  0  0  0  0  0  0  0  0  0
    2.4895   -3.1459   -2.1128 C   0  0  0  0  0  0  0  0  0  0  0  0
    3.3556   -4.2650   -2.6654 C   0  0  0  0  0  0  0  0  0  0  0  0
    2.7576   -4.7335   -3.9807 C   0  0  0  0  0  0  0  0  0  0  0  0
    3.1406   -4.1653   -5.1878 C   0  0  0  0  0  0  0  0  0  0  0  0
    2.5623   -4.5881   -6.3709 C   0  0  0  0  0  0  0  0  0  0  0  0
    1.5872   -5.5761   -6.3795 C   0  0  0  0  0  0  0  0  0  0  0  0
    0.9366   -6.0042   -7.6632 C   0  0  0  0  0  0  0  0  0  0  0  0
   -0.2834   -5.1301   -7.9607 C   0  0  0  0  0  0  0  0  0  0  0  0
    1.1945   -6.1258   -5.1658 C   0  0  0  0  0  0  0  0  0  0  0  0
    1.7698   -5.7105   -3.9801 C   0  0  0  0  0  0  0  0  0  0  0  0
    3.5641   -5.4135   -1.6944 C   0  0  0  0  0  0  0  0  0  0  0  0
    4.1255   -6.5985   -2.1553 C   0  0  0  0  0  0  0  0  0  0  0  0
    4.3702   -7.6437   -1.2864 C   0  0  0  0  0  0  0  0  0  0  0  0
    4.0665   -7.5338    0.0650 C   0  0  0  0  0  0  0  0  0  0  0  0
    4.3727   -8.6554    1.0149 C   0  0  0  0  0  0  0  0  0  0  0  0
    5.7944   -8.5167    1.5634 C   0  0  0  0  0  0  0  0  0  0  0  0
    3.5204   -6.3428    0.5223 C   0  0  0  0  0  0  0  0  0  0  0  0
    3.2747   -5.2920   -0.3433 C   0  0  0  0  0  0  0  0  0  0  0  0
    4.6742   -3.5546   -2.8286 C   0  0  0  0  0  0  0  0  0  0  0  0
    4.5595   -2.2338   -2.4069 C   0  0  0  0  0  0  0  0  0  0  0  0
    3.2360   -1.9529   -1.9609 C   0  0  0  0  0  0  0  0  0  0  0  0
    2.6670   -0.7811   -1.4650 C   0  0  0  0  0  0  0  0  0  0  0  0
    1.3359   -0.8229   -1.1309 C   0  0  0  0  0  0  0  0  0  0  0  0
    0.4638    0.2982   -0.5756 C   0  0  0  0  0  0  0  0  0  0  0  0
    0.4434    1.3960   -1.6198 C   0  0  0  0  0  0  0  0  0  0  0  0
   -0.5937    1.4878   -2.5387 C   0  0  0  0  0  0  0  0  0  0  0  0
   -0.5778    2.4563   -3.5267 C   0  0  0  0  0  0  0  0  0  0  0  0
    0.4757    3.3538   -3.6303 C   0  0  0  0  0  0  0  0  0  0  0  0
    0.5155    4.3741   -4.7300 C   0  0  0  0  0  0  0  0  0  0  0  0
    1.2370    3.8073   -5.9547 C   0  0  0  0  0  0  0  0  0  0  0  0
    1.5217    3.2457   -2.7227 C   0  0  0  0  0  0  0  0  0  0  0  0
    1.5104    2.2796   -1.7351 C   0  0  0  0  0  0  0  0  0  0  0  0
    0.9119    0.7345    0.8094 C   0  0  0  0  0  0  0  0  0  0  0  0
    1.2802   -0.2422    1.7287 C   0  0  0  0  0  0  0  0  0  0  0  0
    1.6139    0.0986    3.0245 C   0  0  0  0  0  0  0  0  0  0  0  0
    1.5861    1.4230    3.4436 C   0  0  0  0  0  0  0  0  0  0  0  0
    1.9828    1.7936    4.8432 C   0  0  0  0  0  0  0  0  0  0  0  0
    3.4910    2.0376    4.9262 C   0  0  0  0  0  0  0  0  0  0  0  0
    1.2237    2.3938    2.5216 C   0  0  0  0  0  0  0  0  0  0  0  0
    0.8832    2.0573    1.2239 C   0  0  0  0  0  0  0  0  0  0  0  0
   -0.8557   -0.4200   -0.4174 C   0  0  0  0  0  0  0  0  0  0  0  0
   -2.1238   -0.1757    0.1158 C   0  0  0  0  0  0  0  0  0  0  0  0
   -2.8138    0.8438    0.7294 N   0  0  0  0  0  0  0  0  0  0  0  0
   -4.0478    0.3439    1.0886 C   0  0  0  0  0  0  0  0  0  0  0  0
   -5.1700    0.8296    1.7430 C   0  0  0  0  0  0  0  0  0  0  0  0
   -2.3976    2.1425    0.9983 C   0  0  0  0  0  0  0  0  0  0  0  0
   -1.9888    3.0997    0.1229 C   0  0  0  0  0  0  0  0  0  0  0  0
   -1.6850    4.3183    0.7675 C   0  0  0  0  0  0  0  0  0  0  0  0
   -1.8765    4.2891    2.1145 C   0  0  0  0  0  0  0  0  0  0  0  0
   -1.7197    5.4125    3.0843 C   0  0  0  0  0  0  0  0  0  0  0  0
   -1.3220    4.9414    4.4788 C   0  0  0  0  0  0  0  0  0  0  0  0
   -2.4229    2.7306    2.6370 S   0  0  0  0  0  0  0  0  0  0  0  0
    6.0180   -1.3584   -2.5765 S   0  0  0  0  0  0  0  0  0  0  0  0
    6.8114   -2.7884   -3.2308 C   0  0  0  0  0  0  0  0  0  0  0  0
    5.9499   -3.8806   -3.2556 C   0  0  0  0  0  0  0  0  0  0  0  0
    8.1679   -2.7936   -3.6076 C   0  0  0  0  0  0  0  0  0  0  0  0
    8.9650   -1.7354   -3.9418 C   0  0  0  0  0  0  0  0  0  0  0  0
   10.4383   -1.8459   -3.8297 C   0  0  0  0  0  0  0  0  0  0  0  0
   11.0887   -2.8523   -3.6667 O   0  0  0  0  0  0  0  0  0  0  0  0
   10.9320   -0.4485   -3.8999 C   0  0  0  0  0  0  0  0  0  0  0  0
   12.2186    0.0205   -3.7313 C   0  0  0  0  0  0  0  0  0  0  0  0
   12.4377    1.3909   -3.8148 C   0  0  0  0  0  0  0  0  0  0  0  0
   14.0178    2.0398   -3.6108 Cl  0  0  0  0  0  0  0  0  0  0  0  0
   11.3616    2.2450   -4.0654 C   0  0  0  0  0  0  0  0  0  0  0  0
   11.5795    3.5645   -4.1292 F   0  0  0  0  0  0  0  0  0  0  0  0
   10.0680    1.7813   -4.2491 C   0  0  0  0  0  0  0  0  0  0  0  0
    9.8540    0.4158   -4.1641 C   0  0  0  0  0  0  0  0  0  0  0  0
    8.6446   -0.3844   -4.3418 C   0  0  0  0  0  0  0  0  0  0  0  0
    7.5288    0.0122   -5.0343 C   0  0  0  0  0  0  0  0  0  0  0  0
    6.5299   -0.8846   -5.4664 C   0  0  0  0  0  0  0  0  0  0  0  0
    5.7279   -1.5921   -5.8842 N   0  0  0  0  0  0  0  0  0  0  0  0
    7.2999    1.3324   -5.4677 C   0  0  0  0  0  0  0  0  0  0  0  0
    7.0550    2.3979   -5.8177 N   0  0  0  0  0  0  0  0  0  0  0  0
   -8.0163   -1.0123    2.1921 H   0  0  0  0  0  0  0  0  0  0  0  0
   -7.4364    4.0387    5.8418 H   0  0  0  0  0  0  0  0  0  0  0  0
  -11.5606    1.1050    5.6523 H   0  0  0  0  0  0  0  0  0  0  0  0
  -11.4346    2.8216    8.6234 H   0  0  0  0  0  0  0  0  0  0  0  0
  -13.3424    4.0592    7.6094 H   0  0  0  0  0  0  0  0  0  0  0  0
  -12.6247    4.6642    5.1695 H   0  0  0  0  0  0  0  0  0  0  0  0
  -10.4838    6.2317    5.2964 H   0  0  0  0  0  0  0  0  0  0  0  0
   -9.8817    6.5923    7.8166 H   0  0  0  0  0  0  0  0  0  0  0  0
  -11.7810    5.4253    9.3257 H   0  0  0  0  0  0  0  0  0  0  0  0
  -12.5105    6.5207    8.1249 H   0  0  0  0  0  0  0  0  0  0  0  0
   -9.3533    4.3432    8.7470 H   0  0  0  0  0  0  0  0  0  0  0  0
    0.5592   -4.0749   -1.9121 H   0  0  0  0  0  0  0  0  0  0  0  0
    3.8956   -3.3938   -5.2160 H   0  0  0  0  0  0  0  0  0  0  0  0
    2.8804   -4.1419   -7.3018 H   0  0  0  0  0  0  0  0  0  0  0  0
    1.6494   -5.9181   -8.4856 H   0  0  0  0  0  0  0  0  0  0  0  0
    0.6225   -7.0475   -7.5900 H   0  0  0  0  0  0  0  0  0  0  0  0
   -1.0125   -5.2121   -7.1577 H   0  0  0  0  0  0  0  0  0  0  0  0
    0.0122   -4.0870   -8.0484 H   0  0  0  0  0  0  0  0  0  0  0  0
   -0.7546   -5.4379   -8.8912 H   0  0  0  0  0  0  0  0  0  0  0  0
    0.4328   -6.8923   -5.1480 H   0  0  0  0  0  0  0  0  0  0  0  0
    1.4602   -6.1616   -3.0481 H   0  0  0  0  0  0  0  0  0  0  0  0
    4.3589   -6.7048   -3.2048 H   0  0  0  0  0  0  0  0  0  0  0  0
    4.8008   -8.5606   -1.6629 H   0  0  0  0  0  0  0  0  0  0  0  0
    3.6639   -8.6417    1.8452 H   0  0  0  0  0  0  0  0  0  0  0  0
    4.2780   -9.6133    0.4998 H   0  0  0  0  0  0  0  0  0  0  0  0
    6.0177   -9.3281    2.2520 H   0  0  0  0  0  0  0  0  0  0  0  0
    5.9058   -7.5720    2.0910 H   0  0  0  0  0  0  0  0  0  0  0  0
    6.5174   -8.5411    0.7511 H   0  0  0  0  0  0  0  0  0  0  0  0
    3.2811   -6.2340    1.5707 H   0  0  0  0  0  0  0  0  0  0  0  0
    2.8518   -4.3743    0.0388 H   0  0  0  0  0  0  0  0  0  0  0  0
    3.2635    0.1100   -1.3511 H   0  0  0  0  0  0  0  0  0  0  0  0
   -1.4237    0.7975   -2.4870 H   0  0  0  0  0  0  0  0  0  0  0  0
   -1.3991    2.5135   -4.2270 H   0  0  0  0  0  0  0  0  0  0  0  0
   -0.5011    4.6582   -5.0099 H   0  0  0  0  0  0  0  0  0  0  0  0
    1.0392    5.2687   -4.3868 H   0  0  0  0  0  0  0  0  0  0  0  0
    1.2659    4.5448   -6.7531 H   0  0  0  0  0  0  0  0  0  0  0  0
    2.2575    3.5310   -5.6999 H   0  0  0  0  0  0  0  0  0  0  0  0
    0.7242    2.9198   -6.3188 H   0  0  0  0  0  0  0  0  0  0  0  0
    2.3582    3.9264   -2.7913 H   0  0  0  0  0  0  0  0  0  0  0  0
    2.3364    2.2201   -1.0419 H   0  0  0  0  0  0  0  0  0  0  0  0
    1.3001   -1.2798    1.4265 H   0  0  0  0  0  0  0  0  0  0  0  0
    1.8930   -0.6764    3.7241 H   0  0  0  0  0  0  0  0  0  0  0  0
    1.7100    0.9894    5.5293 H   0  0  0  0  0  0  0  0  0  0  0  0
    1.4547    2.6979    5.1524 H   0  0  0  0  0  0  0  0  0  0  0  0
    4.0355    1.1426    4.6337 H   0  0  0  0  0  0  0  0  0  0  0  0
    3.7781    2.3031    5.9409 H   0  0  0  0  0  0  0  0  0  0  0  0
    3.7809    2.8468    4.2597 H   0  0  0  0  0  0  0  0  0  0  0  0
    1.1986    3.4328    2.8177 H   0  0  0  0  0  0  0  0  0  0  0  0
    0.5889    2.8359    0.5382 H   0  0  0  0  0  0  0  0  0  0  0  0
   -5.2835    1.8181    2.1472 H   0  0  0  0  0  0  0  0  0  0  0  0
   -1.9061    2.9434   -0.9373 H   0  0  0  0  0  0  0  0  0  0  0  0
   -1.3460    5.1914    0.2386 H   0  0  0  0  0  0  0  0  0  0  0  0
   -0.9727    6.1077    2.6923 H   0  0  0  0  0  0  0  0  0  0  0  0
   -2.6685    5.9559    3.1509 H   0  0  0  0  0  0  0  0  0  0  0  0
   -0.3895    4.3831    4.4422 H   0  0  0  0  0  0  0  0  0  0  0  0
   -2.0918    4.2930    4.8914 H   0  0  0  0  0  0  0  0  0  0  0  0
   -1.1930    5.7926    5.1429 H   0  0  0  0  0  0  0  0  0  0  0  0
    6.2573   -4.8442   -3.6191 H   0  0  0  0  0  0  0  0  0  0  0  0
    8.6686   -3.7559   -3.5574 H   0  0  0  0  0  0  0  0  0  0  0  0
   13.0323   -0.6608   -3.5404 H   0  0  0  0  0  0  0  0  0  0  0  0
    9.2768    2.4886   -4.4388 H   0  0  0  0  0  0  0  0  0  0  0  0
  1  2  2  0  0  0  0
  2  3  1  0  0  0  0
  3  4  2  0  0  0  0
  3  5  1  0  0  0  0
  5  6  2  0  0  0  0
  6  7  1  0  0  0  0
  7  8  2  0  0  0  0
  8  9  1  0  0  0  0
  9 10  2  0  0  0  0
 10 11  1  0  0  0  0
 11 12  2  0  0  0  0
 12 13  1  0  0  0  0
 13 14  3  0  0  0  0
 12 15  1  0  0  0  0
 15 16  3  0  0  0  0
  8 17  1  0  0  0  0
 17 18  1  0  0  0  0
 18 19  1  0  0  0  0
 19 20  2  0  0  0  0
 20 21  1  0  0  0  0
 21 22  1  0  0  0  0
 21 23  1  0  0  0  0
  1 24  1  0  0  0  0
 24 25  1  0  0  0  0
 25 26  1  0  0  0  0
 26 27  1  0  0  0  0
 27 28  1  0  0  0  0
 28 29  1  0  0  0  0
 29 30  1  0  0  0  0
 30 31  2  0  0  0  0
 31 32  1  0  0  0  0
 32 33  1  0  0  0  0
 33 34  1  0  0  0  0
 34 35  2  0  0  0  0
 35 36  1  0  0  0  0
 36 37  2  0  0  0  0
 37 38  1  0  0  0  0
 38 39  1  0  0  0  0
 37 40  1  0  0  0  0
 40 41  2  0  0  0  0
 33 42  1  0  0  0  0
 42 43  2  0  0  0  0
 43 44  1  0  0  0  0
 44 45  2  0  0  0  0
 45 46  1  0  0  0  0
 46 47  1  0  0  0  0
 45 48  1  0  0  0  0
 48 49  2  0  0  0  0
 33 50  1  0  0  0  0
 50 51  2  0  0  0  0
 51 52  1  0  0  0  0
 52 53  1  0  0  0  0
 53 54  2  0  0  0  0
 54 55  1  0  0  0  0
 55 56  1  0  0  0  0
 56 57  2  0  0  0  0
 57 58  1  0  0  0  0
 58 59  2  0  0  0  0
 59 60  1  0  0  0  0
 60 61  1  0  0  0  0
 59 62  1  0  0  0  0
 62 63  2  0  0  0  0
 55 64  1  0  0  0  0
 64 65  2  0  0  0  0
 65 66  1  0  0  0  0
 66 67  2  0  0  0  0
 67 68  1  0  0  0  0
 68 69  1  0  0  0  0
 67 70  1  0  0  0  0
 70 71  2  0  0  0  0
 55 72  1  0  0  0  0
 72 73  1  0  0  0  0
 73 74  1  0  0  0  0
 74 75  1  0  0  0  0
 75 76  1  0  0  0  0
 74 77  1  0  0  0  0
 77 78  2  0  0  0  0
 78 79  1  0  0  0  0
 79 80  2  0  0  0  0
 80 81  1  0  0  0  0
 81 82  1  0  0  0  0
 80 83  1  0  0  0  0
 51 84  1  0  0  0  0
 84 85  1  0  0  0  0
 85 86  2  0  0  0  0
 85 87  1  0  0  0  0
 87 88  2  0  0  0  0
 88 89  1  0  0  0  0
 89 90  2  0  0  0  0
 89 91  1  0  0  0  0
 91 92  2  0  0  0  0
 92 93  1  0  0  0  0
 93 94  1  0  0  0  0
 93 95  2  0  0  0  0
 95 96  1  0  0  0  0
 95 97  1  0  0  0  0
 97 98  2  0  0  0  0
 98 99  1  0  0  0  0
 99100  2  0  0  0  0
100101  1  0  0  0  0
101102  3  0  0  0  0
100103  1  0  0  0  0
103104  3  0  0  0  0
 11  2  1  0  0  0  0
 23 17  1  0  0  0  0
 76 24  2  0  0  0  0
 83 77  1  0  0  0  0
 99 88  1  0  0  0  0
 10  5  1  0  0  0  0
 22 18  1  0  0  0  0
 75 26  2  0  0  0  0
 98 91  1  0  0  0  0
 23  7  1  0  0  0  0
 73 27  2  0  0  0  0
 72 29  2  0  0  0  0
 54 30  1  0  0  0  0
 63 56  1  0  0  0  0
 71 64  1  0  0  0  0
 52 32  2  0  0  0  0
 41 34  1  0  0  0  0
 49 42  1  0  0  0  0
 86 50  1  0  0  0  0
  1105  1  0  0  0  0
  6106  1  0  0  0  0
  9107  1  0  0  0  0
 17108  1  0  0  0  0
 18109  1  0  0  0  0
 19110  1  0  0  0  0
 20111  1  0  0  0  0
 21112  1  0  0  0  0
 22113  1  0  0  0  0
 22114  1  0  0  0  0
 23115  1  0  0  0  0
 31116  1  0  0  0  0
 35117  1  0  0  0  0
 36118  1  0  0  0  0
 38119  1  0  0  0  0
 38120  1  0  0  0  0
 39121  1  0  0  0  0
 39122  1  0  0  0  0
 39123  1  0  0  0  0
 40124  1  0  0  0  0
 41125  1  0  0  0  0
 43126  1  0  0  0  0
 44127  1  0  0  0  0
 46128  1  0  0  0  0
 46129  1  0  0  0  0
 47130  1  0  0  0  0
 47131  1  0  0  0  0
 47132  1  0  0  0  0
 48133  1  0  0  0  0
 49134  1  0  0  0  0
 53135  1  0  0  0  0
 57136  1  0  0  0  0
 58137  1  0  0  0  0
 60138  1  0  0  0  0
 60139  1  0  0  0  0
 61140  1  0  0  0  0
 61141  1  0  0  0  0
 61142  1  0  0  0  0
 62143  1  0  0  0  0
 63144  1  0  0  0  0
 65145  1  0  0  0  0
 66146  1  0  0  0  0
 68147  1  0  0  0  0
 68148  1  0  0  0  0
 69149  1  0  0  0  0
 69150  1  0  0  0  0
 69151  1  0  0  0  0
 70152  1  0  0  0  0
 71153  1  0  0  0  0
 76154  1  0  0  0  0
 78155  1  0  0  0  0
 79156  1  0  0  0  0
 81157  1  0  0  0  0
 81158  1  0  0  0  0
 82159  1  0  0  0  0
 82160  1  0  0  0  0
 82161  1  0  0  0  0
 86162  1  0  0  0  0
 87163  1  0  0  0  0
 92164  1  0  0  0  0
 97165  1  0  0  0  0
M  END
