168

C         -1.10750        6.78580        2.77400
C         -1.96100        7.72430        2.26100
C         -2.82320        7.63800        1.06000
O         -3.18670        6.65170        0.45030
C         -3.16950        9.03100        0.71740
C         -3.86680        9.46290       -0.40860
C         -4.01630       10.82650       -0.48550
C         -3.50510       11.70010        0.48410
C         -2.82140       11.28720        1.60270
C         -2.66530        9.90190        1.70270
C         -2.00380        9.10070        2.72730
C         -1.58230        9.56060        3.94720
C         -1.06140        8.75730        4.98440
N         -0.65820        8.17300        5.88730
C         -1.67370       10.90520        4.36310
N         -1.71380       11.98110        4.76190
C         -4.01070       12.92420       -0.23720
C         -5.28130       13.61490        0.31590
C         -6.06850       12.54850        1.03620
C         -6.55740       11.72020        0.12290
C         -6.10990       12.21170       -1.23150
C         -6.10040       13.72800       -0.97980
C         -4.58530       11.95080       -1.31420
C         -0.89240        5.44120        2.41900
S          0.55990        4.68730        3.10850
C          0.22380        3.23200        2.26550
C          0.73610        1.95830        2.02610
S          2.09750        0.98020        2.46240
C          1.46500       -0.28200        1.45830
C          1.91120       -1.59420        1.11560
C          3.05540       -2.29490        1.48780
C          3.22380       -3.55200        0.95570
C          4.39140       -4.50540        1.14760
C          5.65530       -3.78780        0.70400
C          6.09410       -3.85010       -0.61140
C          7.21830       -3.14670       -1.00410
C          7.92140       -2.35780       -0.10400
C          9.16710       -1.63290       -0.52480
C         10.39480       -2.52410       -0.32610
C          7.47100       -2.29280        1.20830
C          6.35030       -2.99480        1.60880
C          4.51610       -5.06050        2.55430
C          3.48180       -4.96630        3.47340
C          3.61210       -5.52450        4.73270
C          4.77010       -6.19410        5.10210
C          4.89160       -6.83710        6.45330
C          4.40480       -8.28670        6.40030
C          5.79690       -6.29850        4.17170
C          5.67270       -5.74230        2.91380
C          3.99360       -5.63550        0.23370
C          2.76870       -5.35560       -0.36470
C          2.27140       -4.08890        0.05670
C          1.11630       -3.39500       -0.30010
C          0.94420       -2.14500        0.24090
C         -0.19010       -1.15930       -0.00700
C         -0.24200       -0.88110       -1.49540
C         -0.91350       -1.74710       -2.35070
C         -0.96060       -1.49720       -3.70830
C         -0.32470       -0.38920       -4.25340
C         -0.45850       -0.07120       -5.71370
C         -1.73110        0.74420       -5.95380
C          0.38500        0.44600       -3.40300
C          0.43130        0.20210       -2.04260
C         -1.50640       -1.63600        0.58750
C         -1.49730       -2.31400        1.80110
C         -2.68030       -2.68840        2.40860
C         -3.90630       -2.38980        1.82800
C         -5.19230       -2.82390        2.46910
C         -5.60550       -4.20560        1.95830
C         -3.91100       -1.71440        0.61600
C         -2.72960       -1.33520        0.00600
C          0.27250        0.01860        0.81720
C         -0.16170        1.30500        1.14310
N         -1.20890        2.14980        0.85340
C         -0.97810        3.33240        1.52440
C         -1.60310        4.56760        1.60990
C         -2.33500        1.89940        0.07700
C         -3.60080        1.70030        0.54050
C         -4.50460        1.52450       -0.52160
S         -6.19150        1.17910       -0.64160
C         -6.08880        1.14810       -2.38770
C         -7.32330        0.91710       -3.18820
C         -8.23020        2.14960       -3.17380
C         -4.82930        1.39230       -2.83990
C         -3.92360        1.60470       -1.78050
S         -2.22990        1.91950       -1.67630
S          2.26470       -6.58200       -1.44300
C          3.72450       -7.50270       -1.09090
C          4.51500       -6.86130       -0.14260
C          3.98970       -8.74500       -1.69770
C          3.45600       -9.24070       -2.85150
C          3.48400      -10.69020       -3.14460
O          4.13010      -11.53700       -2.57560
C          2.49370      -10.87650       -4.23800
C          2.00640      -12.05180       -4.78260
Cl         2.63460      -13.57070       -4.32500
C          0.96920      -11.96790       -5.72360
Cl         0.35550      -13.39300       -6.44220
C          0.41200      -10.73190       -6.04850
Cl        -0.91090      -10.66440       -7.13010
C          0.91090       -9.54290       -5.49430
Cl         0.09100       -8.07020       -5.81020
C          1.99350       -9.61810       -4.63130
C          2.77010       -8.58610       -3.94660
C          3.11220       -7.36040       -4.45390
C          4.07680       -6.52770       -3.84390
N          4.88030       -5.83280       -3.40940
C          2.72800       -6.84540       -5.70930
N          2.52480       -6.37100       -6.73420
H         -0.42830        7.13260        3.54510
H         -4.23580        8.75690       -1.13620
H         -2.42640       11.97070        2.33570
H         -3.25210       13.63920       -0.54980
H         -5.09230       14.52960        0.87120
H         -6.13770       12.47570        2.10570
H         -7.11690       10.81610        0.27700
H         -6.67670       11.84950       -2.08530
H         -7.09720       14.13370       -0.81400
H         -5.59810       14.29470       -1.76270
H         -4.20550       12.03360       -2.33090
H          3.77740       -1.85600        2.15850
H          5.56600       -4.44850       -1.33850
H          7.54790       -3.21140       -2.03080
H          9.09370       -1.35130       -1.57700
H          9.28400       -0.72220        0.06630
H         11.29870       -2.00140       -0.63010
H         10.30190       -3.43160       -0.91850
H         10.49170       -2.80660        0.71990
H          8.00120       -1.68250        1.92570
H          6.02040       -2.93560        2.63630
H          2.56930       -4.45200        3.20890
H          2.79950       -5.43540        5.43970
H          4.29600       -6.28390        7.18220
H          5.93350       -6.81980        6.77920
H          3.36260       -8.32470        6.09110
H          4.49480       -8.75450        7.37780
H          4.99360       -8.85790        5.68610
H          6.70570       -6.81930        4.43740
H          6.48470       -5.82420        2.20580
H          0.40430       -3.82970       -0.98380
H         -1.42110       -2.61320       -1.95110
H         -1.50140       -2.17360       -4.35500
H          0.40670        0.50210       -6.05120
H         -0.50600       -0.99450       -6.29430
H         -1.83350        0.99120       -7.00800
H         -2.60560        0.17580       -5.64330
H         -1.70030        1.66780       -5.37940
H          0.90300        1.30420       -3.80590
H          0.98970        0.87090       -1.40390
H         -0.55530       -2.54820        2.27630
H         -2.65060       -3.21410        3.35240
H         -5.98040       -2.10450        2.23750
H         -5.07090       -2.86270        3.55340
H         -5.74930       -4.18290        0.88040
H         -6.53470       -4.52180        2.42640
H         -4.83470       -4.93900        2.18500
H         -4.85270       -1.47130        0.14510
H         -2.76700       -0.80810       -0.93470
H         -2.51240        4.84410        1.11010
H         -3.85680        1.66360        1.58290
H         -7.87180        0.06540       -2.77870
H         -7.03830        0.68120       -4.21530
H         -7.70730        3.00860       -3.58760
H         -9.12300        1.96610       -3.76570
H         -8.52990        2.38470       -2.15510
H         -4.55830        1.41710       -3.87930
H          5.44680       -7.27310        0.19970
H          4.64360       -9.41690       -1.15140
