
  xtb     02022214033D
 energy: -282.674505565529 gnorm: 0.000217896103 xtb: 6.4.1 (unknown)
181202  0     0  0            999 V2000
    7.0108    2.0341    2.4001 C   0  0  0  0  0  0  0  0  0  0  0  0
    7.3436    3.3442    2.1661 C   0  0  0  0  0  0  0  0  0  0  0  0
    6.4215    4.4059    1.7472 C   0  0  0  0  0  0  0  0  0  0  0  0
    5.2030    4.3872    1.7644 O   0  0  0  0  0  0  0  0  0  0  0  0
    7.2650    5.5199    1.2785 C   0  0  0  0  0  0  0  0  0  0  0  0
    6.8351    6.6992    0.6746 C   0  0  0  0  0  0  0  0  0  0  0  0
    7.8567    7.5371    0.2969 C   0  0  0  0  0  0  0  0  0  0  0  0
    9.2065    7.2278    0.5087 C   0  0  0  0  0  0  0  0  0  0  0  0
    9.6434    6.0693    1.1071 C   0  0  0  0  0  0  0  0  0  0  0  0
    8.6198    5.1999    1.4955 C   0  0  0  0  0  0  0  0  0  0  0  0
    8.6902    3.8773    2.1158 C   0  0  0  0  0  0  0  0  0  0  0  0
    9.8294    3.2835    2.5956 C   0  0  0  0  0  0  0  0  0  0  0  0
    9.8849    2.0312    3.2420 C   0  0  0  0  0  0  0  0  0  0  0  0
   10.0158    1.0272    3.7852 N   0  0  0  0  0  0  0  0  0  0  0  0
   11.1132    3.8641    2.5427 C   0  0  0  0  0  0  0  0  0  0  0  0
   12.1857    4.2746    2.5327 N   0  0  0  0  0  0  0  0  0  0  0  0
    9.6830    8.5086   -0.1306 C   0  0  0  0  0  0  0  0  0  0  0  0
   10.1429    9.6311    0.8233 C   0  0  0  0  0  0  0  0  0  0  0  0
   10.0867   10.8763   -0.0321 C   0  0  0  0  0  0  0  0  0  0  0  0
    8.8086   11.1689   -0.2356 C   0  0  0  0  0  0  0  0  0  0  0  0
    7.9792   10.1265    0.4791 C   0  0  0  0  0  0  0  0  0  0  0  0
    8.8890    9.8433    1.6813 C   0  0  0  0  0  0  0  0  0  0  0  0
    8.1775    8.8525   -0.3685 C   0  0  0  0  0  0  0  0  0  0  0  0
    5.7628    1.3974    2.3648 C   0  0  0  0  0  0  0  0  0  0  0  0
    5.6382    0.0001    2.3808 C   0  0  0  0  0  0  0  0  0  0  0  0
    4.3338   -0.4144    2.2279 C   0  0  0  0  0  0  0  0  0  0  0  0
    3.5948   -1.7248    2.1041 C   0  0  0  0  0  0  0  0  0  0  0  0
    3.6982   -2.4195    3.4521 C   0  0  0  0  0  0  0  0  0  0  0  0
    2.6703   -2.3835    4.3822 C   0  0  0  0  0  0  0  0  0  0  0  0
    2.8261   -2.9810    5.6205 C   0  0  0  0  0  0  0  0  0  0  0  0
    4.0105   -3.6168    5.9646 C   0  0  0  0  0  0  0  0  0  0  0  0
    4.1616   -4.2974    7.2944 C   0  0  0  0  0  0  0  0  0  0  0  0
    3.7103   -5.7566    7.2033 C   0  0  0  0  0  0  0  0  0  0  0  0
    5.0387   -3.6458    5.0304 C   0  0  0  0  0  0  0  0  0  0  0  0
    4.8878   -3.0528    3.7927 C   0  0  0  0  0  0  0  0  0  0  0  0
    4.0731   -2.6125    0.9746 C   0  0  0  0  0  0  0  0  0  0  0  0
    3.8059   -3.9759    1.0002 C   0  0  0  0  0  0  0  0  0  0  0  0
    4.1911   -4.7864   -0.0504 C   0  0  0  0  0  0  0  0  0  0  0  0
    4.8462   -4.2590   -1.1557 C   0  0  0  0  0  0  0  0  0  0  0  0
    5.3080   -5.1507   -2.2717 C   0  0  0  0  0  0  0  0  0  0  0  0
    6.7131   -5.6830   -1.9827 C   0  0  0  0  0  0  0  0  0  0  0  0
    5.1026   -2.8949   -1.1806 C   0  0  0  0  0  0  0  0  0  0  0  0
    4.7159   -2.0788   -0.1334 C   0  0  0  0  0  0  0  0  0  0  0  0
    2.1901   -1.2304    1.7963 C   0  0  0  0  0  0  0  0  0  0  0  0
    2.1156    0.1779    1.9150 C   0  0  0  0  0  0  0  0  0  0  0  0
    3.4379    0.6550    2.1609 C   0  0  0  0  0  0  0  0  0  0  0  0
    4.1962    2.1829    2.2199 S   0  0  0  0  0  0  0  0  0  0  0  0
    0.9195    0.8687    1.7324 C   0  0  0  0  0  0  0  0  0  0  0  0
   -0.1742    0.1322    1.3493 C   0  0  0  0  0  0  0  0  0  0  0  0
   -1.5730    0.6373    1.0227 C   0  0  0  0  0  0  0  0  0  0  0  0
   -2.3632    0.9687    2.2792 C   0  0  0  0  0  0  0  0  0  0  0  0
   -3.4191    1.8694    2.2512 C   0  0  0  0  0  0  0  0  0  0  0  0
   -4.1801    2.0970    3.3829 C   0  0  0  0  0  0  0  0  0  0  0  0
   -3.9162    1.4288    4.5701 C   0  0  0  0  0  0  0  0  0  0  0  0
   -4.7181    1.7070    5.8087 C   0  0  0  0  0  0  0  0  0  0  0  0
   -4.0721    2.8297    6.6231 C   0  0  0  0  0  0  0  0  0  0  0  0
   -2.8604    0.5268    4.5939 C   0  0  0  0  0  0  0  0  0  0  0  0
   -2.0979    0.2945    3.4653 C   0  0  0  0  0  0  0  0  0  0  0  0
   -1.4061    1.7850    0.0527 C   0  0  0  0  0  0  0  0  0  0  0  0
   -1.2699    3.0905    0.5069 C   0  0  0  0  0  0  0  0  0  0  0  0
   -1.0390    4.1225   -0.3829 C   0  0  0  0  0  0  0  0  0  0  0  0
   -0.9173    3.8795   -1.7445 C   0  0  0  0  0  0  0  0  0  0  0  0
   -0.6169    4.9993   -2.6984 C   0  0  0  0  0  0  0  0  0  0  0  0
    0.8937    5.2220   -2.7965 C   0  0  0  0  0  0  0  0  0  0  0  0
   -1.0169    2.5688   -2.1909 C   0  0  0  0  0  0  0  0  0  0  0  0
   -1.2540    1.5337   -1.3050 C   0  0  0  0  0  0  0  0  0  0  0  0
   -2.1963   -0.6102    0.4364 C   0  0  0  0  0  0  0  0  0  0  0  0
   -1.3174   -1.6766    0.5562 C   0  0  0  0  0  0  0  0  0  0  0  0
   -0.0701   -1.2578    1.1123 C   0  0  0  0  0  0  0  0  0  0  0  0
    1.1042   -1.9606    1.3722 C   0  0  0  0  0  0  0  0  0  0  0  0
   -1.8996   -3.1858   -0.0656 S   0  0  0  0  0  0  0  0  0  0  0  0
   -3.3731   -2.3897   -0.5061 C   0  0  0  0  0  0  0  0  0  0  0  0
   -4.5854   -2.6747   -1.1248 C   0  0  0  0  0  0  0  0  0  0  0  0
   -5.3378   -1.4785   -1.1116 C   0  0  0  0  0  0  0  0  0  0  0  0
   -4.6064   -0.4767   -0.5258 N   0  0  0  0  0  0  0  0  0  0  0  0
   -5.0677    0.8511   -0.3815 C   0  0  0  0  0  0  0  0  0  0  0  0
   -4.4858    1.8795   -1.1089 C   0  0  0  0  0  0  0  0  0  0  0  0
   -4.9394    3.1750   -0.9454 C   0  0  0  0  0  0  0  0  0  0  0  0
   -5.9875    3.4605   -0.0786 C   0  0  0  0  0  0  0  0  0  0  0  0
   -6.4967    4.8648    0.0686 C   0  0  0  0  0  0  0  0  0  0  0  0
   -7.5838    5.1507   -0.9695 C   0  0  0  0  0  0  0  0  0  0  0  0
   -6.5882    2.4132    0.6105 C   0  0  0  0  0  0  0  0  0  0  0  0
   -6.1348    1.1159    0.4671 C   0  0  0  0  0  0  0  0  0  0  0  0
   -3.3971   -1.0111   -0.1593 C   0  0  0  0  0  0  0  0  0  0  0  0
   -6.5794   -1.5888   -1.7300 C   0  0  0  0  0  0  0  0  0  0  0  0
   -6.7638   -2.8416   -2.2858 C   0  0  0  0  0  0  0  0  0  0  0  0
   -5.4177   -3.9360   -1.9463 S   0  0  0  0  0  0  0  0  0  0  0  0
   -7.8880   -3.2630   -3.0344 C   0  0  0  0  0  0  0  0  0  0  0  0
   -7.9419   -4.2194   -4.0004 C   0  0  0  0  0  0  0  0  0  0  0  0
   -9.2396   -4.8282   -4.3907 C   0  0  0  0  0  0  0  0  0  0  0  0
  -10.3450   -4.4353   -4.0885 O   0  0  0  0  0  0  0  0  0  0  0  0
   -8.8875   -6.0289   -5.1742 C   0  0  0  0  0  0  0  0  0  0  0  0
   -9.7585   -6.9921   -5.6808 C   0  0  0  0  0  0  0  0  0  0  0  0
   -9.1350   -8.0059   -6.3676 C   0  0  0  0  0  0  0  0  0  0  0  0
   -7.7448   -8.0676   -6.5349 C   0  0  0  0  0  0  0  0  0  0  0  0
   -6.8733   -7.1231   -6.0480 C   0  0  0  0  0  0  0  0  0  0  0  0
   -7.4889   -6.0780   -5.3543 C   0  0  0  0  0  0  0  0  0  0  0  0
   -6.9035   -4.8771   -4.7643 C   0  0  0  0  0  0  0  0  0  0  0  0
   -5.6989   -4.3288   -5.1228 C   0  0  0  0  0  0  0  0  0  0  0  0
   -5.3123   -3.0131   -4.7928 C   0  0  0  0  0  0  0  0  0  0  0  0
   -4.9848   -1.9277   -4.6096 N   0  0  0  0  0  0  0  0  0  0  0  0
   -4.7544   -4.9628   -5.9534 C   0  0  0  0  0  0  0  0  0  0  0  0
   -3.9411   -5.4342   -6.6131 N   0  0  0  0  0  0  0  0  0  0  0  0
   -7.8145   -9.3572   -7.3141 C   0  0  0  0  0  0  0  0  0  0  0  0
   -7.4382  -10.6467   -6.5546 C   0  0  0  0  0  0  0  0  0  0  0  0
   -8.0490  -11.7490   -7.3894 C   0  0  0  0  0  0  0  0  0  0  0  0
   -9.3655  -11.6899   -7.2347 C   0  0  0  0  0  0  0  0  0  0  0  0
   -9.6667  -10.5469   -6.2922 C   0  0  0  0  0  0  0  0  0  0  0  0
   -8.4313  -10.6197   -5.3855 C   0  0  0  0  0  0  0  0  0  0  0  0
   -9.3646   -9.2872   -7.1311 C   0  0  0  0  0  0  0  0  0  0  0  0
    7.8319    1.3472    2.5707 H   0  0  0  0  0  0  0  0  0  0  0  0
    5.7847    6.8933    0.5237 H   0  0  0  0  0  0  0  0  0  0  0  0
   10.6862    5.8401    1.2499 H   0  0  0  0  0  0  0  0  0  0  0  0
   10.3337    8.3924   -0.9955 H   0  0  0  0  0  0  0  0  0  0  0  0
   11.0775    9.4340    1.3410 H   0  0  0  0  0  0  0  0  0  0  0  0
   10.9532   11.3671   -0.4349 H   0  0  0  0  0  0  0  0  0  0  0  0
    8.3943   11.9527   -0.8424 H   0  0  0  0  0  0  0  0  0  0  0  0
    6.9427   10.3815    0.6833 H   0  0  0  0  0  0  0  0  0  0  0  0
    8.9818   10.7054    2.3396 H   0  0  0  0  0  0  0  0  0  0  0  0
    8.5967    8.9708    2.2626 H   0  0  0  0  0  0  0  0  0  0  0  0
    7.8249    8.9629   -1.3925 H   0  0  0  0  0  0  0  0  0  0  0  0
    6.4944   -0.6452    2.4642 H   0  0  0  0  0  0  0  0  0  0  0  0
    1.7412   -1.8871    4.1428 H   0  0  0  0  0  0  0  0  0  0  0  0
    2.0138   -2.9458    6.3327 H   0  0  0  0  0  0  0  0  0  0  0  0
    3.5601   -3.7809    8.0452 H   0  0  0  0  0  0  0  0  0  0  0  0
    5.2060   -4.2631    7.6105 H   0  0  0  0  0  0  0  0  0  0  0  0
    3.8183   -6.2496    8.1665 H   0  0  0  0  0  0  0  0  0  0  0  0
    4.3087   -6.2921    6.4696 H   0  0  0  0  0  0  0  0  0  0  0  0
    2.6673   -5.8115    6.8994 H   0  0  0  0  0  0  0  0  0  0  0  0
    5.9709   -4.1329    5.2785 H   0  0  0  0  0  0  0  0  0  0  0  0
    5.6970   -3.0864    3.0778 H   0  0  0  0  0  0  0  0  0  0  0  0
    3.3010   -4.4068    1.8530 H   0  0  0  0  0  0  0  0  0  0  0  0
    3.9765   -5.8451   -0.0130 H   0  0  0  0  0  0  0  0  0  0  0  0
    4.6204   -5.9916   -2.3821 H   0  0  0  0  0  0  0  0  0  0  0  0
    5.3201   -4.5935   -3.2106 H   0  0  0  0  0  0  0  0  0  0  0  0
    7.4166   -4.8593   -1.8835 H   0  0  0  0  0  0  0  0  0  0  0  0
    7.0484   -6.3311   -2.7891 H   0  0  0  0  0  0  0  0  0  0  0  0
    6.7190   -6.2508   -1.0549 H   0  0  0  0  0  0  0  0  0  0  0  0
    5.6070   -2.4629   -2.0333 H   0  0  0  0  0  0  0  0  0  0  0  0
    4.9170   -1.0182   -0.1801 H   0  0  0  0  0  0  0  0  0  0  0  0
    0.8753    1.9392    1.8590 H   0  0  0  0  0  0  0  0  0  0  0  0
   -3.6493    2.4046    1.3440 H   0  0  0  0  0  0  0  0  0  0  0  0
   -4.9969    2.8030    3.3344 H   0  0  0  0  0  0  0  0  0  0  0  0
   -4.7760    0.8057    6.4223 H   0  0  0  0  0  0  0  0  0  0  0  0
   -5.7335    1.9999    5.5341 H   0  0  0  0  0  0  0  0  0  0  0  0
   -4.0198    3.7423    6.0335 H   0  0  0  0  0  0  0  0  0  0  0  0
   -3.0613    2.5524    6.9134 H   0  0  0  0  0  0  0  0  0  0  0  0
   -4.6500    3.0291    7.5225 H   0  0  0  0  0  0  0  0  0  0  0  0
   -2.6355   -0.0068    5.5065 H   0  0  0  0  0  0  0  0  0  0  0  0
   -1.2890   -0.4201    3.5086 H   0  0  0  0  0  0  0  0  0  0  0  0
   -1.3459    3.3047    1.5629 H   0  0  0  0  0  0  0  0  0  0  0  0
   -0.9453    5.1331   -0.0114 H   0  0  0  0  0  0  0  0  0  0  0  0
   -1.0109    4.7605   -3.6883 H   0  0  0  0  0  0  0  0  0  0  0  0
   -1.0935    5.9192   -2.3526 H   0  0  0  0  0  0  0  0  0  0  0  0
    1.3859    4.3194   -3.1514 H   0  0  0  0  0  0  0  0  0  0  0  0
    1.1152    6.0335   -3.4860 H   0  0  0  0  0  0  0  0  0  0  0  0
    1.3037    5.4717   -1.8205 H   0  0  0  0  0  0  0  0  0  0  0  0
   -0.9083    2.3531   -3.2444 H   0  0  0  0  0  0  0  0  0  0  0  0
   -1.3192    0.5194   -1.6736 H   0  0  0  0  0  0  0  0  0  0  0  0
    1.1572   -3.0272    1.2173 H   0  0  0  0  0  0  0  0  0  0  0  0
   -3.6799    1.6633   -1.7912 H   0  0  0  0  0  0  0  0  0  0  0  0
   -4.4683    3.9735   -1.4996 H   0  0  0  0  0  0  0  0  0  0  0  0
   -5.6752    5.5708   -0.0666 H   0  0  0  0  0  0  0  0  0  0  0  0
   -6.9095    5.0067    1.0694 H   0  0  0  0  0  0  0  0  0  0  0  0
   -7.9544    6.1670   -0.8609 H   0  0  0  0  0  0  0  0  0  0  0  0
   -8.4165    4.4621   -0.8455 H   0  0  0  0  0  0  0  0  0  0  0  0
   -7.1875    5.0302   -1.9751 H   0  0  0  0  0  0  0  0  0  0  0  0
   -7.4147    2.6176    1.2758 H   0  0  0  0  0  0  0  0  0  0  0  0
   -6.5932    0.3073    1.0169 H   0  0  0  0  0  0  0  0  0  0  0  0
   -7.2913   -0.7909   -1.8379 H   0  0  0  0  0  0  0  0  0  0  0  0
   -8.8364   -2.8011   -2.7765 H   0  0  0  0  0  0  0  0  0  0  0  0
  -10.8238   -6.9081   -5.5335 H   0  0  0  0  0  0  0  0  0  0  0  0
   -5.8051   -7.1786   -6.1795 H   0  0  0  0  0  0  0  0  0  0  0  0
   -7.4065   -9.3227   -8.3225 H   0  0  0  0  0  0  0  0  0  0  0  0
   -6.3828  -10.7420   -6.3144 H   0  0  0  0  0  0  0  0  0  0  0  0
   -7.4834  -12.4002   -8.0298 H   0  0  0  0  0  0  0  0  0  0  0  0
  -10.1193  -12.2820   -7.7199 H   0  0  0  0  0  0  0  0  0  0  0  0
  -10.6418  -10.5522   -5.8125 H   0  0  0  0  0  0  0  0  0  0  0  0
   -8.3151   -9.7628   -4.7245 H   0  0  0  0  0  0  0  0  0  0  0  0
   -8.4036  -11.5376   -4.8006 H   0  0  0  0  0  0  0  0  0  0  0  0
   -9.9898   -9.2059   -8.0184 H   0  0  0  0  0  0  0  0  0  0  0  0
  1  2  2  0  0  0  0
  2  3  1  0  0  0  0
  3  4  2  0  0  0  0
  3  5  1  0  0  0  0
  5  6  2  0  0  0  0
  6  7  1  0  0  0  0
  7  8  2  0  0  0  0
  8  9  1  0  0  0  0
  9 10  2  0  0  0  0
 10 11  1  0  0  0  0
 11 12  2  0  0  0  0
 12 13  1  0  0  0  0
 13 14  3  0  0  0  0
 12 15  1  0  0  0  0
 15 16  3  0  0  0  0
  8 17  1  0  0  0  0
 17 18  1  0  0  0  0
 18 19  1  0  0  0  0
 19 20  2  0  0  0  0
 20 21  1  0  0  0  0
 21 22  1  0  0  0  0
 21 23  1  0  0  0  0
  1 24  1  0  0  0  0
 24 25  2  0  0  0  0
 25 26  1  0  0  0  0
 26 27  1  0  0  0  0
 27 28  1  0  0  0  0
 28 29  2  0  0  0  0
 29 30  1  0  0  0  0
 30 31  2  0  0  0  0
 31 32  1  0  0  0  0
 32 33  1  0  0  0  0
 31 34  1  0  0  0  0
 34 35  2  0  0  0  0
 27 36  1  0  0  0  0
 36 37  2  0  0  0  0
 37 38  1  0  0  0  0
 38 39  2  0  0  0  0
 39 40  1  0  0  0  0
 40 41  1  0  0  0  0
 39 42  1  0  0  0  0
 42 43  2  0  0  0  0
 27 44  1  0  0  0  0
 44 45  2  0  0  0  0
 45 46  1  0  0  0  0
 46 47  1  0  0  0  0
 45 48  1  0  0  0  0
 48 49  2  0  0  0  0
 49 50  1  0  0  0  0
 50 51  1  0  0  0  0
 51 52  2  0  0  0  0
 52 53  1  0  0  0  0
 53 54  2  0  0  0  0
 54 55  1  0  0  0  0
 55 56  1  0  0  0  0
 54 57  1  0  0  0  0
 57 58  2  0  0  0  0
 50 59  1  0  0  0  0
 59 60  2  0  0  0  0
 60 61  1  0  0  0  0
 61 62  2  0  0  0  0
 62 63  1  0  0  0  0
 63 64  1  0  0  0  0
 62 65  1  0  0  0  0
 65 66  2  0  0  0  0
 50 67  1  0  0  0  0
 67 68  2  0  0  0  0
 68 69  1  0  0  0  0
 69 70  2  0  0  0  0
 68 71  1  0  0  0  0
 71 72  1  0  0  0  0
 72 73  1  0  0  0  0
 73 74  2  0  0  0  0
 74 75  1  0  0  0  0
 75 76  1  0  0  0  0
 76 77  2  0  0  0  0
 77 78  1  0  0  0  0
 78 79  2  0  0  0  0
 79 80  1  0  0  0  0
 80 81  1  0  0  0  0
 79 82  1  0  0  0  0
 82 83  2  0  0  0  0
 75 84  1  0  0  0  0
 74 85  1  0  0  0  0
 85 86  2  0  0  0  0
 86 87  1  0  0  0  0
 86 88  1  0  0  0  0
 88 89  2  0  0  0  0
 89 90  1  0  0  0  0
 90 91  2  0  0  0  0
 90 92  1  0  0  0  0
 92 93  2  0  0  0  0
 93 94  1  0  0  0  0
 94 95  2  0  0  0  0
 95 96  1  0  0  0  0
 96 97  2  0  0  0  0
 97 98  1  0  0  0  0
 98 99  2  0  0  0  0
 99100  1  0  0  0  0
100101  3  0  0  0  0
 99102  1  0  0  0  0
102103  3  0  0  0  0
 95104  1  0  0  0  0
104105  1  0  0  0  0
105106  1  0  0  0  0
106107  2  0  0  0  0
107108  1  0  0  0  0
108109  1  0  0  0  0
108110  1  0  0  0  0
 11  2  1  0  0  0  0
 23 17  1  0  0  0  0
 47 24  1  0  0  0  0
 69 49  1  0  0  0  0
 84 72  2  0  0  0  0
 98 89  1  0  0  0  0
110104  1  0  0  0  0
 10  5  1  0  0  0  0
 22 18  1  0  0  0  0
 46 26  2  0  0  0  0
 58 51  1  0  0  0  0
 66 59  1  0  0  0  0
 84 67  1  0  0  0  0
 97 92  1  0  0  0  0
109105  1  0  0  0  0
 23  7  1  0  0  0  0
 35 28  1  0  0  0  0
 43 36  1  0  0  0  0
 70 44  1  0  0  0  0
 87 73  1  0  0  0  0
110 94  1  0  0  0  0
 83 76  1  0  0  0  0
  1111  1  0  0  0  0
  6112  1  0  0  0  0
  9113  1  0  0  0  0
 17114  1  0  0  0  0
 18115  1  0  0  0  0
 19116  1  0  0  0  0
 20117  1  0  0  0  0
 21118  1  0  0  0  0
 22119  1  0  0  0  0
 22120  1  0  0  0  0
 23121  1  0  0  0  0
 25122  1  0  0  0  0
 29123  1  0  0  0  0
 30124  1  0  0  0  0
 32125  1  0  0  0  0
 32126  1  0  0  0  0
 33127  1  0  0  0  0
 33128  1  0  0  0  0
 33129  1  0  0  0  0
 34130  1  0  0  0  0
 35131  1  0  0  0  0
 37132  1  0  0  0  0
 38133  1  0  0  0  0
 40134  1  0  0  0  0
 40135  1  0  0  0  0
 41136  1  0  0  0  0
 41137  1  0  0  0  0
 41138  1  0  0  0  0
 42139  1  0  0  0  0
 43140  1  0  0  0  0
 48141  1  0  0  0  0
 52142  1  0  0  0  0
 53143  1  0  0  0  0
 55144  1  0  0  0  0
 55145  1  0  0  0  0
 56146  1  0  0  0  0
 56147  1  0  0  0  0
 56148  1  0  0  0  0
 57149  1  0  0  0  0
 58150  1  0  0  0  0
 60151  1  0  0  0  0
 61152  1  0  0  0  0
 63153  1  0  0  0  0
 63154  1  0  0  0  0
 64155  1  0  0  0  0
 64156  1  0  0  0  0
 64157  1  0  0  0  0
 65158  1  0  0  0  0
 66159  1  0  0  0  0
 70160  1  0  0  0  0
 77161  1  0  0  0  0
 78162  1  0  0  0  0
 80163  1  0  0  0  0
 80164  1  0  0  0  0
 81165  1  0  0  0  0
 81166  1  0  0  0  0
 81167  1  0  0  0  0
 82168  1  0  0  0  0
 83169  1  0  0  0  0
 85170  1  0  0  0  0
 88171  1  0  0  0  0
 93172  1  0  0  0  0
 96173  1  0  0  0  0
104174  1  0  0  0  0
105175  1  0  0  0  0
106176  1  0  0  0  0
107177  1  0  0  0  0
108178  1  0  0  0  0
109179  1  0  0  0  0
109180  1  0  0  0  0
110181  1  0  0  0  0
M  END
