
  xtb     02012217163D
 energy: -284.590632543243 gnorm: 0.000360790087 xtb: 6.4.1 (unknown)
176195  0     0  0            999 V2000
    6.7155    5.1228    2.0941 C   0  0  0  0  0  0  0  0  0  0  0  0
    7.9653    4.8010    2.5275 C   0  0  0  0  0  0  0  0  0  0  0  0
    8.5287    5.4818    3.7230 C   0  0  0  0  0  0  0  0  0  0  0  0
    8.1471    6.5190    4.2177 O   0  0  0  0  0  0  0  0  0  0  0  0
    9.5944    4.5821    4.2093 C   0  0  0  0  0  0  0  0  0  0  0  0
   10.3146    4.6908    5.3975 C   0  0  0  0  0  0  0  0  0  0  0  0
   11.2133    3.6716    5.6028 C   0  0  0  0  0  0  0  0  0  0  0  0
   11.3906    2.6187    4.6947 C   0  0  0  0  0  0  0  0  0  0  0  0
   10.6983    2.5039    3.5125 C   0  0  0  0  0  0  0  0  0  0  0  0
    9.7770    3.5294    3.2875 C   0  0  0  0  0  0  0  0  0  0  0  0
    8.8863    3.7524    2.1520 C   0  0  0  0  0  0  0  0  0  0  0  0
    9.0716    3.2739    0.8813 C   0  0  0  0  0  0  0  0  0  0  0  0
    8.3588    3.7767   -0.2274 C   0  0  0  0  0  0  0  0  0  0  0  0
    7.8377    4.2103   -1.1538 N   0  0  0  0  0  0  0  0  0  0  0  0
   10.0527    2.3277    0.5291 C   0  0  0  0  0  0  0  0  0  0  0  0
   10.8305    1.5509    0.1974 N   0  0  0  0  0  0  0  0  0  0  0  0
   12.4321    1.9463    5.5540 C   0  0  0  0  0  0  0  0  0  0  0  0
   11.9685    0.7168    6.3637 C   0  0  0  0  0  0  0  0  0  0  0  0
   13.0196    0.5753    7.4408 C   0  0  0  0  0  0  0  0  0  0  0  0
   12.8533    1.5726    8.3001 C   0  0  0  0  0  0  0  0  0  0  0  0
   11.6872    2.4049    7.8180 C   0  0  0  0  0  0  0  0  0  0  0  0
   10.8194    1.3052    7.1925 C   0  0  0  0  0  0  0  0  0  0  0  0
   12.2365    3.1209    6.5655 C   0  0  0  0  0  0  0  0  0  0  0  0
    5.7910    4.3527    1.3576 C   0  0  0  0  0  0  0  0  0  0  0  0
    5.9796    2.6131    1.1146 S   0  0  0  0  0  0  0  0  0  0  0  0
    4.4264    2.5294    0.3888 C   0  0  0  0  0  0  0  0  0  0  0  0
    3.5195    1.6123   -0.1377 C   0  0  0  0  0  0  0  0  0  0  0  0
    3.3530   -0.0969   -0.3669 S   0  0  0  0  0  0  0  0  0  0  0  0
    1.7176    0.1687   -0.8781 C   0  0  0  0  0  0  0  0  0  0  0  0
    0.6005   -0.6952   -1.0961 C   0  0  0  0  0  0  0  0  0  0  0  0
    0.5125   -2.0836   -1.0919 C   0  0  0  0  0  0  0  0  0  0  0  0
   -0.7466   -2.6321   -1.1635 C   0  0  0  0  0  0  0  0  0  0  0  0
   -1.1301   -4.1021   -1.1488 C   0  0  0  0  0  0  0  0  0  0  0  0
   -0.8232   -4.8114   -2.4573 C   0  0  0  0  0  0  0  0  0  0  0  0
   -0.9397   -6.1951   -2.5186 C   0  0  0  0  0  0  0  0  0  0  0  0
   -0.7121   -6.8670   -3.7035 C   0  0  0  0  0  0  0  0  0  0  0  0
   -0.3722   -6.1765   -4.8603 C   0  0  0  0  0  0  0  0  0  0  0  0
   -0.0779   -6.9111   -6.1363 C   0  0  0  0  0  0  0  0  0  0  0  0
    1.4130   -7.2424   -6.2301 C   0  0  0  0  0  0  0  0  0  0  0  0
   -0.2670   -4.7942   -4.7954 C   0  0  0  0  0  0  0  0  0  0  0  0
   -0.4944   -4.1157   -3.6113 C   0  0  0  0  0  0  0  0  0  0  0  0
   -0.4555   -4.7759    0.0283 C   0  0  0  0  0  0  0  0  0  0  0  0
   -1.0646   -4.8238    1.2741 C   0  0  0  0  0  0  0  0  0  0  0  0
   -0.4150   -5.3998    2.3506 C   0  0  0  0  0  0  0  0  0  0  0  0
    0.8587   -5.9344    2.2139 C   0  0  0  0  0  0  0  0  0  0  0  0
    1.5812   -6.5195    3.3930 C   0  0  0  0  0  0  0  0  0  0  0  0
    2.4148   -5.4453    4.0947 C   0  0  0  0  0  0  0  0  0  0  0  0
    1.4703   -5.8703    0.9684 C   0  0  0  0  0  0  0  0  0  0  0  0
    0.8248   -5.2982   -0.1107 C   0  0  0  0  0  0  0  0  0  0  0  0
   -2.6308   -3.9998   -1.0390 C   0  0  0  0  0  0  0  0  0  0  0  0
   -3.0353   -2.6650   -1.0987 C   0  0  0  0  0  0  0  0  0  0  0  0
   -1.8956   -1.8079   -1.1830 C   0  0  0  0  0  0  0  0  0  0  0  0
   -1.8020   -0.4175   -1.2379 C   0  0  0  0  0  0  0  0  0  0  0  0
   -0.5424    0.1303   -1.2258 C   0  0  0  0  0  0  0  0  0  0  0  0
   -0.1322    1.5992   -1.3010 C   0  0  0  0  0  0  0  0  0  0  0  0
   -0.3016    2.0284   -2.7512 C   0  0  0  0  0  0  0  0  0  0  0  0
    0.7905    2.3547   -3.5451 C   0  0  0  0  0  0  0  0  0  0  0  0
    0.6183    2.7513   -4.8600 C   0  0  0  0  0  0  0  0  0  0  0  0
   -0.6462    2.8232   -5.4254 C   0  0  0  0  0  0  0  0  0  0  0  0
   -0.8401    3.3176   -6.8289 C   0  0  0  0  0  0  0  0  0  0  0  0
   -1.1032    4.8252   -6.8272 C   0  0  0  0  0  0  0  0  0  0  0  0
   -1.7349    2.4677   -4.6395 C   0  0  0  0  0  0  0  0  0  0  0  0
   -1.5670    2.0707   -3.3271 C   0  0  0  0  0  0  0  0  0  0  0  0
   -0.8655    2.4719   -0.3000 C   0  0  0  0  0  0  0  0  0  0  0  0
   -0.7115    2.1767    1.0512 C   0  0  0  0  0  0  0  0  0  0  0  0
   -1.2792    2.9802    2.0196 C   0  0  0  0  0  0  0  0  0  0  0  0
   -2.0256    4.0983    1.6685 C   0  0  0  0  0  0  0  0  0  0  0  0
   -2.6497    4.9707    2.7183 C   0  0  0  0  0  0  0  0  0  0  0  0
   -4.0334    4.4444    3.1030 C   0  0  0  0  0  0  0  0  0  0  0  0
   -2.2061    4.3692    0.3208 C   0  0  0  0  0  0  0  0  0  0  0  0
   -1.6278    3.5746   -0.6532 C   0  0  0  0  0  0  0  0  0  0  0  0
    1.3249    1.4969   -0.9171 C   0  0  0  0  0  0  0  0  0  0  0  0
    2.3562    2.3390   -0.4968 C   0  0  0  0  0  0  0  0  0  0  0  0
    2.5506    3.6758   -0.2228 N   0  0  0  0  0  0  0  0  0  0  0  0
    3.8043    3.7972    0.3410 C   0  0  0  0  0  0  0  0  0  0  0  0
    4.5682    4.8159    0.8944 C   0  0  0  0  0  0  0  0  0  0  0  0
    1.6349    4.7041   -0.3682 C   0  0  0  0  0  0  0  0  0  0  0  0
    0.9392    5.0455   -1.4878 C   0  0  0  0  0  0  0  0  0  0  0  0
    0.0803    6.1304   -1.2346 C   0  0  0  0  0  0  0  0  0  0  0  0
   -1.0684    7.0099   -2.1735 S   0  0  0  0  0  0  0  0  0  0  0  0
   -1.4548    8.0231   -0.8002 C   0  0  0  0  0  0  0  0  0  0  0  0
   -2.4446    9.1250   -0.9569 C   0  0  0  0  0  0  0  0  0  0  0  0
   -1.8525   10.2912   -1.7514 C   0  0  0  0  0  0  0  0  0  0  0  0
   -0.7344    7.6960    0.3067 C   0  0  0  0  0  0  0  0  0  0  0  0
    0.1348    6.6139    0.0643 C   0  0  0  0  0  0  0  0  0  0  0  0
    1.2546    5.7129    1.0214 S   0  0  0  0  0  0  0  0  0  0  0  0
   -4.7292   -2.4634   -0.9818 S   0  0  0  0  0  0  0  0  0  0  0  0
   -4.9260   -4.2052   -0.8544 C   0  0  0  0  0  0  0  0  0  0  0  0
   -3.6931   -4.8689   -0.9200 C   0  0  0  0  0  0  0  0  0  0  0  0
   -6.1298   -4.9019   -0.6747 C   0  0  0  0  0  0  0  0  0  0  0  0
   -7.4108   -4.4466   -0.5025 C   0  0  0  0  0  0  0  0  0  0  0  0
   -7.8326   -3.0391   -0.4617 C   0  0  0  0  0  0  0  0  0  0  0  0
   -7.1437   -2.0499   -0.6468 O   0  0  0  0  0  0  0  0  0  0  0  0
   -9.2674   -3.0574   -0.1453 C   0  0  0  0  0  0  0  0  0  0  0  0
  -10.1251   -1.9859    0.0385 C   0  0  0  0  0  0  0  0  0  0  0  0
  -11.4522   -2.2387    0.3520 C   0  0  0  0  0  0  0  0  0  0  0  0
  -12.3956   -1.2949    0.5654 O   0  0  0  0  0  0  0  0  0  0  0  0
  -12.0217    0.0601    0.4786 C   0  0  0  0  0  0  0  0  0  0  0  0
  -11.9060   -3.5829    0.4736 C   0  0  0  0  0  0  0  0  0  0  0  0
  -13.2130   -3.7150    0.7840 O   0  0  0  0  0  0  0  0  0  0  0  0
  -13.7489   -5.0110    0.9319 C   0  0  0  0  0  0  0  0  0  0  0  0
  -11.0325   -4.6444    0.2815 C   0  0  0  0  0  0  0  0  0  0  0  0
   -9.7039   -4.3827   -0.0288 C   0  0  0  0  0  0  0  0  0  0  0  0
   -8.5780   -5.2765   -0.2687 C   0  0  0  0  0  0  0  0  0  0  0  0
   -8.6432   -6.6481   -0.2740 C   0  0  0  0  0  0  0  0  0  0  0  0
   -9.8257   -7.3778   -0.0378 C   0  0  0  0  0  0  0  0  0  0  0  0
  -10.7550   -8.0269    0.1497 N   0  0  0  0  0  0  0  0  0  0  0  0
   -7.5712   -7.5299   -0.5188 C   0  0  0  0  0  0  0  0  0  0  0  0
   -6.7602   -8.3223   -0.7066 N   0  0  0  0  0  0  0  0  0  0  0  0
    6.3269    6.0637    2.4727 H   0  0  0  0  0  0  0  0  0  0  0  0
   10.1520    5.5175    6.0713 H   0  0  0  0  0  0  0  0  0  0  0  0
   10.8354    1.6900    2.8193 H   0  0  0  0  0  0  0  0  0  0  0  0
   13.4097    1.8104    5.0956 H   0  0  0  0  0  0  0  0  0  0  0  0
   11.7561   -0.1668    5.7679 H   0  0  0  0  0  0  0  0  0  0  0  0
   13.7855   -0.1779    7.4365 H   0  0  0  0  0  0  0  0  0  0  0  0
   13.4526    1.8188    9.1571 H   0  0  0  0  0  0  0  0  0  0  0  0
   11.2179    3.0590    8.5481 H   0  0  0  0  0  0  0  0  0  0  0  0
    9.9889    1.6798    6.5970 H   0  0  0  0  0  0  0  0  0  0  0  0
   10.4465    0.6025    7.9360 H   0  0  0  0  0  0  0  0  0  0  0  0
   13.0842    3.7681    6.7822 H   0  0  0  0  0  0  0  0  0  0  0  0
    1.3991   -2.6935   -1.0132 H   0  0  0  0  0  0  0  0  0  0  0  0
   -1.2006   -6.7485   -1.6283 H   0  0  0  0  0  0  0  0  0  0  0  0
   -0.8043   -7.9432   -3.7322 H   0  0  0  0  0  0  0  0  0  0  0  0
   -0.6552   -7.8370   -6.1718 H   0  0  0  0  0  0  0  0  0  0  0  0
   -0.3641   -6.2963   -6.9921 H   0  0  0  0  0  0  0  0  0  0  0  0
    1.7162   -7.8613   -5.3886 H   0  0  0  0  0  0  0  0  0  0  0  0
    2.0049   -6.3300   -6.2142 H   0  0  0  0  0  0  0  0  0  0  0  0
    1.6267   -7.7794   -7.1513 H   0  0  0  0  0  0  0  0  0  0  0  0
   -0.0077   -4.2367   -5.6843 H   0  0  0  0  0  0  0  0  0  0  0  0
   -0.4126   -3.0387   -3.5902 H   0  0  0  0  0  0  0  0  0  0  0  0
   -2.0546   -4.4116    1.4055 H   0  0  0  0  0  0  0  0  0  0  0  0
   -0.9078   -5.4357    3.3119 H   0  0  0  0  0  0  0  0  0  0  0  0
    0.8610   -6.9358    4.1001 H   0  0  0  0  0  0  0  0  0  0  0  0
    2.2393   -7.3250    3.0611 H   0  0  0  0  0  0  0  0  0  0  0  0
    1.7746   -4.6382    4.4440 H   0  0  0  0  0  0  0  0  0  0  0  0
    2.9395   -5.8677    4.9485 H   0  0  0  0  0  0  0  0  0  0  0  0
    3.1475   -5.0266    3.4084 H   0  0  0  0  0  0  0  0  0  0  0  0
    2.4636   -6.2768    0.8408 H   0  0  0  0  0  0  0  0  0  0  0  0
    1.3140   -5.2684   -1.0738 H   0  0  0  0  0  0  0  0  0  0  0  0
   -2.6972    0.1841   -1.2492 H   0  0  0  0  0  0  0  0  0  0  0  0
    1.7921    2.2986   -3.1438 H   0  0  0  0  0  0  0  0  0  0  0  0
    1.4850    3.0076   -5.4527 H   0  0  0  0  0  0  0  0  0  0  0  0
    0.0510    3.1075   -7.4234 H   0  0  0  0  0  0  0  0  0  0  0  0
   -1.6875    2.8047   -7.2884 H   0  0  0  0  0  0  0  0  0  0  0  0
   -1.2464    5.1874   -7.8424 H   0  0  0  0  0  0  0  0  0  0  0  0
   -1.9945    5.0538   -6.2470 H   0  0  0  0  0  0  0  0  0  0  0  0
   -0.2632    5.3557   -6.3841 H   0  0  0  0  0  0  0  0  0  0  0  0
   -2.7294    2.4992   -5.0611 H   0  0  0  0  0  0  0  0  0  0  0  0
   -2.4331    1.7951   -2.7466 H   0  0  0  0  0  0  0  0  0  0  0  0
   -0.1295    1.3135    1.3435 H   0  0  0  0  0  0  0  0  0  0  0  0
   -1.1309    2.7437    3.0635 H   0  0  0  0  0  0  0  0  0  0  0  0
   -2.7439    5.9906    2.3386 H   0  0  0  0  0  0  0  0  0  0  0  0
   -2.0125    4.9931    3.6047 H   0  0  0  0  0  0  0  0  0  0  0  0
   -4.4822    5.0752    3.8669 H   0  0  0  0  0  0  0  0  0  0  0  0
   -3.9581    3.4304    3.4890 H   0  0  0  0  0  0  0  0  0  0  0  0
   -4.6874    4.4311    2.2339 H   0  0  0  0  0  0  0  0  0  0  0  0
   -2.7920    5.2280    0.0237 H   0  0  0  0  0  0  0  0  0  0  0  0
   -1.7637    3.8369   -1.6911 H   0  0  0  0  0  0  0  0  0  0  0  0
    4.2737    5.8469    0.9642 H   0  0  0  0  0  0  0  0  0  0  0  0
    1.0353    4.5478   -2.4344 H   0  0  0  0  0  0  0  0  0  0  0  0
   -2.7469    9.4709    0.0337 H   0  0  0  0  0  0  0  0  0  0  0  0
   -3.3302    8.7519   -1.4770 H   0  0  0  0  0  0  0  0  0  0  0  0
   -2.5851   11.0875   -1.8531 H   0  0  0  0  0  0  0  0  0  0  0  0
   -0.9753   10.6868   -1.2449 H   0  0  0  0  0  0  0  0  0  0  0  0
   -1.5585    9.9588   -2.7443 H   0  0  0  0  0  0  0  0  0  0  0  0
   -0.8248    8.1985    1.2521 H   0  0  0  0  0  0  0  0  0  0  0  0
   -3.6203   -5.9402   -0.8598 H   0  0  0  0  0  0  0  0  0  0  0  0
   -5.9893   -5.9758   -0.6434 H   0  0  0  0  0  0  0  0  0  0  0  0
   -9.7400   -0.9845   -0.0639 H   0  0  0  0  0  0  0  0  0  0  0  0
  -11.6716    0.3160   -0.5262 H   0  0  0  0  0  0  0  0  0  0  0  0
  -12.9239    0.6266    0.7021 H   0  0  0  0  0  0  0  0  0  0  0  0
  -11.2457    0.3097    1.2088 H   0  0  0  0  0  0  0  0  0  0  0  0
  -13.6702   -5.5876    0.0055 H   0  0  0  0  0  0  0  0  0  0  0  0
  -14.7987   -4.8641    1.1788 H   0  0  0  0  0  0  0  0  0  0  0  0
  -13.2583   -5.5592    1.7417 H   0  0  0  0  0  0  0  0  0  0  0  0
  -11.3839   -5.6564    0.3774 H   0  0  0  0  0  0  0  0  0  0  0  0
  1  2  2  0  0  0  0
  2  3  1  0  0  0  0
  3  4  2  0  0  0  0
  3  5  1  0  0  0  0
  5  6  2  0  0  0  0
  6  7  1  0  0  0  0
  7  8  2  0  0  0  0
  8  9  1  0  0  0  0
  9 10  2  0  0  0  0
 10 11  1  0  0  0  0
 11 12  2  0  0  0  0
 12 13  1  0  0  0  0
 13 14  3  0  0  0  0
 12 15  1  0  0  0  0
 15 16  3  0  0  0  0
  8 17  1  0  0  0  0
 17 18  1  0  0  0  0
 18 19  1  0  0  0  0
 19 20  2  0  0  0  0
 20 21  1  0  0  0  0
 21 22  1  0  0  0  0
 21 23  1  0  0  0  0
  1 24  1  0  0  0  0
 24 25  1  0  0  0  0
 25 26  1  0  0  0  0
 26 27  1  0  0  0  0
 27 28  1  0  0  0  0
 28 29  1  0  0  0  0
 29 30  1  0  0  0  0
 30 31  2  0  0  0  0
 31 32  1  0  0  0  0
 32 33  1  0  0  0  0
 33 34  1  0  0  0  0
 34 35  2  0  0  0  0
 35 36  1  0  0  0  0
 36 37  2  0  0  0  0
 37 38  1  0  0  0  0
 38 39  1  0  0  0  0
 37 40  1  0  0  0  0
 40 41  2  0  0  0  0
 33 42  1  0  0  0  0
 42 43  2  0  0  0  0
 43 44  1  0  0  0  0
 44 45  2  0  0  0  0
 45 46  1  0  0  0  0
 46 47  1  0  0  0  0
 45 48  1  0  0  0  0
 48 49  2  0  0  0  0
 33 50  1  0  0  0  0
 50 51  2  0  0  0  0
 51 52  1  0  0  0  0
 52 53  1  0  0  0  0
 53 54  2  0  0  0  0
 54 55  1  0  0  0  0
 55 56  1  0  0  0  0
 56 57  2  0  0  0  0
 57 58  1  0  0  0  0
 58 59  2  0  0  0  0
 59 60  1  0  0  0  0
 60 61  1  0  0  0  0
 59 62  1  0  0  0  0
 62 63  2  0  0  0  0
 55 64  1  0  0  0  0
 64 65  2  0  0  0  0
 65 66  1  0  0  0  0
 66 67  2  0  0  0  0
 67 68  1  0  0  0  0
 68 69  1  0  0  0  0
 67 70  1  0  0  0  0
 70 71  2  0  0  0  0
 55 72  1  0  0  0  0
 72 73  1  0  0  0  0
 73 74  1  0  0  0  0
 74 75  1  0  0  0  0
 75 76  1  0  0  0  0
 74 77  1  0  0  0  0
 77 78  2  0  0  0  0
 78 79  1  0  0  0  0
 79 80  1  0  0  0  0
 80 81  1  0  0  0  0
 81 82  1  0  0  0  0
 82 83  1  0  0  0  0
 81 84  2  0  0  0  0
 84 85  1  0  0  0  0
 85 86  1  0  0  0  0
 51 87  1  0  0  0  0
 87 88  1  0  0  0  0
 88 89  2  0  0  0  0
 88 90  1  0  0  0  0
 90 91  2  0  0  0  0
 91 92  1  0  0  0  0
 92 93  2  0  0  0  0
 92 94  1  0  0  0  0
 94 95  2  0  0  0  0
 95 96  1  0  0  0  0
 96 97  1  0  0  0  0
 97 98  1  0  0  0  0
 96 99  2  0  0  0  0
 99100  1  0  0  0  0
100101  1  0  0  0  0
 99102  1  0  0  0  0
102103  2  0  0  0  0
103104  1  0  0  0  0
104105  2  0  0  0  0
105106  1  0  0  0  0
106107  3  0  0  0  0
105108  1  0  0  0  0
108109  3  0  0  0  0
 11  2  1  0  0  0  0
 23 17  1  0  0  0  0
 76 24  2  0  0  0  0
 86 77  1  0  0  0  0
104 91  1  0  0  0  0
 10  5  1  0  0  0  0
 22 18  1  0  0  0  0
 75 26  2  0  0  0  0
 85 79  2  0  0  0  0
103 94  1  0  0  0  0
 23  7  1  0  0  0  0
 73 27  2  0  0  0  0
 72 29  2  0  0  0  0
 54 30  1  0  0  0  0
 63 56  1  0  0  0  0
 71 64  1  0  0  0  0
 52 32  2  0  0  0  0
 41 34  1  0  0  0  0
 49 42  1  0  0  0  0
 89 50  1  0  0  0  0
  1110  1  0  0  0  0
  6111  1  0  0  0  0
  9112  1  0  0  0  0
 17113  1  0  0  0  0
 18114  1  0  0  0  0
 19115  1  0  0  0  0
 20116  1  0  0  0  0
 21117  1  0  0  0  0
 22118  1  0  0  0  0
 22119  1  0  0  0  0
 23120  1  0  0  0  0
 31121  1  0  0  0  0
 35122  1  0  0  0  0
 36123  1  0  0  0  0
 38124  1  0  0  0  0
 38125  1  0  0  0  0
 39126  1  0  0  0  0
 39127  1  0  0  0  0
 39128  1  0  0  0  0
 40129  1  0  0  0  0
 41130  1  0  0  0  0
 43131  1  0  0  0  0
 44132  1  0  0  0  0
 46133  1  0  0  0  0
 46134  1  0  0  0  0
 47135  1  0  0  0  0
 47136  1  0  0  0  0
 47137  1  0  0  0  0
 48138  1  0  0  0  0
 49139  1  0  0  0  0
 53140  1  0  0  0  0
 57141  1  0  0  0  0
 58142  1  0  0  0  0
 60143  1  0  0  0  0
 60144  1  0  0  0  0
 61145  1  0  0  0  0
 61146  1  0  0  0  0
 61147  1  0  0  0  0
 62148  1  0  0  0  0
 63149  1  0  0  0  0
 65150  1  0  0  0  0
 66151  1  0  0  0  0
 68152  1  0  0  0  0
 68153  1  0  0  0  0
 69154  1  0  0  0  0
 69155  1  0  0  0  0
 69156  1  0  0  0  0
 70157  1  0  0  0  0
 71158  1  0  0  0  0
 76159  1  0  0  0  0
 78160  1  0  0  0  0
 82161  1  0  0  0  0
 82162  1  0  0  0  0
 83163  1  0  0  0  0
 83164  1  0  0  0  0
 83165  1  0  0  0  0
 84166  1  0  0  0  0
 89167  1  0  0  0  0
 90168  1  0  0  0  0
 95169  1  0  0  0  0
 98170  1  0  0  0  0
 98171  1  0  0  0  0
 98172  1  0  0  0  0
101173  1  0  0  0  0
101174  1  0  0  0  0
101175  1  0  0  0  0
102176  1  0  0  0  0
M  END
