
  xtb     02022208413D
 energy: -274.986228823997 gnorm: 0.000492106403 xtb: 6.4.1 (unknown)
176197  0     0  0            999 V2000
    6.8352    2.2207    0.3107 C   0  0  0  0  0  0  0  0  0  0  0  0
    7.1539    3.0372   -0.7423 C   0  0  0  0  0  0  0  0  0  0  0  0
    6.2869    3.3460   -1.8865 C   0  0  0  0  0  0  0  0  0  0  0  0
    5.1883    2.8792   -2.1335 O   0  0  0  0  0  0  0  0  0  0  0  0
    7.0077    4.3449   -2.6936 C   0  0  0  0  0  0  0  0  0  0  0  0
    6.5573    4.9654   -3.8561 C   0  0  0  0  0  0  0  0  0  0  0  0
    7.4396    5.8796   -4.3796 C   0  0  0  0  0  0  0  0  0  0  0  0
    8.6822    6.1514   -3.7924 C   0  0  0  0  0  0  0  0  0  0  0  0
    9.1418    5.5398   -2.6503 C   0  0  0  0  0  0  0  0  0  0  0  0
    8.2569    4.6102   -2.0970 C   0  0  0  0  0  0  0  0  0  0  0  0
    8.3850    3.7879   -0.8945 C   0  0  0  0  0  0  0  0  0  0  0  0
    9.4881    3.7452   -0.0801 C   0  0  0  0  0  0  0  0  0  0  0  0
   10.6615    4.5015   -0.2821 C   0  0  0  0  0  0  0  0  0  0  0  0
   11.6477    5.0824   -0.3778 N   0  0  0  0  0  0  0  0  0  0  0  0
    9.6380    2.9431    1.0703 C   0  0  0  0  0  0  0  0  0  0  0  0
    9.8524    2.3259    2.0157 N   0  0  0  0  0  0  0  0  0  0  0  0
    9.0355    7.1879   -4.8289 C   0  0  0  0  0  0  0  0  0  0  0  0
    8.9048    8.6781   -4.4271 C   0  0  0  0  0  0  0  0  0  0  0  0
    7.8562    8.7411   -3.3443 C   0  0  0  0  0  0  0  0  0  0  0  0
    6.6810    8.4841   -3.9030 C   0  0  0  0  0  0  0  0  0  0  0  0
    6.9141    8.2416   -5.3738 C   0  0  0  0  0  0  0  0  0  0  0  0
    8.0908    9.1987   -5.6224 C   0  0  0  0  0  0  0  0  0  0  0  0
    7.6516    6.8840   -5.4848 C   0  0  0  0  0  0  0  0  0  0  0  0
    5.6643    1.4957    0.5799 C   0  0  0  0  0  0  0  0  0  0  0  0
    4.2355    1.3837   -0.4167 S   0  0  0  0  0  0  0  0  0  0  0  0
    3.4632    0.3890    0.7659 C   0  0  0  0  0  0  0  0  0  0  0  0
    2.1294   -0.1063    0.6529 C   0  0  0  0  0  0  0  0  0  0  0  0
    1.5428   -0.7031    1.8156 C   0  0  0  0  0  0  0  0  0  0  0  0
    0.1655   -1.0304    1.7796 C   0  0  0  0  0  0  0  0  0  0  0  0
   -0.4168   -1.5803    2.9319 C   0  0  0  0  0  0  0  0  0  0  0  0
    0.3255   -1.7768    4.0691 C   0  0  0  0  0  0  0  0  0  0  0  0
    1.6785   -1.4557    4.0948 C   0  0  0  0  0  0  0  0  0  0  0  0
    2.3011   -0.9315    2.9816 C   0  0  0  0  0  0  0  0  0  0  0  0
    3.8049   -0.7084    3.0191 C   0  0  0  0  0  0  0  0  0  0  0  0
    4.2649    0.1528    1.8744 C   0  0  0  0  0  0  0  0  0  0  0  0
    5.5017    0.7673    1.7588 C   0  0  0  0  0  0  0  0  0  0  0  0
    4.2439    0.0106    4.2849 C   0  0  0  0  0  0  0  0  0  0  0  0
    3.4285    0.9862    4.8442 C   0  0  0  0  0  0  0  0  0  0  0  0
    3.8450    1.7056    5.9487 C   0  0  0  0  0  0  0  0  0  0  0  0
    5.0932    1.4853    6.5152 C   0  0  0  0  0  0  0  0  0  0  0  0
    5.5272    2.2339    7.7421 C   0  0  0  0  0  0  0  0  0  0  0  0
    5.1259    1.4686    9.0048 C   0  0  0  0  0  0  0  0  0  0  0  0
    5.9162    0.5267    5.9393 C   0  0  0  0  0  0  0  0  0  0  0  0
    5.5029   -0.1960    4.8356 C   0  0  0  0  0  0  0  0  0  0  0  0
    4.3915   -2.1148    2.8846 C   0  0  0  0  0  0  0  0  0  0  0  0
    4.6926   -2.6375    1.6338 C   0  0  0  0  0  0  0  0  0  0  0  0
    5.1663   -3.9298    1.5018 C   0  0  0  0  0  0  0  0  0  0  0  0
    5.3436   -4.7432    2.6116 C   0  0  0  0  0  0  0  0  0  0  0  0
    5.9043   -6.1289    2.4729 C   0  0  0  0  0  0  0  0  0  0  0  0
    7.4281   -6.1042    2.6095 C   0  0  0  0  0  0  0  0  0  0  0  0
    5.0289   -4.2236    3.8601 C   0  0  0  0  0  0  0  0  0  0  0  0
    4.5540   -2.9331    3.9961 C   0  0  0  0  0  0  0  0  0  0  0  0
   -0.5866   -0.8204    0.5674 C   0  0  0  0  0  0  0  0  0  0  0  0
   -1.9822   -0.9800    0.5308 C   0  0  0  0  0  0  0  0  0  0  0  0
   -2.6975   -0.8624   -0.6351 C   0  0  0  0  0  0  0  0  0  0  0  0
   -4.1234   -0.8650   -0.6669 C   0  0  0  0  0  0  0  0  0  0  0  0
   -4.8577   -0.8817   -1.8371 C   0  0  0  0  0  0  0  0  0  0  0  0
   -4.1741   -1.1695   -3.1466 C   0  0  0  0  0  0  0  0  0  0  0  0
   -4.9124   -0.4873   -4.2845 C   0  0  0  0  0  0  0  0  0  0  0  0
   -5.2344   -1.1404   -5.4655 C   0  0  0  0  0  0  0  0  0  0  0  0
   -5.8893   -0.4684   -6.4824 C   0  0  0  0  0  0  0  0  0  0  0  0
   -6.2322    0.8700   -6.3517 C   0  0  0  0  0  0  0  0  0  0  0  0
   -6.9879    1.5813   -7.4366 C   0  0  0  0  0  0  0  0  0  0  0  0
   -8.4956    1.4547   -7.2083 C   0  0  0  0  0  0  0  0  0  0  0  0
   -5.8952    1.5245   -5.1733 C   0  0  0  0  0  0  0  0  0  0  0  0
   -5.2398    0.8581   -4.1566 C   0  0  0  0  0  0  0  0  0  0  0  0
   -4.2034   -2.6976   -3.2739 C   0  0  0  0  0  0  0  0  0  0  0  0
   -5.4291   -3.3549   -3.2419 C   0  0  0  0  0  0  0  0  0  0  0  0
   -5.4980   -4.7312   -3.3156 C   0  0  0  0  0  0  0  0  0  0  0  0
   -4.3443   -5.4981   -3.4190 C   0  0  0  0  0  0  0  0  0  0  0  0
   -4.4242   -6.9929   -3.5322 C   0  0  0  0  0  0  0  0  0  0  0  0
   -4.6025   -7.4118   -4.9930 C   0  0  0  0  0  0  0  0  0  0  0  0
   -3.1240   -4.8407   -3.4581 C   0  0  0  0  0  0  0  0  0  0  0  0
   -3.0500   -3.4604   -3.3828 C   0  0  0  0  0  0  0  0  0  0  0  0
   -2.7355   -0.6861   -3.1035 C   0  0  0  0  0  0  0  0  0  0  0  0
   -2.0737   -0.3882   -4.2746 C   0  0  0  0  0  0  0  0  0  0  0  0
   -0.7200   -0.0606   -4.2575 C   0  0  0  0  0  0  0  0  0  0  0  0
   -0.0145   -0.0549   -3.0807 C   0  0  0  0  0  0  0  0  0  0  0  0
   -0.6462   -0.3472   -1.8610 C   0  0  0  0  0  0  0  0  0  0  0  0
    0.0710   -0.3941   -0.6100 C   0  0  0  0  0  0  0  0  0  0  0  0
    1.4140    0.0045   -0.5156 C   0  0  0  0  0  0  0  0  0  0  0  0
   -2.0292   -0.6413   -1.8833 C   0  0  0  0  0  0  0  0  0  0  0  0
   -6.2231   -0.7063   -1.6166 C   0  0  0  0  0  0  0  0  0  0  0  0
   -6.5608   -0.5948   -0.2786 C   0  0  0  0  0  0  0  0  0  0  0  0
   -5.1314   -0.6739    0.7242 S   0  0  0  0  0  0  0  0  0  0  0  0
   -7.8528   -0.3156    0.2194 C   0  0  0  0  0  0  0  0  0  0  0  0
   -8.3198   -0.3625    1.4964 C   0  0  0  0  0  0  0  0  0  0  0  0
   -9.5081    0.4431    1.8815 C   0  0  0  0  0  0  0  0  0  0  0  0
  -10.3167    0.9492    1.1358 O   0  0  0  0  0  0  0  0  0  0  0  0
   -9.4414    0.5468    3.3532 C   0  0  0  0  0  0  0  0  0  0  0  0
  -10.2488    1.3240    4.1817 C   0  0  0  0  0  0  0  0  0  0  0  0
   -9.9219    1.2471    5.5142 C   0  0  0  0  0  0  0  0  0  0  0  0
   -8.8697    0.4556    5.9952 C   0  0  0  0  0  0  0  0  0  0  0  0
   -8.0731   -0.3267    5.1933 C   0  0  0  0  0  0  0  0  0  0  0  0
   -8.3890   -0.2611    3.8341 C   0  0  0  0  0  0  0  0  0  0  0  0
   -7.7930   -0.9634    2.7012 C   0  0  0  0  0  0  0  0  0  0  0  0
   -7.0985   -2.1434    2.7633 C   0  0  0  0  0  0  0  0  0  0  0  0
   -6.8390   -2.9322    1.6225 C   0  0  0  0  0  0  0  0  0  0  0  0
   -6.6696   -3.6251    0.7230 N   0  0  0  0  0  0  0  0  0  0  0  0
   -6.6638   -2.7439    3.9600 C   0  0  0  0  0  0  0  0  0  0  0  0
   -6.2689   -3.2610    4.9062 N   0  0  0  0  0  0  0  0  0  0  0  0
   -9.0973    0.8803    7.4246 C   0  0  0  0  0  0  0  0  0  0  0  0
   -8.1192    1.9288    7.9960 C   0  0  0  0  0  0  0  0  0  0  0  0
   -8.8515    2.4931    9.1919 C   0  0  0  0  0  0  0  0  0  0  0  0
   -9.8503    3.2395    8.7381 C   0  0  0  0  0  0  0  0  0  0  0  0
   -9.8094    3.1926    7.2277 C   0  0  0  0  0  0  0  0  0  0  0  0
   -8.2946    3.0894    7.0080 C   0  0  0  0  0  0  0  0  0  0  0  0
  -10.2726    1.7595    6.8894 C   0  0  0  0  0  0  0  0  0  0  0  0
    7.5776    2.1188    1.0931 H   0  0  0  0  0  0  0  0  0  0  0  0
    5.5918    4.7254   -4.2733 H   0  0  0  0  0  0  0  0  0  0  0  0
   10.1007    5.7629   -2.2137 H   0  0  0  0  0  0  0  0  0  0  0  0
    9.9320    6.9937   -5.4142 H   0  0  0  0  0  0  0  0  0  0  0  0
    9.8485    9.1711   -4.2099 H   0  0  0  0  0  0  0  0  0  0  0  0
    8.0770    8.9040   -2.3057 H   0  0  0  0  0  0  0  0  0  0  0  0
    5.7239    8.3891   -3.4244 H   0  0  0  0  0  0  0  0  0  0  0  0
    6.0454    8.3380   -6.0200 H   0  0  0  0  0  0  0  0  0  0  0  0
    8.5816    9.0433   -6.5822 H   0  0  0  0  0  0  0  0  0  0  0  0
    7.8112   10.2459   -5.5174 H   0  0  0  0  0  0  0  0  0  0  0  0
    7.6441    6.4887   -6.4988 H   0  0  0  0  0  0  0  0  0  0  0  0
   -1.4539   -1.8729    2.9336 H   0  0  0  0  0  0  0  0  0  0  0  0
   -0.1380   -2.1955    4.9497 H   0  0  0  0  0  0  0  0  0  0  0  0
    2.2432   -1.6212    4.9989 H   0  0  0  0  0  0  0  0  0  0  0  0
    6.2774    0.7137    2.5019 H   0  0  0  0  0  0  0  0  0  0  0  0
    2.4582    1.1860    4.4122 H   0  0  0  0  0  0  0  0  0  0  0  0
    3.1923    2.4565    6.3712 H   0  0  0  0  0  0  0  0  0  0  0  0
    5.0624    3.2218    7.7570 H   0  0  0  0  0  0  0  0  0  0  0  0
    6.6109    2.3659    7.7308 H   0  0  0  0  0  0  0  0  0  0  0  0
    4.0464    1.3385    9.0410 H   0  0  0  0  0  0  0  0  0  0  0  0
    5.4408    2.0093    9.8942 H   0  0  0  0  0  0  0  0  0  0  0  0
    5.5895    0.4847    9.0140 H   0  0  0  0  0  0  0  0  0  0  0  0
    6.8983    0.3484    6.3535 H   0  0  0  0  0  0  0  0  0  0  0  0
    6.1681   -0.9289    4.4021 H   0  0  0  0  0  0  0  0  0  0  0  0
    4.5574   -2.0368    0.7468 H   0  0  0  0  0  0  0  0  0  0  0  0
    5.3964   -4.3118    0.5173 H   0  0  0  0  0  0  0  0  0  0  0  0
    5.6369   -6.5403    1.4976 H   0  0  0  0  0  0  0  0  0  0  0  0
    5.4843   -6.7774    3.2445 H   0  0  0  0  0  0  0  0  0  0  0  0
    7.8660   -5.4699    1.8419 H   0  0  0  0  0  0  0  0  0  0  0  0
    7.7143   -5.7102    3.5821 H   0  0  0  0  0  0  0  0  0  0  0  0
    7.8364   -7.1069    2.5068 H   0  0  0  0  0  0  0  0  0  0  0  0
    5.1522   -4.8389    4.7401 H   0  0  0  0  0  0  0  0  0  0  0  0
    4.3197   -2.5620    4.9824 H   0  0  0  0  0  0  0  0  0  0  0  0
   -2.5342   -1.1681    1.4386 H   0  0  0  0  0  0  0  0  0  0  0  0
   -4.9710   -2.1797   -5.5963 H   0  0  0  0  0  0  0  0  0  0  0  0
   -6.1331   -0.9943   -7.3947 H   0  0  0  0  0  0  0  0  0  0  0  0
   -6.7342    1.1515   -8.4078 H   0  0  0  0  0  0  0  0  0  0  0  0
   -6.7133    2.6381   -7.4478 H   0  0  0  0  0  0  0  0  0  0  0  0
   -8.7712    1.8899   -6.2502 H   0  0  0  0  0  0  0  0  0  0  0  0
   -8.7911    0.4078   -7.2059 H   0  0  0  0  0  0  0  0  0  0  0  0
   -9.0444    1.9688   -7.9939 H   0  0  0  0  0  0  0  0  0  0  0  0
   -6.1447    2.5693   -5.0533 H   0  0  0  0  0  0  0  0  0  0  0  0
   -4.9753    1.3866   -3.2511 H   0  0  0  0  0  0  0  0  0  0  0  0
   -6.3429   -2.7869   -3.1592 H   0  0  0  0  0  0  0  0  0  0  0  0
   -6.4620   -5.2174   -3.2812 H   0  0  0  0  0  0  0  0  0  0  0  0
   -5.2688   -7.3612   -2.9467 H   0  0  0  0  0  0  0  0  0  0  0  0
   -3.5116   -7.4433   -3.1372 H   0  0  0  0  0  0  0  0  0  0  0  0
   -3.7639   -7.0627   -5.5917 H   0  0  0  0  0  0  0  0  0  0  0  0
   -5.5155   -6.9836   -5.4009 H   0  0  0  0  0  0  0  0  0  0  0  0
   -4.6605   -8.4948   -5.0744 H   0  0  0  0  0  0  0  0  0  0  0  0
   -2.2110   -5.4134   -3.5408 H   0  0  0  0  0  0  0  0  0  0  0  0
   -2.0800   -2.9877   -3.4121 H   0  0  0  0  0  0  0  0  0  0  0  0
   -2.6016   -0.4235   -5.2155 H   0  0  0  0  0  0  0  0  0  0  0  0
   -0.2197    0.1694   -5.1864 H   0  0  0  0  0  0  0  0  0  0  0  0
    1.0405    0.1622   -3.1099 H   0  0  0  0  0  0  0  0  0  0  0  0
    1.9152    0.4410   -1.3649 H   0  0  0  0  0  0  0  0  0  0  0  0
   -6.9622   -0.6550   -2.3967 H   0  0  0  0  0  0  0  0  0  0  0  0
   -8.5467    0.0923   -0.5099 H   0  0  0  0  0  0  0  0  0  0  0  0
  -11.0513    1.9189    3.7746 H   0  0  0  0  0  0  0  0  0  0  0  0
   -7.2640   -0.9320    5.5686 H   0  0  0  0  0  0  0  0  0  0  0  0
   -9.3223    0.0804    8.1275 H   0  0  0  0  0  0  0  0  0  0  0  0
   -7.1101    1.5640    8.1672 H   0  0  0  0  0  0  0  0  0  0  0  0
   -8.6101    2.2538   10.2110 H   0  0  0  0  0  0  0  0  0  0  0  0
  -10.6096    3.7485    9.3023 H   0  0  0  0  0  0  0  0  0  0  0  0
  -10.3401    3.9800    6.6992 H   0  0  0  0  0  0  0  0  0  0  0  0
   -7.7700    3.9873    7.3307 H   0  0  0  0  0  0  0  0  0  0  0  0
   -8.0096    2.8492    5.9854 H   0  0  0  0  0  0  0  0  0  0  0  0
  -11.2822    1.5452    7.2347 H   0  0  0  0  0  0  0  0  0  0  0  0
  1  2  2  0  0  0  0
  2  3  1  0  0  0  0
  3  4  2  0  0  0  0
  3  5  1  0  0  0  0
  5  6  2  0  0  0  0
  6  7  1  0  0  0  0
  7  8  2  0  0  0  0
  8  9  1  0  0  0  0
  9 10  2  0  0  0  0
 10 11  1  0  0  0  0
 11 12  2  0  0  0  0
 12 13  1  0  0  0  0
 13 14  3  0  0  0  0
 12 15  1  0  0  0  0
 15 16  3  0  0  0  0
  8 17  1  0  0  0  0
 17 18  1  0  0  0  0
 18 19  1  0  0  0  0
 19 20  2  0  0  0  0
 20 21  1  0  0  0  0
 21 22  1  0  0  0  0
 21 23  1  0  0  0  0
  1 24  1  0  0  0  0
 24 25  1  0  0  0  0
 25 26  1  0  0  0  0
 26 27  1  0  0  0  0
 27 28  2  0  0  0  0
 28 29  1  0  0  0  0
 29 30  1  0  0  0  0
 30 31  2  0  0  0  0
 31 32  1  0  0  0  0
 32 33  2  0  0  0  0
 33 34  1  0  0  0  0
 34 35  1  0  0  0  0
 35 36  1  0  0  0  0
 34 37  1  0  0  0  0
 37 38  2  0  0  0  0
 38 39  1  0  0  0  0
 39 40  2  0  0  0  0
 40 41  1  0  0  0  0
 41 42  1  0  0  0  0
 40 43  1  0  0  0  0
 43 44  2  0  0  0  0
 34 45  1  0  0  0  0
 45 46  2  0  0  0  0
 46 47  1  0  0  0  0
 47 48  2  0  0  0  0
 48 49  1  0  0  0  0
 49 50  1  0  0  0  0
 48 51  1  0  0  0  0
 51 52  2  0  0  0  0
 29 53  2  0  0  0  0
 53 54  1  0  0  0  0
 54 55  2  0  0  0  0
 55 56  1  0  0  0  0
 56 57  2  0  0  0  0
 57 58  1  0  0  0  0
 58 59  1  0  0  0  0
 59 60  2  0  0  0  0
 60 61  1  0  0  0  0
 61 62  2  0  0  0  0
 62 63  1  0  0  0  0
 63 64  1  0  0  0  0
 62 65  1  0  0  0  0
 65 66  2  0  0  0  0
 58 67  1  0  0  0  0
 67 68  2  0  0  0  0
 68 69  1  0  0  0  0
 69 70  2  0  0  0  0
 70 71  1  0  0  0  0
 71 72  1  0  0  0  0
 70 73  1  0  0  0  0
 73 74  2  0  0  0  0
 58 75  1  0  0  0  0
 75 76  1  0  0  0  0
 76 77  2  0  0  0  0
 77 78  1  0  0  0  0
 78 79  2  0  0  0  0
 79 80  1  0  0  0  0
 80 81  2  0  0  0  0
 79 82  1  0  0  0  0
 57 83  1  0  0  0  0
 83 84  2  0  0  0  0
 84 85  1  0  0  0  0
 84 86  1  0  0  0  0
 86 87  2  0  0  0  0
 87 88  1  0  0  0  0
 88 89  2  0  0  0  0
 88 90  1  0  0  0  0
 90 91  2  0  0  0  0
 91 92  1  0  0  0  0
 92 93  2  0  0  0  0
 93 94  1  0  0  0  0
 94 95  2  0  0  0  0
 95 96  1  0  0  0  0
 96 97  2  0  0  0  0
 97 98  1  0  0  0  0
 98 99  3  0  0  0  0
 97100  1  0  0  0  0
100101  3  0  0  0  0
 93102  1  0  0  0  0
102103  1  0  0  0  0
103104  1  0  0  0  0
104105  2  0  0  0  0
105106  1  0  0  0  0
106107  1  0  0  0  0
106108  1  0  0  0  0
 11  2  1  0  0  0  0
 23 17  1  0  0  0  0
 36 24  2  0  0  0  0
 44 37  1  0  0  0  0
 52 45  1  0  0  0  0
 80 53  1  0  0  0  0
 96 87  1  0  0  0  0
108102  1  0  0  0  0
 10  5  1  0  0  0  0
 22 18  1  0  0  0  0
 35 26  2  0  0  0  0
 82 55  1  0  0  0  0
 95 90  1  0  0  0  0
107103  1  0  0  0  0
 23  7  1  0  0  0  0
 81 27  1  0  0  0  0
108 92  1  0  0  0  0
 33 28  1  0  0  0  0
 85 56  1  0  0  0  0
 66 59  1  0  0  0  0
 74 67  1  0  0  0  0
 82 75  2  0  0  0  0
  1109  1  0  0  0  0
  6110  1  0  0  0  0
  9111  1  0  0  0  0
 17112  1  0  0  0  0
 18113  1  0  0  0  0
 19114  1  0  0  0  0
 20115  1  0  0  0  0
 21116  1  0  0  0  0
 22117  1  0  0  0  0
 22118  1  0  0  0  0
 23119  1  0  0  0  0
 30120  1  0  0  0  0
 31121  1  0  0  0  0
 32122  1  0  0  0  0
 36123  1  0  0  0  0
 38124  1  0  0  0  0
 39125  1  0  0  0  0
 41126  1  0  0  0  0
 41127  1  0  0  0  0
 42128  1  0  0  0  0
 42129  1  0  0  0  0
 42130  1  0  0  0  0
 43131  1  0  0  0  0
 44132  1  0  0  0  0
 46133  1  0  0  0  0
 47134  1  0  0  0  0
 49135  1  0  0  0  0
 49136  1  0  0  0  0
 50137  1  0  0  0  0
 50138  1  0  0  0  0
 50139  1  0  0  0  0
 51140  1  0  0  0  0
 52141  1  0  0  0  0
 54142  1  0  0  0  0
 60143  1  0  0  0  0
 61144  1  0  0  0  0
 63145  1  0  0  0  0
 63146  1  0  0  0  0
 64147  1  0  0  0  0
 64148  1  0  0  0  0
 64149  1  0  0  0  0
 65150  1  0  0  0  0
 66151  1  0  0  0  0
 68152  1  0  0  0  0
 69153  1  0  0  0  0
 71154  1  0  0  0  0
 71155  1  0  0  0  0
 72156  1  0  0  0  0
 72157  1  0  0  0  0
 72158  1  0  0  0  0
 73159  1  0  0  0  0
 74160  1  0  0  0  0
 76161  1  0  0  0  0
 77162  1  0  0  0  0
 78163  1  0  0  0  0
 81164  1  0  0  0  0
 83165  1  0  0  0  0
 86166  1  0  0  0  0
 91167  1  0  0  0  0
 94168  1  0  0  0  0
102169  1  0  0  0  0
103170  1  0  0  0  0
104171  1  0  0  0  0
105172  1  0  0  0  0
106173  1  0  0  0  0
107174  1  0  0  0  0
107175  1  0  0  0  0
108176  1  0  0  0  0
M  END
