168

C         -1.34550        7.79520       -1.35210
C         -0.49950        8.77920       -1.75950
C         -0.58420       10.12800       -1.13710
O         -1.51240       10.57970       -0.50520
C          0.72850       10.75210       -1.39690
C          1.21150       11.95110       -0.87580
C          2.49480       12.25340       -1.26330
C          3.25140       11.42510       -2.10380
C          2.78770       10.24350       -2.63160
C          1.48220        9.92130       -2.25320
C          0.65820        8.77520       -2.62580
C          0.80080        8.02110       -3.76090
C         -0.19890        7.13410       -4.21260
N         -1.01940        6.44920       -4.63130
C          1.88920        8.13100       -4.64770
N          2.76060        8.18040       -5.39360
C          4.44880       12.34150       -2.06180
C          4.68180       13.22850       -3.30310
C          5.59170       14.32480       -2.79780
C          4.87460       15.11090       -2.00490
C          3.46790       14.55890       -1.96090
C          3.35870       14.00050       -3.38560
C          3.60430       13.26670       -1.12800
C         -1.18920        6.39270       -1.40430
S          0.36820        5.62040       -1.71520
C         -0.31840        4.07690       -1.40970
C          0.02480        2.72880       -1.32740
S          1.42140        1.71160       -1.44650
C          0.44050        0.37040       -0.95040
C          0.72860       -0.96890       -0.54860
C          1.92850       -1.67360       -0.53430
C          1.91870       -2.91660        0.05330
C          3.07810       -3.88380        0.21890
C          3.48000       -4.56130       -1.08130
C          2.67770       -4.51300       -2.21160
C          3.05020       -5.18540       -3.36210
C          4.22350       -5.92480       -3.41110
C          4.60030       -6.69140       -4.64570
C          4.03500       -8.11190       -4.58450
C          5.01620       -5.98020       -2.27110
C          4.64990       -5.31080       -1.12020
C          4.24010       -3.15660        0.86440
C          4.36670       -3.09280        2.24470
C          5.40710       -2.38760        2.82160
C          6.34090       -1.72360        2.03810
C          7.44600       -0.92380        2.66490
C          7.01700        0.53440        2.83980
C          6.19980       -1.77670        0.65720
C          5.16330       -2.48110        0.07560
C          2.44210       -4.94040        1.08620
C          1.08700       -4.65420        1.29100
C          0.74500       -3.42030        0.66240
C         -0.46600       -2.72850        0.61140
C         -0.47140       -1.51350       -0.02790
C         -1.63860       -0.56020       -0.27100
C         -2.41710       -0.24750        0.99390
C         -3.77370       -0.49390        1.14240
C         -4.43170       -0.12110        2.30010
C         -3.76330        0.52120        3.33200
C         -4.49900        0.93020        4.57470
C         -4.67830       -0.26120        5.51700
C         -2.40040        0.74770        3.18980
C         -1.73620        0.36630        2.04030
C         -2.47960       -1.16210       -1.38880
C         -2.58740       -0.54800       -2.63020
C         -3.37050       -1.09980       -3.62910
C         -4.06110       -2.28520       -3.42430
C         -4.96790       -2.84370       -4.48120
C         -6.38490       -2.29260       -4.30580
C         -3.92710       -2.91500       -2.19370
C         -3.14490       -2.36810       -1.19480
C         -0.89670        0.66870       -0.73950
C         -1.14830        2.02480       -0.95420
N         -2.19410        2.91400       -0.82960
C         -1.68970        4.17200       -1.08400
C         -2.17220        5.47450       -1.06920
C         -3.47600        2.64200       -0.37930
C         -4.36480        1.74480       -0.88730
C         -5.54870        1.72540       -0.12760
S         -7.01120        0.81320       -0.18720
C         -7.61840        1.64390        1.22730
C         -8.93450        1.24900        1.80180
C         -8.80770       -0.03500        2.62610
C         -6.74010        2.56610        1.70690
C         -5.55930        2.61120        0.94000
S         -4.07870        3.49370        1.03720
S          0.28400       -5.81780        2.24770
C          1.78230       -6.73220        2.39190
C          2.83130       -6.11110        1.69080
C          1.97920       -7.91360        3.10880
C          1.11640       -8.65260        3.88720
C         -0.28800       -8.33200        4.14220
O         -0.93240       -7.40080        3.69660
C         -0.78170       -9.37920        5.06400
C          0.25930      -10.28530        5.33730
C          0.03660      -11.35830        6.18470
C         -1.22240      -11.51100        6.74780
C         -2.24420      -10.61540        6.47530
Br        -3.93630      -10.87760        7.27510
C         -2.04070       -9.52530        5.62170
Cl        -3.29950       -8.41560        5.28330
C          1.45500       -9.85870        4.60790
C          2.66060      -10.51460        4.62950
C          2.91030      -11.69310        5.36290
N          3.18410      -12.65120        5.93340
C          3.82540      -10.12810        3.93450
N          4.81740       -9.89120        3.40520
H         -2.21840        8.13780       -0.80400
H          0.60240       12.55860       -0.22490
H          3.37800        9.60330       -3.26690
H          5.36650       11.90540       -1.67140
H          5.00560       12.69230       -4.19080
H          6.64170       14.38200       -3.01720
H          5.20590       15.95550       -1.42970
H          2.68680       15.23630       -1.62630
H          2.48690       13.37010       -3.55010
H          3.38710       14.78620       -4.13870
H          3.95940       13.44880       -0.11520
H          2.82570       -1.24620       -0.95450
H          1.75760       -3.94710       -2.20010
H          2.41620       -5.13190       -4.23570
H          4.20790       -6.18570       -5.53020
H          5.68750       -6.74090       -4.73360
H          2.95000       -8.08420       -4.51090
H          4.30890       -8.66940       -5.47710
H          4.42290       -8.63640       -3.71420
H          5.93180       -6.55370       -2.28570
H          5.28210       -5.35940       -0.24540
H          3.65080       -3.59960        2.87560
H          5.49490       -2.35560        3.89830
H          8.33540       -0.96300        2.03270
H          7.70070       -1.34390        3.63990
H          7.81680        1.11440        3.29440
H          6.77200        0.97540        1.87610
H          6.13730        0.59590        3.47670
H          6.91320       -1.26310        0.02850
H          5.07810       -2.51870       -1.00090
H         -1.34090       -3.13700        1.09180
H         -4.33600       -0.96200        0.34940
H         -5.49060       -0.31690        2.39210
H         -5.48110        1.32440        4.30180
H         -3.94640        1.71890        5.08860
H         -3.70960       -0.66300        5.80560
H         -5.24320       -1.05150        5.02750
H         -5.21060        0.04110        6.41590
H         -1.85430        1.23860        3.98260
H         -0.67580        0.55610        1.94600
H         -2.05740        0.37140       -2.83230
H         -3.44350       -0.59580       -4.58240
H         -4.99350       -3.93280       -4.41030
H         -4.59580       -2.57300       -5.47120
H         -7.04710       -2.69730       -5.06720
H         -6.38260       -1.20790       -4.38830
H         -6.77660       -2.55890       -3.32650
H         -4.44140       -3.84810       -2.01350
H         -3.05990       -2.88630       -0.25290
H         -3.18190        5.76120       -0.83900
H         -4.17920        1.13230       -1.74950
H         -9.30230        2.05770        2.43640
H         -9.65390        1.08770        0.99610
H         -9.77380       -0.31490        3.03760
H         -8.44730       -0.84940        2.00140
H         -8.10950        0.10920        3.44790
H         -6.92720        3.18330        2.56630
H          3.82200       -6.52870        1.66610
H          2.99470       -8.28380        3.03590
H          0.80980      -12.07080        6.41730
H         -1.41520      -12.33990        7.41130
