103

C         -0.01380        0.85120        4.51350
C          0.02120        2.12270        4.99970
C         -0.19980        3.39990        4.27320
O         -0.72310        3.57440        3.19330
C          0.36740        4.44950        5.13740
C          0.50980        5.79860        4.81950
C          1.10760        6.54530        5.80540
C          1.53700        5.99140        7.02030
C          1.39810        4.66430        7.34880
C          0.78650        3.88700        6.36010
C          0.48940        2.46000        6.33840
C          0.57070        1.61020        7.40880
C          0.21020        0.24480        7.40080
N         -0.07130       -0.86580        7.48190
C          0.98670        2.00020        8.70030
N          1.31240        2.24830        9.77250
C          2.05780        7.31180        7.52900
C          1.20480        8.06950        8.57600
C         -0.22440        7.63820        8.35720
C         -0.63410        8.16200        7.20960
C          0.51060        8.95690        6.63130
C          1.17090        9.46130        7.92440
C          1.57660        7.92890        6.17780
C         -0.37810        0.35020        3.24140
C         -1.00720        0.91680        2.14890
C         -1.11310        0.01450        1.09280
S         -1.71520        0.14790       -0.53330
C         -1.17380       -1.48190       -0.87680
C         -1.24560       -2.10120       -2.11620
C         -1.89970       -1.49830       -3.26530
S         -1.45780        0.05710       -3.89380
C         -2.61850       -0.04720       -5.17040
C         -2.81080        1.06870       -6.13570
C         -3.82840        2.07960       -5.60040
C         -3.31680       -1.21590       -5.08880
Cl        -4.55190       -1.67200       -6.18310
C         -2.90990       -2.04290       -4.01120
Cl        -3.65700       -3.54210       -3.65590
C         -0.65930       -3.37260       -2.22860
C         -0.13340       -4.03580       -1.08930
C         -0.12500       -3.44440        0.16330
C          0.38700       -4.12150        1.34760
S         -0.65360       -4.48640        2.69000
C          0.64620       -5.16330        3.60820
C          0.43540       -5.61820        5.00890
C          0.51820       -4.43210        5.97420
C          1.80820       -5.11290        2.89700
C          1.66280       -4.53090        1.60850
Cl         2.97500       -4.30310        0.53160
Cl         3.31600       -5.68510        3.48100
C         -0.61220       -2.13050        0.25290
C         -0.58580       -1.25010        1.36010
S          0.04630       -1.33650        2.95130
S          0.51940       -5.61910       -1.45910
C          0.19820       -5.36190       -3.15080
C          0.48370       -6.07070       -4.30390
C          0.08690       -5.38570       -5.45580
S         -0.67350       -3.85040       -5.07020
C         -0.43750       -4.13890       -3.39710
C          0.31930       -5.89320       -6.74350
C          0.04270       -5.35240       -7.97360
C         -0.62370       -4.06840       -8.21960
O         -1.03480       -3.26670       -7.40160
C         -0.70150       -3.92430       -9.68690
C         -1.24600       -2.88550      -10.41560
C         -1.19630       -2.97610      -11.79700
F         -1.70920       -1.99280      -12.54510
C         -0.61430       -4.08370      -12.41530
F         -0.57930       -4.14490      -13.75020
C         -0.06830       -5.12680      -11.68160
C         -0.11330       -5.04390      -10.29840
C          0.36700       -5.95290       -9.25600
C          1.01660       -7.13610       -9.48470
C          1.50140       -8.02080       -8.49690
N          1.92900       -8.79390       -7.76340
C          1.30690       -7.64300      -10.77070
N          1.57490       -8.11000      -11.78370
H          0.34980        0.07420        5.17650
H          0.17370        6.18170        3.86870
H          1.74270        4.25090        8.28200
H          3.12150        7.34720        7.75570
H          1.57620        8.00140        9.59480
H         -0.75460        6.97100        9.01110
H         -1.57580        8.02000        6.71250
H          0.25010        9.69770        5.88000
H          0.54510       10.16600        8.46940
H          2.15920        9.89140        7.76790
H          2.32540        8.36960        5.52250
H         -1.34910        1.93450        2.12660
H         -1.85660        1.56810       -6.30930
H         -3.16920        0.65590       -7.08040
H         -3.48280        2.50090       -4.65950
H         -4.78730        1.59580       -5.43360
H         -3.96480        2.88580       -6.31590
H         -0.54460       -6.09020        5.09590
H          1.20260       -6.35220        5.26100
H         -0.24160       -3.69200        5.73690
H          0.36540       -4.77010        6.99490
H          1.49400       -3.95820        5.90820
H          0.96910       -7.02930       -4.33330
H          0.80580       -6.86100       -6.73380
H         -1.69470       -2.03290       -9.93130
H          0.36820       -5.95810      -12.21000
