184

C         -3.51740        9.01280        1.64910
C         -3.21850       10.35050        1.70300
C         -1.96830       11.04150        1.32100
O         -0.88720       10.56740        1.02760
C         -2.27940       12.48310        1.34300
C         -1.41920       13.52230        0.99360
C         -1.98360       14.77100        1.08990
C         -3.30980       14.97170        1.49520
C         -4.16700       13.95580        1.84490
C         -3.60810       12.67620        1.76450
C         -4.19010       11.36980        2.06250
C         -5.41260       11.17380        2.65320
C         -5.95930        9.93480        3.04960
N         -6.47920        8.98230        3.42750
C         -6.30250       12.21020        3.00530
N         -7.08140       12.99520        3.31540
C         -3.20840       16.47090        1.36010
C         -3.05220       17.27070        2.67080
C         -2.50260       18.60390        2.21790
C         -1.24560       18.41400        1.83770
C         -0.92460       16.94890        2.02700
C         -1.78120       16.64900        3.26390
C         -1.72850       16.24720        0.91180
C         -2.72800        7.89180        1.34790
C         -1.36570        7.73800        1.10220
C         -1.01530        6.42470        0.86030
C          0.25890        5.66130        0.54430
C          1.25460        5.79740        1.68830
C          0.86380        5.37040        2.95260
C          1.72940        5.45290        4.02550
C          3.00870        5.97030        3.86930
C          3.97290        6.01420        5.01950
C          4.85040        4.76080        5.02700
C          3.39110        6.40040        2.60690
C          2.52910        6.31550        1.52820
C          0.78840        6.12770       -0.79930
C          0.88780        5.27270       -1.88710
C          1.37250        5.72840       -3.10060
C          1.76070        7.04960       -3.26700
C          2.24340        7.55150       -4.59730
C          1.06790        8.06580       -5.43080
C          1.63730        7.90930       -2.18300
C          1.15740        7.45860       -0.96850
C         -0.27200        4.24510        0.51730
C         -1.64120        4.22690        0.73000
C         -2.10500        5.54640        0.93280
S         -3.57270        6.33810        1.28680
S         -2.32130        2.64260        0.75030
C         -0.73130        1.96700        0.49050
C         -0.46600        0.59170        0.38500
C          0.88950        0.22670        0.20010
C          1.90370        1.20580        0.10680
C          1.62350        2.54530        0.18210
O          2.52490        3.54310        0.05660
C          3.84710        3.20570       -0.31900
C          4.60700        4.49130       -0.59780
C          0.26980        2.94870        0.39070
C          1.15520       -1.14880        0.10170
C          0.14930       -2.13030        0.14600
C         -1.20590       -1.72630        0.34580
C         -1.48020       -0.38830        0.46360
O         -2.11900       -2.71890        0.42990
C         -3.43550       -2.38030        0.82670
C         -4.22590       -3.66120        1.03930
C          0.69660       -3.42400        0.00970
C          2.07730       -3.40510       -0.11470
S          2.75670       -1.82120       -0.08370
C          2.55830       -4.72500       -0.27360
S          4.05210       -5.52810       -0.44860
C          3.21230       -7.08330       -0.56000
C          1.83280       -6.92310       -0.45240
C          1.46600       -5.60230       -0.29270
C          0.16830       -4.83310       -0.14270
C         -0.61600       -4.86280       -1.45120
C          0.05630       -4.60410       -2.64070
C         -0.62220       -4.57700       -3.84270
C         -1.99260       -4.80020       -3.89290
C         -2.71800       -4.81270       -5.20740
C         -2.62050       -6.19430       -5.85760
C         -2.65840       -5.05410       -2.70290
C         -1.98280       -5.08190       -1.49570
C         -0.58710       -5.37030        1.05140
C         -0.68370       -4.65520        2.23560
C         -1.36680       -5.17990        3.31860
C         -1.95830       -6.43360        3.25240
C         -2.66690       -7.01600        4.44140
C         -1.68880       -7.81180        5.30800
C         -1.83170       -7.15930        2.07430
C         -1.15370       -6.63890        0.98930
C          4.03000       -8.21330       -0.71920
C          3.73080       -9.53920       -0.90280
C          2.41100      -10.17840       -1.09450
O          1.30060       -9.69430       -0.98560
C          2.68850      -11.57790       -1.46800
C          1.74730      -12.54820       -1.80360
C          2.29170      -13.76790       -2.12440
C          3.67310      -14.00270       -2.11990
C          4.61140      -13.05400       -1.79030
C          4.07690      -11.80770       -1.45000
C          4.74270      -10.57360       -1.03950
C          6.08370      -10.46150       -0.77270
C          7.01270      -11.51580       -0.89780
N          7.83260      -12.31590       -0.97980
C          6.75020       -9.31430       -0.29200
N          7.38470       -8.44480        0.11070
C          3.51040      -15.44140       -2.54210
C          3.67350      -16.53350       -1.45630
C          3.31700      -15.88640       -0.14110
C          2.00940      -15.66430       -0.14070
C          1.45820      -16.15730       -1.45570
C          2.39550      -17.34800       -1.71270
C          1.97110      -15.18080       -2.54320
H         -4.55050        8.75530        1.85280
H         -0.40760       13.32050        0.67800
H         -5.18640       14.12780        2.14650
H         -3.90080       16.93310        0.65920
H         -3.93910       17.29350        3.29790
H         -3.08240       19.50690        2.16960
H         -0.56580       19.12660        1.40830
H          0.12760       16.68000        2.06870
H         -1.87170       15.58930        3.49490
H         -1.43350       17.18540        4.14520
H         -1.43370       16.56170       -0.08780
H         -0.69810        8.57820        1.11900
H         -0.12830        4.96730        3.10140
H          1.40580        5.11250        4.99900
H          3.42460        6.07580        5.96140
H          4.60920        6.89770        4.93600
H          4.23410        3.86910        5.11750
H          5.41830        4.69070        4.10180
H          5.54750        4.78800        5.86120
H          4.38080        6.81250        2.46380
H          2.85880        6.65300        0.55910
H          0.58720        4.24050       -1.80070
H          1.44820        5.04150       -3.93210
H          2.96050        8.36160       -4.44970
H          2.74340        6.74600       -5.13920
H          0.56250        8.87660       -4.91100
H          1.41490        8.43240       -6.39420
H          0.34780        7.26840       -5.60090
H          1.92100        8.94660       -2.28890
H          1.07390        8.15180       -0.14640
H          2.91320        0.85340       -0.03380
H          4.33380        2.64150        0.48830
H          3.82460        2.57910       -1.22120
H          5.59930        4.25450       -0.97140
H          4.69700        5.07500        0.31280
H          4.07440        5.07930       -1.34130
H         -2.48840       -0.03620        0.61410
H         -3.39800       -1.80550        1.76230
H         -3.91360       -1.76250        0.05440
H         -4.37960       -4.17240        0.09390
H         -3.68640       -4.32080        1.71470
H         -5.19380       -3.42170        1.47070
H          1.16360       -7.76130       -0.49880
H          1.12130       -4.41980       -2.63080
H         -0.08080       -4.37380       -4.75590
H         -3.76910       -4.55980       -5.05410
H         -2.28170       -4.06880       -5.87760
H         -3.06190       -6.94840       -5.20980
H         -1.57960       -6.45930       -6.02880
H         -3.14370       -6.20480       -6.81100
H         -3.72530       -5.23000       -2.71760
H         -2.52370       -5.27410       -0.58450
H         -0.22770       -3.68040        2.32010
H         -1.44150       -4.60300        4.22990
H         -3.10860       -6.21610        5.03940
H         -3.46970       -7.67640        4.10700
H         -0.88880       -7.16690        5.66480
H         -2.20090       -8.23860        6.16730
H         -1.24390       -8.61950        4.73120
H         -2.27090       -8.14420        2.00500
H         -1.07050       -7.22070        0.08370
H          5.08610       -7.96900       -0.71140
H          0.69280      -12.32010       -1.80080
H          5.66990      -13.25150       -1.79910
H          3.98110      -15.71850       -3.48340
H          4.62130      -17.06410       -1.48870
H          4.03860      -15.61210        0.60590
H          1.42000      -15.16670        0.60710
H          0.38820      -16.34650       -1.48720
H          2.32820      -17.74240       -2.72580
H          2.25870      -18.15470       -0.99410
H          1.43590      -15.29060       -3.48460
