
  xtb     02102217563D
 energy: -278.221151746920 gnorm: 0.000480264940 xtb: 6.4.1 (unknown)
168187  0     0  0            999 V2000
    7.7939   -1.6285    1.7441 C   0  0  0  0  0  0  0  0  0  0  0  0
    8.1567   -2.7783    2.3699 C   0  0  0  0  0  0  0  0  0  0  0  0
    9.5900   -3.1451    2.5270 C   0  0  0  0  0  0  0  0  0  0  0  0
   10.5452   -2.4207    2.3598 O   0  0  0  0  0  0  0  0  0  0  0  0
    9.5865   -4.5809    2.8706 C   0  0  0  0  0  0  0  0  0  0  0  0
   10.6901   -5.4205    3.0061 C   0  0  0  0  0  0  0  0  0  0  0  0
   10.3712   -6.7198    3.3207 C   0  0  0  0  0  0  0  0  0  0  0  0
    9.0499   -7.1638    3.4701 C   0  0  0  0  0  0  0  0  0  0  0  0
    7.9511   -6.3481    3.3450 C   0  0  0  0  0  0  0  0  0  0  0  0
    8.2561   -5.0184    3.0466 C   0  0  0  0  0  0  0  0  0  0  0  0
    7.3682   -3.8697    2.9030 C   0  0  0  0  0  0  0  0  0  0  0  0
    6.1173   -3.7607    3.4523 C   0  0  0  0  0  0  0  0  0  0  0  0
    5.4154   -2.5412    3.5491 C   0  0  0  0  0  0  0  0  0  0  0  0
    4.8363   -1.5611    3.7006 N   0  0  0  0  0  0  0  0  0  0  0  0
    5.4346   -4.8221    4.0787 C   0  0  0  0  0  0  0  0  0  0  0  0
    4.8294   -5.6505    4.5943 N   0  0  0  0  0  0  0  0  0  0  0  0
    9.4749   -8.5771    3.7792 C   0  0  0  0  0  0  0  0  0  0  0  0
    9.4139   -9.0347    5.2573 C   0  0  0  0  0  0  0  0  0  0  0  0
    9.5591   -7.7883    6.0952 C   0  0  0  0  0  0  0  0  0  0  0  0
   10.8081   -7.3603    5.9693 C   0  0  0  0  0  0  0  0  0  0  0  0
   11.5301   -8.3095    5.0451 C   0  0  0  0  0  0  0  0  0  0  0  0
   10.8245   -9.6267    5.4053 C   0  0  0  0  0  0  0  0  0  0  0  0
   10.9469   -8.0793    3.6280 C   0  0  0  0  0  0  0  0  0  0  0  0
    6.5358   -1.3169    1.1712 C   0  0  0  0  0  0  0  0  0  0  0  0
    5.4833   -2.5860    0.5368 S   0  0  0  0  0  0  0  0  0  0  0  0
    4.3087   -1.4105    0.0996 C   0  0  0  0  0  0  0  0  0  0  0  0
    3.0296   -1.2968   -0.4418 C   0  0  0  0  0  0  0  0  0  0  0  0
    1.7343   -2.2992   -1.0066 S   0  0  0  0  0  0  0  0  0  0  0  0
    0.7513   -0.8782   -1.1644 C   0  0  0  0  0  0  0  0  0  0  0  0
   -0.6406   -0.6569   -1.3935 C   0  0  0  0  0  0  0  0  0  0  0  0
   -1.6693   -1.5563   -1.6568 C   0  0  0  0  0  0  0  0  0  0  0  0
   -2.9516   -1.0592   -1.6628 C   0  0  0  0  0  0  0  0  0  0  0  0
   -4.2506   -1.8190   -1.8727 C   0  0  0  0  0  0  0  0  0  0  0  0
   -4.2851   -2.9848   -0.9041 C   0  0  0  0  0  0  0  0  0  0  0  0
   -3.7222   -4.2033   -1.2631 C   0  0  0  0  0  0  0  0  0  0  0  0
   -3.6903   -5.2528   -0.3650 C   0  0  0  0  0  0  0  0  0  0  0  0
   -4.2116   -5.1135    0.9148 C   0  0  0  0  0  0  0  0  0  0  0  0
   -4.2150   -6.2695    1.8726 C   0  0  0  0  0  0  0  0  0  0  0  0
   -5.4908   -7.0975    1.7059 C   0  0  0  0  0  0  0  0  0  0  0  0
   -4.7687   -3.8924    1.2697 C   0  0  0  0  0  0  0  0  0  0  0  0
   -4.8001   -2.8377    0.3760 C   0  0  0  0  0  0  0  0  0  0  0  0
   -4.4667   -2.2649   -3.3083 C   0  0  0  0  0  0  0  0  0  0  0  0
   -3.6980   -1.7732   -4.3528 C   0  0  0  0  0  0  0  0  0  0  0  0
   -3.9586   -2.1619   -5.6549 C   0  0  0  0  0  0  0  0  0  0  0  0
   -4.9950   -3.0373   -5.9470 C   0  0  0  0  0  0  0  0  0  0  0  0
   -5.2457   -3.4892   -7.3567 C   0  0  0  0  0  0  0  0  0  0  0  0
   -4.4151   -4.7345   -7.6740 C   0  0  0  0  0  0  0  0  0  0  0  0
   -5.7665   -3.5201   -4.8971 C   0  0  0  0  0  0  0  0  0  0  0  0
   -5.5103   -3.1368   -3.5953 C   0  0  0  0  0  0  0  0  0  0  0  0
   -5.2608   -0.7376   -1.5816 C   0  0  0  0  0  0  0  0  0  0  0  0
   -4.6149    0.4776   -1.3267 C   0  0  0  0  0  0  0  0  0  0  0  0
   -3.2004    0.3019   -1.3692 C   0  0  0  0  0  0  0  0  0  0  0  0
   -2.1647    1.2088   -1.1412 C   0  0  0  0  0  0  0  0  0  0  0  0
   -0.8811    0.7240   -1.1842 C   0  0  0  0  0  0  0  0  0  0  0  0
    0.4347    1.4714   -0.9843 C   0  0  0  0  0  0  0  0  0  0  0  0
    0.7135    2.2600   -2.2575 C   0  0  0  0  0  0  0  0  0  0  0  0
   -0.1671    3.2526   -2.6741 C   0  0  0  0  0  0  0  0  0  0  0  0
    0.0734    3.9756   -3.8266 C   0  0  0  0  0  0  0  0  0  0  0  0
    1.1978    3.7305   -4.6038 C   0  0  0  0  0  0  0  0  0  0  0  0
    1.4385    4.4901   -5.8760 C   0  0  0  0  0  0  0  0  0  0  0  0
    0.7942    3.7666   -7.0601 C   0  0  0  0  0  0  0  0  0  0  0  0
    2.0665    2.7291   -4.1964 C   0  0  0  0  0  0  0  0  0  0  0  0
    1.8287    2.0030   -3.0435 C   0  0  0  0  0  0  0  0  0  0  0  0
    0.4364    2.3119    0.2792 C   0  0  0  0  0  0  0  0  0  0  0  0
    0.6420    3.6829    0.2892 C   0  0  0  0  0  0  0  0  0  0  0  0
    0.6687    4.3788    1.4851 C   0  0  0  0  0  0  0  0  0  0  0  0
    0.5060    3.7277    2.6986 C   0  0  0  0  0  0  0  0  0  0  0  0
    0.5137    4.4900    3.9912 C   0  0  0  0  0  0  0  0  0  0  0  0
   -0.9073    4.9021    4.3794 C   0  0  0  0  0  0  0  0  0  0  0  0
    0.2939    2.3545    2.6841 C   0  0  0  0  0  0  0  0  0  0  0  0
    0.2559    1.6572    1.4936 C   0  0  0  0  0  0  0  0  0  0  0  0
    1.3868    0.3099   -0.8421 C   0  0  0  0  0  0  0  0  0  0  0  0
    2.6963    0.0806   -0.4199 C   0  0  0  0  0  0  0  0  0  0  0  0
    3.7463    0.7985    0.1060 N   0  0  0  0  0  0  0  0  0  0  0  0
    4.7324   -0.1059    0.4341 C   0  0  0  0  0  0  0  0  0  0  0  0
    6.0022   -0.0535    1.0005 C   0  0  0  0  0  0  0  0  0  0  0  0
    3.7653    2.1497    0.4247 C   0  0  0  0  0  0  0  0  0  0  0  0
    3.8832    2.6777    1.6754 C   0  0  0  0  0  0  0  0  0  0  0  0
    3.8933    4.0827    1.6272 C   0  0  0  0  0  0  0  0  0  0  0  0
    3.9506    5.3398    2.8063 S   0  0  0  0  0  0  0  0  0  0  0  0
    3.8275    6.5566    1.5553 C   0  0  0  0  0  0  0  0  0  0  0  0
    3.7617    7.9952    1.9359 C   0  0  0  0  0  0  0  0  0  0  0  0
    2.3917    8.3492    2.5196 C   0  0  0  0  0  0  0  0  0  0  0  0
    3.7519    6.0162    0.3090 C   0  0  0  0  0  0  0  0  0  0  0  0
    3.7929    4.6082    0.3461 C   0  0  0  0  0  0  0  0  0  0  0  0
    3.7062    3.3611   -0.8437 S   0  0  0  0  0  0  0  0  0  0  0  0
   -5.6879    1.7657   -1.0070 S   0  0  0  0  0  0  0  0  0  0  0  0
   -7.0551    0.6747   -1.2103 C   0  0  0  0  0  0  0  0  0  0  0  0
   -6.6298   -0.6272   -1.5280 C   0  0  0  0  0  0  0  0  0  0  0  0
   -8.4069    0.9916   -1.0605 C   0  0  0  0  0  0  0  0  0  0  0  0
   -9.0217    2.1748   -0.7177 C   0  0  0  0  0  0  0  0  0  0  0  0
   -8.3456    3.4433   -0.4398 C   0  0  0  0  0  0  0  0  0  0  0  0
   -7.1523    3.6835   -0.4809 O   0  0  0  0  0  0  0  0  0  0  0  0
   -9.4131    4.4045   -0.0924 C   0  0  0  0  0  0  0  0  0  0  0  0
   -9.2951    5.7326    0.2591 C   0  0  0  0  0  0  0  0  0  0  0  0
  -10.4545    6.4405    0.5512 C   0  0  0  0  0  0  0  0  0  0  0  0
  -10.3525    8.0969    0.9946 Cl  0  0  0  0  0  0  0  0  0  0  0  0
  -11.7000    5.8089    0.4860 C   0  0  0  0  0  0  0  0  0  0  0  0
  -13.1262    6.6943    0.8518 Cl  0  0  0  0  0  0  0  0  0  0  0  0
  -11.8128    4.4687    0.1297 C   0  0  0  0  0  0  0  0  0  0  0  0
  -10.6596    3.7600   -0.1624 C   0  0  0  0  0  0  0  0  0  0  0  0
  -10.4476    2.3664   -0.5570 C   0  0  0  0  0  0  0  0  0  0  0  0
  -11.4448    1.4398   -0.7293 C   0  0  0  0  0  0  0  0  0  0  0  0
  -12.8171    1.7119   -0.5478 C   0  0  0  0  0  0  0  0  0  0  0  0
  -13.9483    1.8604   -0.4199 N   0  0  0  0  0  0  0  0  0  0  0  0
  -11.2693    0.0924   -1.1068 C   0  0  0  0  0  0  0  0  0  0  0  0
  -11.2235   -1.0150   -1.4102 N   0  0  0  0  0  0  0  0  0  0  0  0
    8.5771   -0.8875    1.6171 H   0  0  0  0  0  0  0  0  0  0  0  0
   11.6927   -5.0448    2.8738 H   0  0  0  0  0  0  0  0  0  0  0  0
    6.9372   -6.6966    3.4559 H   0  0  0  0  0  0  0  0  0  0  0  0
    9.1231   -9.3426    3.0906 H   0  0  0  0  0  0  0  0  0  0  0  0
    8.5718   -9.6784    5.4964 H   0  0  0  0  0  0  0  0  0  0  0  0
    8.7480   -7.3285    6.6288 H   0  0  0  0  0  0  0  0  0  0  0  0
   11.2499   -6.4703    6.3778 H   0  0  0  0  0  0  0  0  0  0  0  0
   12.6157   -8.2935    5.0936 H   0  0  0  0  0  0  0  0  0  0  0  0
   11.0387   -9.9548    6.4212 H   0  0  0  0  0  0  0  0  0  0  0  0
   11.0314  -10.4356    4.7058 H   0  0  0  0  0  0  0  0  0  0  0  0
   11.5617   -8.5277    2.8499 H   0  0  0  0  0  0  0  0  0  0  0  0
   -1.4598   -2.6017   -1.8225 H   0  0  0  0  0  0  0  0  0  0  0  0
   -3.3148   -4.3341   -2.2554 H   0  0  0  0  0  0  0  0  0  0  0  0
   -3.2490   -6.1939   -0.6613 H   0  0  0  0  0  0  0  0  0  0  0  0
   -3.3467   -6.9051    1.6880 H   0  0  0  0  0  0  0  0  0  0  0  0
   -4.1567   -5.9006    2.8985 H   0  0  0  0  0  0  0  0  0  0  0  0
   -6.3679   -6.4839    1.8986 H   0  0  0  0  0  0  0  0  0  0  0  0
   -5.4937   -7.9356    2.3988 H   0  0  0  0  0  0  0  0  0  0  0  0
   -5.5607   -7.4846    0.6917 H   0  0  0  0  0  0  0  0  0  0  0  0
   -5.1781   -3.7613    2.2612 H   0  0  0  0  0  0  0  0  0  0  0  0
   -5.2292   -1.8936    0.6792 H   0  0  0  0  0  0  0  0  0  0  0  0
   -2.8904   -1.0839   -4.1533 H   0  0  0  0  0  0  0  0  0  0  0  0
   -3.3478   -1.7721   -6.4569 H   0  0  0  0  0  0  0  0  0  0  0  0
   -6.3046   -3.7198   -7.4887 H   0  0  0  0  0  0  0  0  0  0  0  0
   -4.9795   -2.6921   -8.0538 H   0  0  0  0  0  0  0  0  0  0  0  0
   -4.6753   -5.5449   -6.9967 H   0  0  0  0  0  0  0  0  0  0  0  0
   -4.5960   -5.0630   -8.6947 H   0  0  0  0  0  0  0  0  0  0  0  0
   -3.3547   -4.5208   -7.5600 H   0  0  0  0  0  0  0  0  0  0  0  0
   -6.5810   -4.2000   -5.1023 H   0  0  0  0  0  0  0  0  0  0  0  0
   -6.1184   -3.5239   -2.7907 H   0  0  0  0  0  0  0  0  0  0  0  0
   -2.3916    2.2354   -0.9004 H   0  0  0  0  0  0  0  0  0  0  0  0
   -1.0484    3.4720   -2.0928 H   0  0  0  0  0  0  0  0  0  0  0  0
   -0.6241    4.7456   -4.1246 H   0  0  0  0  0  0  0  0  0  0  0  0
    2.5119    4.5839   -6.0528 H   0  0  0  0  0  0  0  0  0  0  0  0
    1.0158    5.4935   -5.7945 H   0  0  0  0  0  0  0  0  0  0  0  0
    1.2133    2.7686   -7.1667 H   0  0  0  0  0  0  0  0  0  0  0  0
   -0.2786    3.6720   -6.9072 H   0  0  0  0  0  0  0  0  0  0  0  0
    0.9671    4.3167   -7.9821 H   0  0  0  0  0  0  0  0  0  0  0  0
    2.9475    2.5140   -4.7839 H   0  0  0  0  0  0  0  0  0  0  0  0
    2.5302    1.2323   -2.7626 H   0  0  0  0  0  0  0  0  0  0  0  0
    0.7947    4.2189   -0.6353 H   0  0  0  0  0  0  0  0  0  0  0  0
    0.8320    5.4473    1.4707 H   0  0  0  0  0  0  0  0  0  0  0  0
    0.9386    3.8697    4.7827 H   0  0  0  0  0  0  0  0  0  0  0  0
    1.1332    5.3829    3.8895 H   0  0  0  0  0  0  0  0  0  0  0  0
   -1.3426    5.5330    3.6075 H   0  0  0  0  0  0  0  0  0  0  0  0
   -0.9008    5.4535    5.3167 H   0  0  0  0  0  0  0  0  0  0  0  0
   -1.5374    4.0235    4.4973 H   0  0  0  0  0  0  0  0  0  0  0  0
    0.1630    1.8246    3.6165 H   0  0  0  0  0  0  0  0  0  0  0  0
    0.0895    0.5889    1.5026 H   0  0  0  0  0  0  0  0  0  0  0  0
    6.5000    0.8411    1.3268 H   0  0  0  0  0  0  0  0  0  0  0  0
    3.9357    2.0846    2.5695 H   0  0  0  0  0  0  0  0  0  0  0  0
    3.9525    8.6041    1.0501 H   0  0  0  0  0  0  0  0  0  0  0  0
    4.5330    8.2144    2.6776 H   0  0  0  0  0  0  0  0  0  0  0  0
    1.6072    8.1504    1.7928 H   0  0  0  0  0  0  0  0  0  0  0  0
    2.3571    9.4019    2.7877 H   0  0  0  0  0  0  0  0  0  0  0  0
    2.1983    7.7579    3.4119 H   0  0  0  0  0  0  0  0  0  0  0  0
    3.6720    6.5944   -0.5931 H   0  0  0  0  0  0  0  0  0  0  0  0
   -7.3292   -1.4280   -1.6892 H   0  0  0  0  0  0  0  0  0  0  0  0
   -9.0586    0.1439   -1.2346 H   0  0  0  0  0  0  0  0  0  0  0  0
   -8.3271    6.2059    0.3061 H   0  0  0  0  0  0  0  0  0  0  0  0
  -12.7908    4.0181    0.0915 H   0  0  0  0  0  0  0  0  0  0  0  0
  1  2  2  0  0  0  0
  2  3  1  0  0  0  0
  3  4  2  0  0  0  0
  3  5  1  0  0  0  0
  5  6  2  0  0  0  0
  6  7  1  0  0  0  0
  7  8  2  0  0  0  0
  8  9  1  0  0  0  0
  9 10  2  0  0  0  0
 10 11  1  0  0  0  0
 11 12  2  0  0  0  0
 12 13  1  0  0  0  0
 13 14  3  0  0  0  0
 12 15  1  0  0  0  0
 15 16  3  0  0  0  0
  8 17  1  0  0  0  0
 17 18  1  0  0  0  0
 18 19  1  0  0  0  0
 19 20  2  0  0  0  0
 20 21  1  0  0  0  0
 21 22  1  0  0  0  0
 21 23  1  0  0  0  0
  1 24  1  0  0  0  0
 24 25  1  0  0  0  0
 25 26  1  0  0  0  0
 26 27  1  0  0  0  0
 27 28  1  0  0  0  0
 28 29  1  0  0  0  0
 29 30  1  0  0  0  0
 30 31  2  0  0  0  0
 31 32  1  0  0  0  0
 32 33  1  0  0  0  0
 33 34  1  0  0  0  0
 34 35  2  0  0  0  0
 35 36  1  0  0  0  0
 36 37  2  0  0  0  0
 37 38  1  0  0  0  0
 38 39  1  0  0  0  0
 37 40  1  0  0  0  0
 40 41  2  0  0  0  0
 33 42  1  0  0  0  0
 42 43  2  0  0  0  0
 43 44  1  0  0  0  0
 44 45  2  0  0  0  0
 45 46  1  0  0  0  0
 46 47  1  0  0  0  0
 45 48  1  0  0  0  0
 48 49  2  0  0  0  0
 33 50  1  0  0  0  0
 50 51  2  0  0  0  0
 51 52  1  0  0  0  0
 52 53  1  0  0  0  0
 53 54  2  0  0  0  0
 54 55  1  0  0  0  0
 55 56  1  0  0  0  0
 56 57  2  0  0  0  0
 57 58  1  0  0  0  0
 58 59  2  0  0  0  0
 59 60  1  0  0  0  0
 60 61  1  0  0  0  0
 59 62  1  0  0  0  0
 62 63  2  0  0  0  0
 55 64  1  0  0  0  0
 64 65  2  0  0  0  0
 65 66  1  0  0  0  0
 66 67  2  0  0  0  0
 67 68  1  0  0  0  0
 68 69  1  0  0  0  0
 67 70  1  0  0  0  0
 70 71  2  0  0  0  0
 55 72  1  0  0  0  0
 72 73  1  0  0  0  0
 73 74  1  0  0  0  0
 74 75  1  0  0  0  0
 75 76  1  0  0  0  0
 74 77  1  0  0  0  0
 77 78  2  0  0  0  0
 78 79  1  0  0  0  0
 79 80  1  0  0  0  0
 80 81  1  0  0  0  0
 81 82  1  0  0  0  0
 82 83  1  0  0  0  0
 81 84  2  0  0  0  0
 84 85  1  0  0  0  0
 85 86  1  0  0  0  0
 51 87  1  0  0  0  0
 87 88  1  0  0  0  0
 88 89  2  0  0  0  0
 88 90  1  0  0  0  0
 90 91  2  0  0  0  0
 91 92  1  0  0  0  0
 92 93  2  0  0  0  0
 92 94  1  0  0  0  0
 94 95  2  0  0  0  0
 95 96  1  0  0  0  0
 96 97  1  0  0  0  0
 96 98  2  0  0  0  0
 98 99  1  0  0  0  0
 98100  1  0  0  0  0
100101  2  0  0  0  0
101102  1  0  0  0  0
102103  2  0  0  0  0
103104  1  0  0  0  0
104105  3  0  0  0  0
103106  1  0  0  0  0
106107  3  0  0  0  0
 11  2  1  0  0  0  0
 23 17  1  0  0  0  0
 76 24  2  0  0  0  0
 86 77  1  0  0  0  0
102 91  1  0  0  0  0
 10  5  1  0  0  0  0
 22 18  1  0  0  0  0
 75 26  2  0  0  0  0
 85 79  2  0  0  0  0
101 94  1  0  0  0  0
 23  7  1  0  0  0  0
 73 27  2  0  0  0  0
 72 29  2  0  0  0  0
 54 30  1  0  0  0  0
 63 56  1  0  0  0  0
 71 64  1  0  0  0  0
 52 32  2  0  0  0  0
 41 34  1  0  0  0  0
 49 42  1  0  0  0  0
 89 50  1  0  0  0  0
  1108  1  0  0  0  0
  6109  1  0  0  0  0
  9110  1  0  0  0  0
 17111  1  0  0  0  0
 18112  1  0  0  0  0
 19113  1  0  0  0  0
 20114  1  0  0  0  0
 21115  1  0  0  0  0
 22116  1  0  0  0  0
 22117  1  0  0  0  0
 23118  1  0  0  0  0
 31119  1  0  0  0  0
 35120  1  0  0  0  0
 36121  1  0  0  0  0
 38122  1  0  0  0  0
 38123  1  0  0  0  0
 39124  1  0  0  0  0
 39125  1  0  0  0  0
 39126  1  0  0  0  0
 40127  1  0  0  0  0
 41128  1  0  0  0  0
 43129  1  0  0  0  0
 44130  1  0  0  0  0
 46131  1  0  0  0  0
 46132  1  0  0  0  0
 47133  1  0  0  0  0
 47134  1  0  0  0  0
 47135  1  0  0  0  0
 48136  1  0  0  0  0
 49137  1  0  0  0  0
 53138  1  0  0  0  0
 57139  1  0  0  0  0
 58140  1  0  0  0  0
 60141  1  0  0  0  0
 60142  1  0  0  0  0
 61143  1  0  0  0  0
 61144  1  0  0  0  0
 61145  1  0  0  0  0
 62146  1  0  0  0  0
 63147  1  0  0  0  0
 65148  1  0  0  0  0
 66149  1  0  0  0  0
 68150  1  0  0  0  0
 68151  1  0  0  0  0
 69152  1  0  0  0  0
 69153  1  0  0  0  0
 69154  1  0  0  0  0
 70155  1  0  0  0  0
 71156  1  0  0  0  0
 76157  1  0  0  0  0
 78158  1  0  0  0  0
 82159  1  0  0  0  0
 82160  1  0  0  0  0
 83161  1  0  0  0  0
 83162  1  0  0  0  0
 83163  1  0  0  0  0
 84164  1  0  0  0  0
 89165  1  0  0  0  0
 90166  1  0  0  0  0
 95167  1  0  0  0  0
100168  1  0  0  0  0
M  END
