
  xtb     02112207513D
 energy: -192.621384999765 gnorm: 0.000196199324 xtb: 6.4.1 (unknown)
115129  0     0  0            999 V2000
   -3.9350    5.0805    1.5326 C   0  0  0  0  0  0  0  0  0  0  0  0
   -3.6500    6.2991    0.9891 C   0  0  0  0  0  0  0  0  0  0  0  0
   -2.3259    6.6626    0.4283 C   0  0  0  0  0  0  0  0  0  0  0  0
   -1.2593    6.1164    0.6144 O   0  0  0  0  0  0  0  0  0  0  0  0
   -2.5956    7.7674   -0.5134 C   0  0  0  0  0  0  0  0  0  0  0  0
   -1.6814    8.3607   -1.3813 C   0  0  0  0  0  0  0  0  0  0  0  0
   -2.2265    9.3267   -2.1924 C   0  0  0  0  0  0  0  0  0  0  0  0
   -3.5813    9.6827   -2.1443 C   0  0  0  0  0  0  0  0  0  0  0  0
   -4.4923    9.1137   -1.2863 C   0  0  0  0  0  0  0  0  0  0  0  0
   -3.9586    8.1226   -0.4570 C   0  0  0  0  0  0  0  0  0  0  0  0
   -4.6161    7.2753    0.5311 C   0  0  0  0  0  0  0  0  0  0  0  0
   -5.8927    7.4116    1.0092 C   0  0  0  0  0  0  0  0  0  0  0  0
   -6.8080    8.3883    0.5691 C   0  0  0  0  0  0  0  0  0  0  0  0
   -7.5954    9.1583    0.2441 N   0  0  0  0  0  0  0  0  0  0  0  0
   -6.4241    6.6129    2.0439 C   0  0  0  0  0  0  0  0  0  0  0  0
   -6.8993    6.0103    2.8979 N   0  0  0  0  0  0  0  0  0  0  0  0
   -3.4395   10.6860   -3.2619 C   0  0  0  0  0  0  0  0  0  0  0  0
   -3.9553   10.2439   -4.6481 C   0  0  0  0  0  0  0  0  0  0  0  0
   -3.2667   11.1864   -5.6087 C   0  0  0  0  0  0  0  0  0  0  0  0
   -1.9835   10.8513   -5.6526 C   0  0  0  0  0  0  0  0  0  0  0  0
   -1.7835    9.6768   -4.7223 C   0  0  0  0  0  0  0  0  0  0  0  0
   -3.1348    8.9712   -4.8950 C   0  0  0  0  0  0  0  0  0  0  0  0
   -1.9288   10.2911   -3.3134 C   0  0  0  0  0  0  0  0  0  0  0  0
   -2.9696    4.1466    1.9808 C   0  0  0  0  0  0  0  0  0  0  0  0
   -1.8073    4.3268    2.7123 C   0  0  0  0  0  0  0  0  0  0  0  0
   -1.4168    5.5945    3.3949 C   0  0  0  0  0  0  0  0  0  0  0  0
   -1.3099    5.4042    4.9078 C   0  0  0  0  0  0  0  0  0  0  0  0
   -1.0963    3.1226    2.8335 C   0  0  0  0  0  0  0  0  0  0  0  0
   -1.6963    2.0324    2.1900 C   0  0  0  0  0  0  0  0  0  0  0  0
   -3.2199    2.4634    1.5102 S   0  0  0  0  0  0  0  0  0  0  0  0
   -0.8846    0.8953    2.2231 C   0  0  0  0  0  0  0  0  0  0  0  0
    0.3052    1.1190    2.9214 C   0  0  0  0  0  0  0  0  0  0  0  0
    0.4521    2.7241    3.5435 S   0  0  0  0  0  0  0  0  0  0  0  0
    1.0473   -0.0712    2.8612 C   0  0  0  0  0  0  0  0  0  0  0  0
    2.2796   -0.4026    3.4810 C   0  0  0  0  0  0  0  0  0  0  0  0
    2.9201    0.4803    4.2567 N   0  0  0  0  0  0  0  0  0  0  0  0
    4.0367    0.0942    4.8373 C   0  0  0  0  0  0  0  0  0  0  0  0
    4.7341    1.0954    5.6980 C   0  0  0  0  0  0  0  0  0  0  0  0
    4.5461   -1.2155    4.6540 C   0  0  0  0  0  0  0  0  0  0  0  0
    5.8018   -1.6711    5.3209 C   0  0  0  0  0  0  0  0  0  0  0  0
    3.9301   -2.0861    3.8820 N   0  0  0  0  0  0  0  0  0  0  0  0
    2.7983   -1.7001    3.2813 C   0  0  0  0  0  0  0  0  0  0  0  0
    2.1179   -2.5603    2.3809 C   0  0  0  0  0  0  0  0  0  0  0  0
    2.5142   -3.8014    1.8620 C   0  0  0  0  0  0  0  0  0  0  0  0
    3.8201   -4.9249    2.0149 S   0  0  0  0  0  0  0  0  0  0  0  0
    3.1141   -5.8752    0.7199 C   0  0  0  0  0  0  0  0  0  0  0  0
    3.5324   -7.0283    0.0650 C   0  0  0  0  0  0  0  0  0  0  0  0
    4.7579   -7.7875    0.4573 C   0  0  0  0  0  0  0  0  0  0  0  0
    4.4011   -8.9456    1.3928 C   0  0  0  0  0  0  0  0  0  0  0  0
    2.6461   -7.3862   -0.9595 C   0  0  0  0  0  0  0  0  0  0  0  0
    1.2850   -6.2699   -1.0840 S   0  0  0  0  0  0  0  0  0  0  0  0
    1.9151   -5.3394    0.2215 C   0  0  0  0  0  0  0  0  0  0  0  0
    1.5749   -4.1589    0.8897 C   0  0  0  0  0  0  0  0  0  0  0  0
    0.5875   -3.2130    0.8228 N   0  0  0  0  0  0  0  0  0  0  0  0
   -0.3343   -3.2155   -0.2898 C   0  0  0  0  0  0  0  0  0  0  0  0
    0.0049   -2.1223   -1.3001 C   0  0  0  0  0  0  0  0  0  0  0  0
    0.9019   -2.2130    1.7245 C   0  0  0  0  0  0  0  0  0  0  0  0
    0.2972   -0.9793    2.0626 C   0  0  0  0  0  0  0  0  0  0  0  0
   -0.8970   -0.3727    1.7054 N   0  0  0  0  0  0  0  0  0  0  0  0
   -2.1467   -0.9616    1.2777 C   0  0  0  0  0  0  0  0  0  0  0  0
   -2.6086   -2.0538    2.2390 C   0  0  0  0  0  0  0  0  0  0  0  0
    2.8197   -8.4821   -1.8148 C   0  0  0  0  0  0  0  0  0  0  0  0
    2.0654   -8.9065   -2.8736 C   0  0  0  0  0  0  0  0  0  0  0  0
    0.8415   -8.3436   -3.4312 C   0  0  0  0  0  0  0  0  0  0  0  0
    0.2096   -7.3785   -3.0349 O   0  0  0  0  0  0  0  0  0  0  0  0
    0.5030   -9.1845   -4.6056 C   0  0  0  0  0  0  0  0  0  0  0  0
   -0.5507   -9.0684   -5.4916 C   0  0  0  0  0  0  0  0  0  0  0  0
   -0.6403   -9.9911   -6.5266 C   0  0  0  0  0  0  0  0  0  0  0  0
    0.3011  -11.0006   -6.6668 C   0  0  0  0  0  0  0  0  0  0  0  0
    1.3616  -11.1194   -5.7763 C   0  0  0  0  0  0  0  0  0  0  0  0
    1.4534  -10.2035   -4.7464 C   0  0  0  0  0  0  0  0  0  0  0  0
    2.4670  -10.0821   -3.6682 C   0  0  0  0  0  0  0  0  0  0  0  0
    3.4294  -10.7958   -3.4787 O   0  0  0  0  0  0  0  0  0  0  0  0
   -4.9623    4.7326    1.5210 H   0  0  0  0  0  0  0  0  0  0  0  0
   -0.6468    8.0551   -1.3894 H   0  0  0  0  0  0  0  0  0  0  0  0
   -5.5336    9.3897   -1.2615 H   0  0  0  0  0  0  0  0  0  0  0  0
   -3.7027   11.7131   -3.0173 H   0  0  0  0  0  0  0  0  0  0  0  0
   -5.0362   10.1670   -4.7281 H   0  0  0  0  0  0  0  0  0  0  0  0
   -3.7567   12.0070   -6.0989 H   0  0  0  0  0  0  0  0  0  0  0  0
   -1.1874   11.3360   -6.1867 H   0  0  0  0  0  0  0  0  0  0  0  0
   -0.8856    9.0827   -4.8699 H   0  0  0  0  0  0  0  0  0  0  0  0
   -3.2705    8.5836   -5.9035 H   0  0  0  0  0  0  0  0  0  0  0  0
   -3.3171    8.1773   -4.1730 H   0  0  0  0  0  0  0  0  0  0  0  0
   -1.1827   11.0548   -3.1023 H   0  0  0  0  0  0  0  0  0  0  0  0
   -0.4544    5.9204    2.9937 H   0  0  0  0  0  0  0  0  0  0  0  0
   -2.1536    6.3682    3.1770 H   0  0  0  0  0  0  0  0  0  0  0  0
   -1.0498    6.3486    5.3789 H   0  0  0  0  0  0  0  0  0  0  0  0
   -2.2608    5.0661    5.3146 H   0  0  0  0  0  0  0  0  0  0  0  0
   -0.5448    4.6734    5.1552 H   0  0  0  0  0  0  0  0  0  0  0  0
    5.7418    1.2790    5.3282 H   0  0  0  0  0  0  0  0  0  0  0  0
    4.1718    2.0247    5.6897 H   0  0  0  0  0  0  0  0  0  0  0  0
    4.8124    0.7294    6.7207 H   0  0  0  0  0  0  0  0  0  0  0  0
    6.6414   -1.0463    5.0197 H   0  0  0  0  0  0  0  0  0  0  0  0
    6.0000   -2.7014    5.0399 H   0  0  0  0  0  0  0  0  0  0  0  0
    5.7037   -1.6038    6.4035 H   0  0  0  0  0  0  0  0  0  0  0  0
    5.2704   -8.1726   -0.4255 H   0  0  0  0  0  0  0  0  0  0  0  0
    5.4328   -7.1031    0.9754 H   0  0  0  0  0  0  0  0  0  0  0  0
    3.9089   -8.5686    2.2862 H   0  0  0  0  0  0  0  0  0  0  0  0
    3.7321   -9.6463    0.8987 H   0  0  0  0  0  0  0  0  0  0  0  0
    5.3021   -9.4755    1.6903 H   0  0  0  0  0  0  0  0  0  0  0  0
   -0.2398   -4.1914   -0.7721 H   0  0  0  0  0  0  0  0  0  0  0  0
   -1.3610   -3.1301    0.0666 H   0  0  0  0  0  0  0  0  0  0  0  0
   -0.7117   -2.1378   -2.1167 H   0  0  0  0  0  0  0  0  0  0  0  0
    0.9977   -2.2934   -1.7093 H   0  0  0  0  0  0  0  0  0  0  0  0
   -0.0067   -1.1381   -0.8370 H   0  0  0  0  0  0  0  0  0  0  0  0
   -2.8828   -0.1537    1.2693 H   0  0  0  0  0  0  0  0  0  0  0  0
   -2.0695   -1.3345    0.2557 H   0  0  0  0  0  0  0  0  0  0  0  0
   -1.8676   -2.8457    2.3205 H   0  0  0  0  0  0  0  0  0  0  0  0
   -3.5447   -2.4819    1.8909 H   0  0  0  0  0  0  0  0  0  0  0  0
   -2.7664   -1.6344    3.2300 H   0  0  0  0  0  0  0  0  0  0  0  0
    3.6995   -9.0897   -1.6247 H   0  0  0  0  0  0  0  0  0  0  0  0
   -1.2779   -8.2792   -5.3755 H   0  0  0  0  0  0  0  0  0  0  0  0
   -1.4541   -9.9216   -7.2335 H   0  0  0  0  0  0  0  0  0  0  0  0
    0.2079  -11.7039   -7.4812 H   0  0  0  0  0  0  0  0  0  0  0  0
    2.0984  -11.9012   -5.8792 H   0  0  0  0  0  0  0  0  0  0  0  0
  1  2  2  0  0  0  0
  2  3  1  0  0  0  0
  3  4  2  0  0  0  0
  3  5  1  0  0  0  0
  5  6  2  0  0  0  0
  6  7  1  0  0  0  0
  7  8  2  0  0  0  0
  8  9  1  0  0  0  0
  9 10  2  0  0  0  0
 10 11  1  0  0  0  0
 11 12  2  0  0  0  0
 12 13  1  0  0  0  0
 13 14  3  0  0  0  0
 12 15  1  0  0  0  0
 15 16  3  0  0  0  0
  8 17  1  0  0  0  0
 17 18  1  0  0  0  0
 18 19  1  0  0  0  0
 19 20  2  0  0  0  0
 20 21  1  0  0  0  0
 21 22  1  0  0  0  0
 21 23  1  0  0  0  0
  1 24  1  0  0  0  0
 24 25  2  0  0  0  0
 25 26  1  0  0  0  0
 26 27  1  0  0  0  0
 25 28  1  0  0  0  0
 28 29  2  0  0  0  0
 29 30  1  0  0  0  0
 29 31  1  0  0  0  0
 31 32  2  0  0  0  0
 32 33  1  0  0  0  0
 32 34  1  0  0  0  0
 34 35  2  0  0  0  0
 35 36  1  0  0  0  0
 36 37  2  0  0  0  0
 37 38  1  0  0  0  0
 37 39  1  0  0  0  0
 39 40  1  0  0  0  0
 39 41  2  0  0  0  0
 41 42  1  0  0  0  0
 42 43  2  0  0  0  0
 43 44  1  0  0  0  0
 44 45  1  0  0  0  0
 45 46  1  0  0  0  0
 46 47  1  0  0  0  0
 47 48  1  0  0  0  0
 48 49  1  0  0  0  0
 47 50  2  0  0  0  0
 50 51  1  0  0  0  0
 51 52  1  0  0  0  0
 52 53  1  0  0  0  0
 53 54  1  0  0  0  0
 54 55  1  0  0  0  0
 55 56  1  0  0  0  0
 54 57  1  0  0  0  0
 57 58  2  0  0  0  0
 58 59  1  0  0  0  0
 59 60  1  0  0  0  0
 60 61  1  0  0  0  0
 50 62  1  0  0  0  0
 62 63  2  0  0  0  0
 63 64  1  0  0  0  0
 64 65  2  0  0  0  0
 64 66  1  0  0  0  0
 66 67  2  0  0  0  0
 67 68  1  0  0  0  0
 68 69  2  0  0  0  0
 69 70  1  0  0  0  0
 70 71  2  0  0  0  0
 71 72  1  0  0  0  0
 72 73  2  0  0  0  0
 11  2  1  0  0  0  0
 23 17  1  0  0  0  0
 30 24  1  0  0  0  0
 59 31  1  0  0  0  0
 72 63  1  0  0  0  0
 10  5  1  0  0  0  0
 22 18  1  0  0  0  0
 33 28  1  0  0  0  0
 58 34  1  0  0  0  0
 71 66  1  0  0  0  0
 23  7  1  0  0  0  0
 42 35  1  0  0  0  0
 57 43  1  0  0  0  0
 53 44  2  0  0  0  0
 52 46  2  0  0  0  0
  1 74  1  0  0  0  0
  6 75  1  0  0  0  0
  9 76  1  0  0  0  0
 17 77  1  0  0  0  0
 18 78  1  0  0  0  0
 19 79  1  0  0  0  0
 20 80  1  0  0  0  0
 21 81  1  0  0  0  0
 22 82  1  0  0  0  0
 22 83  1  0  0  0  0
 23 84  1  0  0  0  0
 26 85  1  0  0  0  0
 26 86  1  0  0  0  0
 27 87  1  0  0  0  0
 27 88  1  0  0  0  0
 27 89  1  0  0  0  0
 38 90  1  0  0  0  0
 38 91  1  0  0  0  0
 38 92  1  0  0  0  0
 40 93  1  0  0  0  0
 40 94  1  0  0  0  0
 40 95  1  0  0  0  0
 48 96  1  0  0  0  0
 48 97  1  0  0  0  0
 49 98  1  0  0  0  0
 49 99  1  0  0  0  0
 49100  1  0  0  0  0
 55101  1  0  0  0  0
 55102  1  0  0  0  0
 56103  1  0  0  0  0
 56104  1  0  0  0  0
 56105  1  0  0  0  0
 60106  1  0  0  0  0
 60107  1  0  0  0  0
 61108  1  0  0  0  0
 61109  1  0  0  0  0
 61110  1  0  0  0  0
 62111  1  0  0  0  0
 67112  1  0  0  0  0
 68113  1  0  0  0  0
 69114  1  0  0  0  0
 70115  1  0  0  0  0
M  END
