
  xtb     02032200523D
 energy: -198.673992791739 gnorm: 0.000348271689 xtb: 6.4.1 (unknown)
116130  0     0  0            999 V2000
    2.8687    5.0756    0.3934 C   0  0  0  0  0  0  0  0  0  0  0  0
    3.5419    5.7765    1.3565 C   0  0  0  0  0  0  0  0  0  0  0  0
    3.7095    5.3422    2.7615 C   0  0  0  0  0  0  0  0  0  0  0  0
    3.3517    4.2960    3.2640 O   0  0  0  0  0  0  0  0  0  0  0  0
    4.2922    6.4982    3.4697 C   0  0  0  0  0  0  0  0  0  0  0  0
    4.6398    6.5599    4.8174 C   0  0  0  0  0  0  0  0  0  0  0  0
    5.1699    7.7674    5.2036 C   0  0  0  0  0  0  0  0  0  0  0  0
    5.3253    8.8432    4.3192 C   0  0  0  0  0  0  0  0  0  0  0  0
    4.9756    8.8002    2.9908 C   0  0  0  0  0  0  0  0  0  0  0  0
    4.4486    7.5738    2.5730 C   0  0  0  0  0  0  0  0  0  0  0  0
    3.9968    7.1476    1.2516 C   0  0  0  0  0  0  0  0  0  0  0  0
    4.0745    7.8868    0.0989 C   0  0  0  0  0  0  0  0  0  0  0  0
    3.7320    7.4158   -1.1858 C   0  0  0  0  0  0  0  0  0  0  0  0
    3.5000    7.0997   -2.2656 N   0  0  0  0  0  0  0  0  0  0  0  0
    4.5355    9.2174    0.0313 C   0  0  0  0  0  0  0  0  0  0  0  0
    4.8920   10.3019   -0.0941 N   0  0  0  0  0  0  0  0  0  0  0  0
    5.9211    9.7341    5.3808 C   0  0  0  0  0  0  0  0  0  0  0  0
    7.4516    9.9271    5.3356 C   0  0  0  0  0  0  0  0  0  0  0  0
    7.7958   10.4185    6.7230 C   0  0  0  0  0  0  0  0  0  0  0  0
    7.6527    9.3984    7.5594 C   0  0  0  0  0  0  0  0  0  0  0  0
    7.2092    8.2003    6.7512 C   0  0  0  0  0  0  0  0  0  0  0  0
    7.9505    8.4798    5.4374 C   0  0  0  0  0  0  0  0  0  0  0  0
    5.7518    8.5331    6.3659 C   0  0  0  0  0  0  0  0  0  0  0  0
    2.5833    3.6945    0.3884 C   0  0  0  0  0  0  0  0  0  0  0  0
    3.3085    2.6049    0.8629 C   0  0  0  0  0  0  0  0  0  0  0  0
    4.6847    2.6917    1.4305 C   0  0  0  0  0  0  0  0  0  0  0  0
    5.6429    1.6672    0.8277 C   0  0  0  0  0  0  0  0  0  0  0  0
    2.6272    1.4042    0.6143 C   0  0  0  0  0  0  0  0  0  0  0  0
    1.4129    1.5583   -0.0715 C   0  0  0  0  0  0  0  0  0  0  0  0
    1.1036    3.2095   -0.4443 S   0  0  0  0  0  0  0  0  0  0  0  0
    0.7622    0.3389   -0.2716 C   0  0  0  0  0  0  0  0  0  0  0  0
    1.4806   -0.7345    0.2686 C   0  0  0  0  0  0  0  0  0  0  0  0
    2.9617   -0.2659    1.0195 S   0  0  0  0  0  0  0  0  0  0  0  0
    0.7614   -1.9077   -0.0192 C   0  0  0  0  0  0  0  0  0  0  0  0
    1.0859   -3.2768    0.1710 C   0  0  0  0  0  0  0  0  0  0  0  0
    2.2061   -3.6354    0.8096 N   0  0  0  0  0  0  0  0  0  0  0  0
    2.4889   -4.9179    0.8934 C   0  0  0  0  0  0  0  0  0  0  0  0
    3.7380   -5.2906    1.6205 C   0  0  0  0  0  0  0  0  0  0  0  0
    1.6423   -5.8960    0.3132 C   0  0  0  0  0  0  0  0  0  0  0  0
    1.9633   -7.3522    0.3796 C   0  0  0  0  0  0  0  0  0  0  0  0
    0.5309   -5.5561   -0.3043 N   0  0  0  0  0  0  0  0  0  0  0  0
    0.2234   -4.2556   -0.3792 C   0  0  0  0  0  0  0  0  0  0  0  0
   -0.9974   -3.8273   -0.9641 C   0  0  0  0  0  0  0  0  0  0  0  0
   -2.0844   -4.5508   -1.4849 C   0  0  0  0  0  0  0  0  0  0  0  0
   -2.5153   -6.1859   -1.8292 S   0  0  0  0  0  0  0  0  0  0  0  0
   -4.0701   -5.6394   -2.4184 C   0  0  0  0  0  0  0  0  0  0  0  0
   -5.1550   -6.3037   -3.0061 C   0  0  0  0  0  0  0  0  0  0  0  0
   -5.2895   -7.7870   -3.0813 C   0  0  0  0  0  0  0  0  0  0  0  0
   -4.9936   -8.4661   -1.7451 C   0  0  0  0  0  0  0  0  0  0  0  0
   -6.1439   -5.4008   -3.3865 C   0  0  0  0  0  0  0  0  0  0  0  0
   -5.7570   -3.7407   -2.9216 S   0  0  0  0  0  0  0  0  0  0  0  0
   -4.2249   -4.2474   -2.3235 C   0  0  0  0  0  0  0  0  0  0  0  0
   -3.0918   -3.6277   -1.7938 C   0  0  0  0  0  0  0  0  0  0  0  0
   -2.6676   -2.3522   -1.5046 N   0  0  0  0  0  0  0  0  0  0  0  0
   -3.6226   -1.3161   -1.1645 C   0  0  0  0  0  0  0  0  0  0  0  0
   -4.5315   -1.7526   -0.0158 C   0  0  0  0  0  0  0  0  0  0  0  0
   -1.3730   -2.4606   -1.0297 C   0  0  0  0  0  0  0  0  0  0  0  0
   -0.4132   -1.4886   -0.6953 C   0  0  0  0  0  0  0  0  0  0  0  0
   -0.3911   -0.1157   -0.8664 N   0  0  0  0  0  0  0  0  0  0  0  0
   -0.9865    0.6248   -1.9613 C   0  0  0  0  0  0  0  0  0  0  0  0
    0.0117    0.8300   -3.1005 C   0  0  0  0  0  0  0  0  0  0  0  0
   -7.3842   -5.5984   -4.0251 C   0  0  0  0  0  0  0  0  0  0  0  0
   -7.6674   -6.5126   -5.0054 C   0  0  0  0  0  0  0  0  0  0  0  0
   -6.6462   -7.1622   -5.8698 C   0  0  0  0  0  0  0  0  0  0  0  0
   -5.4396   -7.0884   -5.7750 O   0  0  0  0  0  0  0  0  0  0  0  0
   -7.4202   -7.8160   -6.9365 C   0  0  0  0  0  0  0  0  0  0  0  0
   -7.1610   -8.5553   -8.0435 C   0  0  0  0  0  0  0  0  0  0  0  0
   -8.6262   -8.9827   -8.8502 S   0  0  0  0  0  0  0  0  0  0  0  0
   -9.5955   -8.1532   -7.6888 C   0  0  0  0  0  0  0  0  0  0  0  0
   -8.8178   -7.5807   -6.7303 C   0  0  0  0  0  0  0  0  0  0  0  0
   -8.9906   -6.7879   -5.5303 C   0  0  0  0  0  0  0  0  0  0  0  0
  -10.1999   -6.4430   -4.9829 C   0  0  0  0  0  0  0  0  0  0  0  0
  -11.4120   -6.7971   -5.6083 C   0  0  0  0  0  0  0  0  0  0  0  0
  -12.4044   -7.0748   -6.1138 N   0  0  0  0  0  0  0  0  0  0  0  0
  -10.3731   -5.7499   -3.7700 C   0  0  0  0  0  0  0  0  0  0  0  0
  -10.5750   -5.2036   -2.7799 N   0  0  0  0  0  0  0  0  0  0  0  0
    2.4579    5.6273   -0.4446 H   0  0  0  0  0  0  0  0  0  0  0  0
    4.4945    5.7101    5.4658 H   0  0  0  0  0  0  0  0  0  0  0  0
    5.0915    9.6393    2.3255 H   0  0  0  0  0  0  0  0  0  0  0  0
    5.3810   10.6564    5.5858 H   0  0  0  0  0  0  0  0  0  0  0  0
    7.8104   10.5237    4.5014 H   0  0  0  0  0  0  0  0  0  0  0  0
    8.0456   11.4375    6.9538 H   0  0  0  0  0  0  0  0  0  0  0  0
    7.7590    9.3949    8.6284 H   0  0  0  0  0  0  0  0  0  0  0  0
    7.3483    7.2238    7.2074 H   0  0  0  0  0  0  0  0  0  0  0  0
    9.0315    8.4246    5.5551 H   0  0  0  0  0  0  0  0  0  0  0  0
    7.6417    7.8445    4.6093 H   0  0  0  0  0  0  0  0  0  0  0  0
    5.1006    8.6545    7.2296 H   0  0  0  0  0  0  0  0  0  0  0  0
    4.6223    2.5496    2.5135 H   0  0  0  0  0  0  0  0  0  0  0  0
    5.0754    3.6965    1.2560 H   0  0  0  0  0  0  0  0  0  0  0  0
    5.6522    1.7468   -0.2573 H   0  0  0  0  0  0  0  0  0  0  0  0
    5.3623    0.6541    1.1000 H   0  0  0  0  0  0  0  0  0  0  0  0
    6.6492    1.8528    1.1950 H   0  0  0  0  0  0  0  0  0  0  0  0
    4.2217   -4.3882    1.9831 H   0  0  0  0  0  0  0  0  0  0  0  0
    4.4188   -5.8249    0.9593 H   0  0  0  0  0  0  0  0  0  0  0  0
    3.5077   -5.9412    2.4629 H   0  0  0  0  0  0  0  0  0  0  0  0
    2.9237   -7.5520   -0.0934 H   0  0  0  0  0  0  0  0  0  0  0  0
    1.1856   -7.9123   -0.1314 H   0  0  0  0  0  0  0  0  0  0  0  0
    2.0240   -7.6814    1.4160 H   0  0  0  0  0  0  0  0  0  0  0  0
   -4.6033   -8.1590   -3.8473 H   0  0  0  0  0  0  0  0  0  0  0  0
   -6.3036   -8.0390   -3.3959 H   0  0  0  0  0  0  0  0  0  0  0  0
   -5.1824   -9.5332   -1.8302 H   0  0  0  0  0  0  0  0  0  0  0  0
   -5.6362   -8.0636   -0.9648 H   0  0  0  0  0  0  0  0  0  0  0  0
   -3.9578   -8.3244   -1.4510 H   0  0  0  0  0  0  0  0  0  0  0  0
   -3.0811   -0.4253   -0.8512 H   0  0  0  0  0  0  0  0  0  0  0  0
   -4.2259   -1.0889   -2.0494 H   0  0  0  0  0  0  0  0  0  0  0  0
   -5.1406   -2.6058   -0.3000 H   0  0  0  0  0  0  0  0  0  0  0  0
   -3.9347   -2.0216    0.8532 H   0  0  0  0  0  0  0  0  0  0  0  0
   -5.1924   -0.9337    0.2538 H   0  0  0  0  0  0  0  0  0  0  0  0
   -1.8373    0.0684   -2.3487 H   0  0  0  0  0  0  0  0  0  0  0  0
   -1.3237    1.5947   -1.5825 H   0  0  0  0  0  0  0  0  0  0  0  0
    0.3810   -0.1308   -3.4529 H   0  0  0  0  0  0  0  0  0  0  0  0
   -0.4789    1.3399   -3.9247 H   0  0  0  0  0  0  0  0  0  0  0  0
    0.8560    1.4324   -2.7780 H   0  0  0  0  0  0  0  0  0  0  0  0
   -8.1641   -4.8984   -3.7458 H   0  0  0  0  0  0  0  0  0  0  0  0
   -6.2177   -8.8801   -8.4344 H   0  0  0  0  0  0  0  0  0  0  0  0
  -10.6611   -8.1437   -7.8005 H   0  0  0  0  0  0  0  0  0  0  0  0
  1  2  2  0  0  0  0
  2  3  1  0  0  0  0
  3  4  2  0  0  0  0
  3  5  1  0  0  0  0
  5  6  2  0  0  0  0
  6  7  1  0  0  0  0
  7  8  2  0  0  0  0
  8  9  1  0  0  0  0
  9 10  2  0  0  0  0
 10 11  1  0  0  0  0
 11 12  2  0  0  0  0
 12 13  1  0  0  0  0
 13 14  3  0  0  0  0
 12 15  1  0  0  0  0
 15 16  3  0  0  0  0
  8 17  1  0  0  0  0
 17 18  1  0  0  0  0
 18 19  1  0  0  0  0
 19 20  2  0  0  0  0
 20 21  1  0  0  0  0
 21 22  1  0  0  0  0
 21 23  1  0  0  0  0
  1 24  1  0  0  0  0
 24 25  2  0  0  0  0
 25 26  1  0  0  0  0
 26 27  1  0  0  0  0
 25 28  1  0  0  0  0
 28 29  2  0  0  0  0
 29 30  1  0  0  0  0
 29 31  1  0  0  0  0
 31 32  2  0  0  0  0
 32 33  1  0  0  0  0
 32 34  1  0  0  0  0
 34 35  2  0  0  0  0
 35 36  1  0  0  0  0
 36 37  2  0  0  0  0
 37 38  1  0  0  0  0
 37 39  1  0  0  0  0
 39 40  1  0  0  0  0
 39 41  2  0  0  0  0
 41 42  1  0  0  0  0
 42 43  2  0  0  0  0
 43 44  1  0  0  0  0
 44 45  1  0  0  0  0
 45 46  1  0  0  0  0
 46 47  1  0  0  0  0
 47 48  1  0  0  0  0
 48 49  1  0  0  0  0
 47 50  2  0  0  0  0
 50 51  1  0  0  0  0
 51 52  1  0  0  0  0
 52 53  1  0  0  0  0
 53 54  1  0  0  0  0
 54 55  1  0  0  0  0
 55 56  1  0  0  0  0
 54 57  1  0  0  0  0
 57 58  2  0  0  0  0
 58 59  1  0  0  0  0
 59 60  1  0  0  0  0
 60 61  1  0  0  0  0
 50 62  1  0  0  0  0
 62 63  2  0  0  0  0
 63 64  1  0  0  0  0
 64 65  2  0  0  0  0
 64 66  1  0  0  0  0
 66 67  2  0  0  0  0
 67 68  1  0  0  0  0
 68 69  1  0  0  0  0
 69 70  2  0  0  0  0
 70 71  1  0  0  0  0
 71 72  2  0  0  0  0
 72 73  1  0  0  0  0
 73 74  3  0  0  0  0
 72 75  1  0  0  0  0
 75 76  3  0  0  0  0
 11  2  1  0  0  0  0
 23 17  1  0  0  0  0
 30 24  1  0  0  0  0
 59 31  1  0  0  0  0
 71 63  1  0  0  0  0
 10  5  1  0  0  0  0
 22 18  1  0  0  0  0
 33 28  1  0  0  0  0
 58 34  1  0  0  0  0
 70 66  1  0  0  0  0
 23  7  1  0  0  0  0
 42 35  1  0  0  0  0
 57 43  1  0  0  0  0
 53 44  2  0  0  0  0
 52 46  2  0  0  0  0
  1 77  1  0  0  0  0
  6 78  1  0  0  0  0
  9 79  1  0  0  0  0
 17 80  1  0  0  0  0
 18 81  1  0  0  0  0
 19 82  1  0  0  0  0
 20 83  1  0  0  0  0
 21 84  1  0  0  0  0
 22 85  1  0  0  0  0
 22 86  1  0  0  0  0
 23 87  1  0  0  0  0
 26 88  1  0  0  0  0
 26 89  1  0  0  0  0
 27 90  1  0  0  0  0
 27 91  1  0  0  0  0
 27 92  1  0  0  0  0
 38 93  1  0  0  0  0
 38 94  1  0  0  0  0
 38 95  1  0  0  0  0
 40 96  1  0  0  0  0
 40 97  1  0  0  0  0
 40 98  1  0  0  0  0
 48 99  1  0  0  0  0
 48100  1  0  0  0  0
 49101  1  0  0  0  0
 49102  1  0  0  0  0
 49103  1  0  0  0  0
 55104  1  0  0  0  0
 55105  1  0  0  0  0
 56106  1  0  0  0  0
 56107  1  0  0  0  0
 56108  1  0  0  0  0
 60109  1  0  0  0  0
 60110  1  0  0  0  0
 61111  1  0  0  0  0
 61112  1  0  0  0  0
 61113  1  0  0  0  0
 62114  1  0  0  0  0
 67115  1  0  0  0  0
 69116  1  0  0  0  0
M  END
