
  xtb     02102222223D
 energy: -198.152787210184 gnorm: 0.000850496047 xtb: 6.4.1 (unknown)
103116  0     0  0            999 V2000
   -4.3002    2.5468   -0.7170 C   0  0  0  0  0  0  0  0  0  0  0  0
   -5.0700    3.0946    0.2657 C   0  0  0  0  0  0  0  0  0  0  0  0
   -4.6933    3.4331    1.6612 C   0  0  0  0  0  0  0  0  0  0  0  0
   -3.5874    3.4626    2.1603 O   0  0  0  0  0  0  0  0  0  0  0  0
   -5.9542    3.7463    2.3533 C   0  0  0  0  0  0  0  0  0  0  0  0
   -6.1040    4.0384    3.7075 C   0  0  0  0  0  0  0  0  0  0  0  0
   -7.4053    4.2482    4.0933 C   0  0  0  0  0  0  0  0  0  0  0  0
   -8.4806    4.1774    3.1959 C   0  0  0  0  0  0  0  0  0  0  0  0
   -8.3447    3.9056    1.8559 C   0  0  0  0  0  0  0  0  0  0  0  0
   -7.0268    3.6860    1.4417 C   0  0  0  0  0  0  0  0  0  0  0  0
   -6.4981    3.3543    0.1226 C   0  0  0  0  0  0  0  0  0  0  0  0
   -7.2299    3.3264   -1.0351 C   0  0  0  0  0  0  0  0  0  0  0  0
   -8.6111    3.6107   -1.1115 C   0  0  0  0  0  0  0  0  0  0  0  0
   -9.7289    3.8269   -1.2585 N   0  0  0  0  0  0  0  0  0  0  0  0
   -6.7438    3.0407   -2.3298 C   0  0  0  0  0  0  0  0  0  0  0  0
   -6.4496    2.8209   -3.4182 N   0  0  0  0  0  0  0  0  0  0  0  0
   -9.4991    4.4595    4.2713 C   0  0  0  0  0  0  0  0  0  0  0  0
  -10.3172    3.2623    4.8168 C   0  0  0  0  0  0  0  0  0  0  0  0
   -9.4651    2.0330    4.6195 C   0  0  0  0  0  0  0  0  0  0  0  0
   -8.4485    2.1041    5.4684 C   0  0  0  0  0  0  0  0  0  0  0  0
   -8.5945    3.3835    6.2549 C   0  0  0  0  0  0  0  0  0  0  0  0
  -10.1265    3.4840    6.3258 C   0  0  0  0  0  0  0  0  0  0  0  0
   -8.3014    4.5423    5.2695 C   0  0  0  0  0  0  0  0  0  0  0  0
   -2.9497    2.1289   -0.7316 C   0  0  0  0  0  0  0  0  0  0  0  0
   -1.9237    2.1959    0.1927 C   0  0  0  0  0  0  0  0  0  0  0  0
   -0.7781    1.5510   -0.2651 C   0  0  0  0  0  0  0  0  0  0  0  0
    0.7905    1.2910    0.4333 S   0  0  0  0  0  0  0  0  0  0  0  0
    1.2844    0.3913   -0.9866 C   0  0  0  0  0  0  0  0  0  0  0  0
    2.5475   -0.1593   -1.1628 C   0  0  0  0  0  0  0  0  0  0  0  0
    3.6092   -0.0087   -0.1857 C   0  0  0  0  0  0  0  0  0  0  0  0
    4.8916    0.3953   -0.4235 C   0  0  0  0  0  0  0  0  0  0  0  0
    5.6728    0.4287    0.7495 C   0  0  0  0  0  0  0  0  0  0  0  0
    7.3255    0.8926    0.7430 Cl  0  0  0  0  0  0  0  0  0  0  0  0
    5.0070    0.0464    1.8789 C   0  0  0  0  0  0  0  0  0  0  0  0
    5.5093    0.0133    3.2793 C   0  0  0  0  0  0  0  0  0  0  0  0
    5.2740    1.3584    3.9719 C   0  0  0  0  0  0  0  0  0  0  0  0
    3.3670   -0.3450    1.5021 S   0  0  0  0  0  0  0  0  0  0  0  0
    2.7718   -0.8668   -2.3575 C   0  0  0  0  0  0  0  0  0  0  0  0
    1.7622   -0.9315   -3.3512 C   0  0  0  0  0  0  0  0  0  0  0  0
    0.5107   -0.3578   -3.1883 C   0  0  0  0  0  0  0  0  0  0  0  0
   -0.4912   -0.4573   -4.2399 C   0  0  0  0  0  0  0  0  0  0  0  0
   -2.0139   -1.2525   -3.9746 S   0  0  0  0  0  0  0  0  0  0  0  0
   -2.5327   -0.9325   -5.5936 C   0  0  0  0  0  0  0  0  0  0  0  0
   -3.9054   -1.2949   -6.0377 C   0  0  0  0  0  0  0  0  0  0  0  0
   -4.9308   -0.3042   -5.4793 C   0  0  0  0  0  0  0  0  0  0  0  0
   -1.5552   -0.2709   -6.2773 C   0  0  0  0  0  0  0  0  0  0  0  0
   -0.3881   -0.0129   -5.5231 C   0  0  0  0  0  0  0  0  0  0  0  0
   -1.7140    0.2174   -7.9190 Cl  0  0  0  0  0  0  0  0  0  0  0  0
    0.2662    0.3028   -1.9727 C   0  0  0  0  0  0  0  0  0  0  0  0
   -0.8990    0.9788   -1.5341 C   0  0  0  0  0  0  0  0  0  0  0  0
   -2.4535    1.2765   -2.1939 S   0  0  0  0  0  0  0  0  0  0  0  0
    2.2275   -1.8837   -4.7485 S   0  0  0  0  0  0  0  0  0  0  0  0
    3.7386   -2.2751   -3.9782 C   0  0  0  0  0  0  0  0  0  0  0  0
    4.7964   -3.1017   -4.3134 C   0  0  0  0  0  0  0  0  0  0  0  0
    5.7699   -3.1434   -3.3134 C   0  0  0  0  0  0  0  0  0  0  0  0
    5.3497   -2.1115   -1.9540 S   0  0  0  0  0  0  0  0  0  0  0  0
    3.8894   -1.6530   -2.7329 C   0  0  0  0  0  0  0  0  0  0  0  0
    6.9211   -3.9394   -3.4285 C   0  0  0  0  0  0  0  0  0  0  0  0
    7.9513   -4.1441   -2.5473 C   0  0  0  0  0  0  0  0  0  0  0  0
    8.0743   -3.5447   -1.2124 C   0  0  0  0  0  0  0  0  0  0  0  0
    7.3206   -2.7563   -0.6742 O   0  0  0  0  0  0  0  0  0  0  0  0
    9.3138   -4.0976   -0.6307 C   0  0  0  0  0  0  0  0  0  0  0  0
    9.8591   -3.8475    0.6119 C   0  0  0  0  0  0  0  0  0  0  0  0
   11.0438   -4.4897    0.9517 C   0  0  0  0  0  0  0  0  0  0  0  0
   11.7782   -4.2275    2.4834 Cl  0  0  0  0  0  0  0  0  0  0  0  0
   11.6380   -5.3579    0.0321 C   0  0  0  0  0  0  0  0  0  0  0  0
   12.7773   -5.9743    0.3653 F   0  0  0  0  0  0  0  0  0  0  0  0
   11.0954   -5.6114   -1.2184 C   0  0  0  0  0  0  0  0  0  0  0  0
    9.9132   -4.9703   -1.5551 C   0  0  0  0  0  0  0  0  0  0  0  0
    9.0928   -5.0164   -2.7644 C   0  0  0  0  0  0  0  0  0  0  0  0
    9.3789   -5.7561   -3.8811 C   0  0  0  0  0  0  0  0  0  0  0  0
   10.5157   -6.5840   -4.0094 C   0  0  0  0  0  0  0  0  0  0  0  0
   11.4155   -7.2755   -4.1788 N   0  0  0  0  0  0  0  0  0  0  0  0
    8.6055   -5.8106   -5.0606 C   0  0  0  0  0  0  0  0  0  0  0  0
    8.0395   -5.9144   -6.0544 N   0  0  0  0  0  0  0  0  0  0  0  0
   -4.8043    2.3310   -1.6518 H   0  0  0  0  0  0  0  0  0  0  0  0
   -5.2477    4.0782    4.3624 H   0  0  0  0  0  0  0  0  0  0  0  0
   -9.1832    3.8541    1.1820 H   0  0  0  0  0  0  0  0  0  0  0  0
  -10.1097    5.3488    4.1299 H   0  0  0  0  0  0  0  0  0  0  0  0
  -11.3359    3.2049    4.4431 H   0  0  0  0  0  0  0  0  0  0  0  0
   -9.6526    1.2888    3.8677 H   0  0  0  0  0  0  0  0  0  0  0  0
   -7.6166    1.4315    5.5673 H   0  0  0  0  0  0  0  0  0  0  0  0
   -8.0450    3.4369    7.1911 H   0  0  0  0  0  0  0  0  0  0  0  0
  -10.4826    4.4536    6.6706 H   0  0  0  0  0  0  0  0  0  0  0  0
  -10.5725    2.6931    6.9269 H   0  0  0  0  0  0  0  0  0  0  0  0
   -8.1268    5.4874    5.7796 H   0  0  0  0  0  0  0  0  0  0  0  0
   -2.0181    2.6821    1.1457 H   0  0  0  0  0  0  0  0  0  0  0  0
    5.2596    0.6924   -1.3880 H   0  0  0  0  0  0  0  0  0  0  0  0
    4.9984   -0.7762    3.8328 H   0  0  0  0  0  0  0  0  0  0  0  0
    6.5788   -0.2058    3.2635 H   0  0  0  0  0  0  0  0  0  0  0  0
    5.7910    2.1519    3.4379 H   0  0  0  0  0  0  0  0  0  0  0  0
    4.2117    1.5904    3.9954 H   0  0  0  0  0  0  0  0  0  0  0  0
    5.6472    1.3245    4.9919 H   0  0  0  0  0  0  0  0  0  0  0  0
   -3.9361   -1.2829   -7.1286 H   0  0  0  0  0  0  0  0  0  0  0  0
   -4.1497   -2.3022   -5.6937 H   0  0  0  0  0  0  0  0  0  0  0  0
   -4.7096    0.7047   -5.8174 H   0  0  0  0  0  0  0  0  0  0  0  0
   -5.9297   -0.5703   -5.8134 H   0  0  0  0  0  0  0  0  0  0  0  0
   -4.9131   -0.3127   -4.3919 H   0  0  0  0  0  0  0  0  0  0  0  0
    0.4677    0.5072   -5.9124 H   0  0  0  0  0  0  0  0  0  0  0  0
    4.8703   -3.6656   -5.2254 H   0  0  0  0  0  0  0  0  0  0  0  0
    6.9699   -4.4741   -4.3693 H   0  0  0  0  0  0  0  0  0  0  0  0
    9.3752   -3.1711    1.2983 H   0  0  0  0  0  0  0  0  0  0  0  0
   11.6075   -6.2929   -1.8776 H   0  0  0  0  0  0  0  0  0  0  0  0
  1  2  2  0  0  0  0
  2  3  1  0  0  0  0
  3  4  2  0  0  0  0
  3  5  1  0  0  0  0
  5  6  2  0  0  0  0
  6  7  1  0  0  0  0
  7  8  2  0  0  0  0
  8  9  1  0  0  0  0
  9 10  2  0  0  0  0
 10 11  1  0  0  0  0
 11 12  2  0  0  0  0
 12 13  1  0  0  0  0
 13 14  3  0  0  0  0
 12 15  1  0  0  0  0
 15 16  3  0  0  0  0
  8 17  1  0  0  0  0
 17 18  1  0  0  0  0
 18 19  1  0  0  0  0
 19 20  2  0  0  0  0
 20 21  1  0  0  0  0
 21 22  1  0  0  0  0
 21 23  1  0  0  0  0
  1 24  1  0  0  0  0
 24 25  2  0  0  0  0
 25 26  1  0  0  0  0
 26 27  1  0  0  0  0
 27 28  1  0  0  0  0
 28 29  2  0  0  0  0
 29 30  1  0  0  0  0
 30 31  2  0  0  0  0
 31 32  1  0  0  0  0
 32 33  1  0  0  0  0
 32 34  2  0  0  0  0
 34 35  1  0  0  0  0
 35 36  1  0  0  0  0
 34 37  1  0  0  0  0
 29 38  1  0  0  0  0
 38 39  2  0  0  0  0
 39 40  1  0  0  0  0
 40 41  1  0  0  0  0
 41 42  1  0  0  0  0
 42 43  1  0  0  0  0
 43 44  1  0  0  0  0
 44 45  1  0  0  0  0
 43 46  2  0  0  0  0
 46 47  1  0  0  0  0
 46 48  1  0  0  0  0
 40 49  2  0  0  0  0
 49 50  1  0  0  0  0
 50 51  1  0  0  0  0
 39 52  1  0  0  0  0
 52 53  1  0  0  0  0
 53 54  1  0  0  0  0
 54 55  2  0  0  0  0
 55 56  1  0  0  0  0
 56 57  1  0  0  0  0
 55 58  1  0  0  0  0
 58 59  2  0  0  0  0
 59 60  1  0  0  0  0
 60 61  2  0  0  0  0
 60 62  1  0  0  0  0
 62 63  2  0  0  0  0
 63 64  1  0  0  0  0
 64 65  1  0  0  0  0
 64 66  2  0  0  0  0
 66 67  1  0  0  0  0
 66 68  1  0  0  0  0
 68 69  2  0  0  0  0
 69 70  1  0  0  0  0
 70 71  2  0  0  0  0
 71 72  1  0  0  0  0
 72 73  3  0  0  0  0
 71 74  1  0  0  0  0
 74 75  3  0  0  0  0
 11  2  1  0  0  0  0
 23 17  1  0  0  0  0
 51 24  1  0  0  0  0
 57 53  2  0  0  0  0
 70 59  1  0  0  0  0
 10  5  1  0  0  0  0
 22 18  1  0  0  0  0
 50 26  2  0  0  0  0
 69 62  1  0  0  0  0
 23  7  1  0  0  0  0
 49 28  1  0  0  0  0
 37 30  1  0  0  0  0
 57 38  1  0  0  0  0
 47 41  2  0  0  0  0
  1 76  1  0  0  0  0
  6 77  1  0  0  0  0
  9 78  1  0  0  0  0
 17 79  1  0  0  0  0
 18 80  1  0  0  0  0
 19 81  1  0  0  0  0
 20 82  1  0  0  0  0
 21 83  1  0  0  0  0
 22 84  1  0  0  0  0
 22 85  1  0  0  0  0
 23 86  1  0  0  0  0
 25 87  1  0  0  0  0
 31 88  1  0  0  0  0
 35 89  1  0  0  0  0
 35 90  1  0  0  0  0
 36 91  1  0  0  0  0
 36 92  1  0  0  0  0
 36 93  1  0  0  0  0
 44 94  1  0  0  0  0
 44 95  1  0  0  0  0
 45 96  1  0  0  0  0
 45 97  1  0  0  0  0
 45 98  1  0  0  0  0
 47 99  1  0  0  0  0
 54100  1  0  0  0  0
 58101  1  0  0  0  0
 63102  1  0  0  0  0
 68103  1  0  0  0  0
M  END
