
  xtb     02032200153D
 energy: -179.879538155212 gnorm: 0.000604525944 xtb: 6.4.1 (unknown)
106118  0     0  0            999 V2000
   -0.1876   -5.7626    0.5632 C   0  0  0  0  0  0  0  0  0  0  0  0
   -1.5009   -6.0436    0.3443 C   0  0  0  0  0  0  0  0  0  0  0  0
   -1.8968   -7.3747   -0.1871 C   0  0  0  0  0  0  0  0  0  0  0  0
   -1.2126   -8.3731   -0.2227 O   0  0  0  0  0  0  0  0  0  0  0  0
   -3.2631   -7.1891   -0.7152 C   0  0  0  0  0  0  0  0  0  0  0  0
   -4.0235   -8.1090   -1.4335 C   0  0  0  0  0  0  0  0  0  0  0  0
   -5.2569   -7.6393   -1.8169 C   0  0  0  0  0  0  0  0  0  0  0  0
   -5.7031   -6.3438   -1.5207 C   0  0  0  0  0  0  0  0  0  0  0  0
   -4.9680   -5.4268   -0.8081 C   0  0  0  0  0  0  0  0  0  0  0  0
   -3.7157   -5.8901   -0.3994 C   0  0  0  0  0  0  0  0  0  0  0  0
   -2.6930   -5.2281    0.4045 C   0  0  0  0  0  0  0  0  0  0  0  0
   -2.9088   -4.1956    1.2804 C   0  0  0  0  0  0  0  0  0  0  0  0
   -1.9637   -3.8164    2.2565 C   0  0  0  0  0  0  0  0  0  0  0  0
   -1.2347   -3.5224    3.0933 N   0  0  0  0  0  0  0  0  0  0  0  0
   -4.1108   -3.4684    1.3689 C   0  0  0  0  0  0  0  0  0  0  0  0
   -5.0572   -2.8252    1.4662 N   0  0  0  0  0  0  0  0  0  0  0  0
   -7.0256   -6.5547   -2.2136 C   0  0  0  0  0  0  0  0  0  0  0  0
   -8.2690   -6.8049   -1.3253 C   0  0  0  0  0  0  0  0  0  0  0  0
   -7.7617   -7.4125   -0.0408 C   0  0  0  0  0  0  0  0  0  0  0  0
   -7.3422   -8.6411   -0.3127 C   0  0  0  0  0  0  0  0  0  0  0  0
   -7.5580   -8.8862   -1.7857 C   0  0  0  0  0  0  0  0  0  0  0  0
   -8.8326   -8.0579   -2.0140 C   0  0  0  0  0  0  0  0  0  0  0  0
   -6.5323   -8.0005   -2.5362 C   0  0  0  0  0  0  0  0  0  0  0  0
    0.4574   -4.5072    0.6244 C   0  0  0  0  0  0  0  0  0  0  0  0
    1.7431   -4.2606    1.0865 C   0  0  0  0  0  0  0  0  0  0  0  0
    2.6515   -5.2771    1.6959 C   0  0  0  0  0  0  0  0  0  0  0  0
    3.5727   -5.8790    0.6315 C   0  0  0  0  0  0  0  0  0  0  0  0
    2.1070   -2.9225    0.9032 C   0  0  0  0  0  0  0  0  0  0  0  0
    1.1223   -2.1342    0.2935 C   0  0  0  0  0  0  0  0  0  0  0  0
   -0.2857   -3.0618   -0.0638 S   0  0  0  0  0  0  0  0  0  0  0  0
    1.5414   -0.8097    0.1416 C   0  0  0  0  0  0  0  0  0  0  0  0
    2.8415   -0.6150    0.6198 C   0  0  0  0  0  0  0  0  0  0  0  0
    3.5664   -2.0366    1.2795 S   0  0  0  0  0  0  0  0  0  0  0  0
    3.1689    0.7276    0.3842 C   0  0  0  0  0  0  0  0  0  0  0  0
    4.4014    1.3970    0.5960 C   0  0  0  0  0  0  0  0  0  0  0  0
    5.4443    0.7665    1.1498 N   0  0  0  0  0  0  0  0  0  0  0  0
    6.5706    1.4355    1.2763 C   0  0  0  0  0  0  0  0  0  0  0  0
    7.7182    0.7180    1.9050 C   0  0  0  0  0  0  0  0  0  0  0  0
    6.6842    2.7775    0.8304 C   0  0  0  0  0  0  0  0  0  0  0  0
    7.9613    3.5397    0.9529 C   0  0  0  0  0  0  0  0  0  0  0  0
    5.6615    3.4067    0.2911 N   0  0  0  0  0  0  0  0  0  0  0  0
    4.5086    2.7368    0.1722 C   0  0  0  0  0  0  0  0  0  0  0  0
    3.3488    3.3646   -0.3496 C   0  0  0  0  0  0  0  0  0  0  0  0
    3.1693    4.6971   -0.7451 C   0  0  0  0  0  0  0  0  0  0  0  0
    4.0967    6.1431   -0.9062 S   0  0  0  0  0  0  0  0  0  0  0  0
    2.6535    6.9890   -1.4195 C   0  0  0  0  0  0  0  0  0  0  0  0
    2.4045    8.3291   -1.7564 C   0  0  0  0  0  0  0  0  0  0  0  0
    3.4782    9.3525   -1.9387 C   0  0  0  0  0  0  0  0  0  0  0  0
    4.5924    8.8509   -2.8582 C   0  0  0  0  0  0  0  0  0  0  0  0
    1.0574    8.5217   -2.0303 C   0  0  0  0  0  0  0  0  0  0  0  0
    0.1178    7.0297   -1.9498 S   0  0  0  0  0  0  0  0  0  0  0  0
    1.5218    6.1606   -1.4570 C   0  0  0  0  0  0  0  0  0  0  0  0
    1.8204    4.8487   -1.0797 C   0  0  0  0  0  0  0  0  0  0  0  0
    1.1650    3.6539   -0.9383 N   0  0  0  0  0  0  0  0  0  0  0  0
   -0.2803    3.6313   -0.8997 C   0  0  0  0  0  0  0  0  0  0  0  0
   -0.7984    3.4517    0.5252 C   0  0  0  0  0  0  0  0  0  0  0  0
    2.0872    2.7194   -0.4926 C   0  0  0  0  0  0  0  0  0  0  0  0
    2.0221    1.3345   -0.2041 C   0  0  0  0  0  0  0  0  0  0  0  0
    1.0397    0.3672   -0.3445 N   0  0  0  0  0  0  0  0  0  0  0  0
   -0.1602    0.3547   -1.1493 C   0  0  0  0  0  0  0  0  0  0  0  0
    0.1586    0.5407   -2.6310 C   0  0  0  0  0  0  0  0  0  0  0  0
    0.3407    9.7133   -2.3570 C   0  0  0  0  0  0  0  0  0  0  0  0
    0.5836   10.9689   -1.8439 C   0  0  0  0  0  0  0  0  0  0  0  0
    1.4678   11.2068   -0.7750 C   0  0  0  0  0  0  0  0  0  0  0  0
    2.1428   11.4030    0.1322 N   0  0  0  0  0  0  0  0  0  0  0  0
   -0.1351   12.0945   -2.2987 C   0  0  0  0  0  0  0  0  0  0  0  0
   -0.6995   13.0230   -2.6644 N   0  0  0  0  0  0  0  0  0  0  0  0
   -0.7530    9.5618   -3.2471 C   0  0  0  0  0  0  0  0  0  0  0  0
   -1.6261    9.4150   -3.9741 N   0  0  0  0  0  0  0  0  0  0  0  0
    0.4660   -6.6286    0.5925 H   0  0  0  0  0  0  0  0  0  0  0  0
   -3.6441   -9.0959   -1.6475 H   0  0  0  0  0  0  0  0  0  0  0  0
   -5.3142   -4.4299   -0.5882 H   0  0  0  0  0  0  0  0  0  0  0  0
   -7.2380   -5.8907   -3.0492 H   0  0  0  0  0  0  0  0  0  0  0  0
   -8.9300   -5.9485   -1.2226 H   0  0  0  0  0  0  0  0  0  0  0  0
   -7.7082   -6.8821    0.8918 H   0  0  0  0  0  0  0  0  0  0  0  0
   -6.8683   -9.3431    0.3480 H   0  0  0  0  0  0  0  0  0  0  0  0
   -7.5731   -9.9258   -2.1024 H   0  0  0  0  0  0  0  0  0  0  0  0
   -9.0688   -7.9058   -3.0664 H   0  0  0  0  0  0  0  0  0  0  0  0
   -9.6992   -8.4681   -1.4980 H   0  0  0  0  0  0  0  0  0  0  0  0
   -6.4279   -8.2831   -3.5821 H   0  0  0  0  0  0  0  0  0  0  0  0
    3.2588   -4.7836    2.4571 H   0  0  0  0  0  0  0  0  0  0  0  0
    2.0707   -6.0644    2.1761 H   0  0  0  0  0  0  0  0  0  0  0  0
    2.9925   -6.3788   -0.1410 H   0  0  0  0  0  0  0  0  0  0  0  0
    4.2417   -6.6044    1.0864 H   0  0  0  0  0  0  0  0  0  0  0  0
    4.1708   -5.0993    0.1656 H   0  0  0  0  0  0  0  0  0  0  0  0
    8.5609    0.6698    1.2169 H   0  0  0  0  0  0  0  0  0  0  0  0
    8.0465    1.2399    2.8026 H   0  0  0  0  0  0  0  0  0  0  0  0
    7.4079   -0.2894    2.1668 H   0  0  0  0  0  0  0  0  0  0  0  0
    7.8215    4.5377    0.5478 H   0  0  0  0  0  0  0  0  0  0  0  0
    8.7588    3.0364    0.4082 H   0  0  0  0  0  0  0  0  0  0  0  0
    8.2618    3.6128    1.9971 H   0  0  0  0  0  0  0  0  0  0  0  0
    3.8972    9.6132   -0.9628 H   0  0  0  0  0  0  0  0  0  0  0  0
    3.0560   10.2615   -2.3698 H   0  0  0  0  0  0  0  0  0  0  0  0
    5.1190    8.0100   -2.4169 H   0  0  0  0  0  0  0  0  0  0  0  0
    4.1829    8.5417   -3.8179 H   0  0  0  0  0  0  0  0  0  0  0  0
    5.3065    9.6518   -3.0297 H   0  0  0  0  0  0  0  0  0  0  0  0
   -0.6183    4.5958   -1.2869 H   0  0  0  0  0  0  0  0  0  0  0  0
   -0.6696    2.8651   -1.5698 H   0  0  0  0  0  0  0  0  0  0  0  0
   -0.4775    4.2854    1.1455 H   0  0  0  0  0  0  0  0  0  0  0  0
   -0.4188    2.5343    0.9694 H   0  0  0  0  0  0  0  0  0  0  0  0
   -1.8845    3.4198    0.5244 H   0  0  0  0  0  0  0  0  0  0  0  0
   -0.6241   -0.6236   -1.0008 H   0  0  0  0  0  0  0  0  0  0  0  0
   -0.8696    1.1010   -0.7919 H   0  0  0  0  0  0  0  0  0  0  0  0
    0.7800   -0.2798   -2.9825 H   0  0  0  0  0  0  0  0  0  0  0  0
    0.6965    1.4701   -2.8042 H   0  0  0  0  0  0  0  0  0  0  0  0
   -0.7605    0.5509   -3.2105 H   0  0  0  0  0  0  0  0  0  0  0  0
  1  2  2  0  0  0  0
  2  3  1  0  0  0  0
  3  4  2  0  0  0  0
  3  5  1  0  0  0  0
  5  6  2  0  0  0  0
  6  7  1  0  0  0  0
  7  8  2  0  0  0  0
  8  9  1  0  0  0  0
  9 10  2  0  0  0  0
 10 11  1  0  0  0  0
 11 12  2  0  0  0  0
 12 13  1  0  0  0  0
 13 14  3  0  0  0  0
 12 15  1  0  0  0  0
 15 16  3  0  0  0  0
  8 17  1  0  0  0  0
 17 18  1  0  0  0  0
 18 19  1  0  0  0  0
 19 20  2  0  0  0  0
 20 21  1  0  0  0  0
 21 22  1  0  0  0  0
 21 23  1  0  0  0  0
  1 24  1  0  0  0  0
 24 25  2  0  0  0  0
 25 26  1  0  0  0  0
 26 27  1  0  0  0  0
 25 28  1  0  0  0  0
 28 29  2  0  0  0  0
 29 30  1  0  0  0  0
 29 31  1  0  0  0  0
 31 32  2  0  0  0  0
 32 33  1  0  0  0  0
 32 34  1  0  0  0  0
 34 35  2  0  0  0  0
 35 36  1  0  0  0  0
 36 37  2  0  0  0  0
 37 38  1  0  0  0  0
 37 39  1  0  0  0  0
 39 40  1  0  0  0  0
 39 41  2  0  0  0  0
 41 42  1  0  0  0  0
 42 43  2  0  0  0  0
 43 44  1  0  0  0  0
 44 45  1  0  0  0  0
 45 46  1  0  0  0  0
 46 47  1  0  0  0  0
 47 48  1  0  0  0  0
 48 49  1  0  0  0  0
 47 50  2  0  0  0  0
 50 51  1  0  0  0  0
 51 52  1  0  0  0  0
 52 53  1  0  0  0  0
 53 54  1  0  0  0  0
 54 55  1  0  0  0  0
 55 56  1  0  0  0  0
 54 57  1  0  0  0  0
 57 58  2  0  0  0  0
 58 59  1  0  0  0  0
 59 60  1  0  0  0  0
 60 61  1  0  0  0  0
 50 62  1  0  0  0  0
 62 63  2  0  0  0  0
 63 64  1  0  0  0  0
 64 65  3  0  0  0  0
 63 66  1  0  0  0  0
 66 67  3  0  0  0  0
 62 68  1  0  0  0  0
 68 69  3  0  0  0  0
 11  2  1  0  0  0  0
 23 17  1  0  0  0  0
 30 24  1  0  0  0  0
 59 31  1  0  0  0  0
 10  5  1  0  0  0  0
 22 18  1  0  0  0  0
 33 28  1  0  0  0  0
 58 34  1  0  0  0  0
 23  7  1  0  0  0  0
 42 35  1  0  0  0  0
 57 43  1  0  0  0  0
 53 44  2  0  0  0  0
 52 46  2  0  0  0  0
  1 70  1  0  0  0  0
  6 71  1  0  0  0  0
  9 72  1  0  0  0  0
 17 73  1  0  0  0  0
 18 74  1  0  0  0  0
 19 75  1  0  0  0  0
 20 76  1  0  0  0  0
 21 77  1  0  0  0  0
 22 78  1  0  0  0  0
 22 79  1  0  0  0  0
 23 80  1  0  0  0  0
 26 81  1  0  0  0  0
 26 82  1  0  0  0  0
 27 83  1  0  0  0  0
 27 84  1  0  0  0  0
 27 85  1  0  0  0  0
 38 86  1  0  0  0  0
 38 87  1  0  0  0  0
 38 88  1  0  0  0  0
 40 89  1  0  0  0  0
 40 90  1  0  0  0  0
 40 91  1  0  0  0  0
 48 92  1  0  0  0  0
 48 93  1  0  0  0  0
 49 94  1  0  0  0  0
 49 95  1  0  0  0  0
 49 96  1  0  0  0  0
 55 97  1  0  0  0  0
 55 98  1  0  0  0  0
 56 99  1  0  0  0  0
 56100  1  0  0  0  0
 56101  1  0  0  0  0
 60102  1  0  0  0  0
 60103  1  0  0  0  0
 61104  1  0  0  0  0
 61105  1  0  0  0  0
 61106  1  0  0  0  0
M  END
