132

C         -5.23230       -3.47800        4.58590
C         -5.85680       -4.15530        3.56650
C         -5.67380       -3.92560        2.13210
O         -4.90990       -3.14070        1.59280
C         -6.60710       -4.83080        1.44240
C         -6.80090       -4.94380        0.06840
C         -7.73970       -5.88190       -0.28720
C         -8.43620       -6.64850        0.65590
C         -8.25700       -6.54200        2.01520
C         -7.30310       -5.59580        2.39940
C         -6.84060       -5.20570        3.73190
C         -7.25360       -5.77700        4.90990
C         -8.19380       -6.82390        5.00380
N         -8.94770       -7.67560        5.16310
C         -6.79950       -5.43000        6.19870
N         -6.48310       -5.21260        7.28240
C         -9.20920       -7.39360       -0.40350
C         -8.76180       -8.83760       -0.74070
C         -7.29230       -8.92060       -0.40960
C         -6.63420       -8.19380       -1.30270
C         -7.64700       -7.60570       -2.25390
C         -8.68870       -8.73570       -2.27280
C         -8.43380       -6.53790       -1.45430
C         -4.23460       -2.49900        4.55620
C         -3.70130       -1.90680        5.71550
C         -4.17650       -2.14570        7.11140
C         -5.42030       -1.30590        7.41450
C         -2.67970       -1.01900        5.40710
C         -2.40620       -0.91880        4.03150
S         -3.44900       -1.91340        3.08930
C         -1.34230       -0.04800        3.79030
C         -0.80560        0.48850        4.96830
S         -1.62380       -0.03010        6.40150
C          0.32280        1.23750        4.60420
C          1.32460        1.83810        5.41250
N          1.19380        1.88890        6.74300
C          2.19390        2.37950        7.44500
C          2.01970        2.43240        8.92660
C          3.38110        2.82930        6.81590
C          4.53150        3.36700        7.60080
N          3.51500        2.79410        5.50660
C          2.49770        2.31310        4.78270
C          2.55830        2.28910        3.36410
C          3.56720        2.71020        2.48250
S          5.18590        3.31870        2.53340
C          5.20830        3.33080        0.77770
C          6.18920        3.65340       -0.15040
C          7.56540        4.07670        0.24760
C          8.49970        2.86730        0.34110
C          5.73470        3.45690       -1.46740
S          4.05780        2.90520       -1.51780
C          4.00130        2.89810        0.20230
C          3.07460        2.54310        1.18280
N          1.80460        2.02490        1.22000
C          0.91890        2.27340        0.10220
C          0.68270        3.77150       -0.08890
C          1.48550        1.82690        2.55100
C          0.41060        1.16740        3.18450
N         -0.60840        0.36810        2.71170
C         -0.77040       -0.27750        1.42810
C         -1.99980        0.23430        0.67720
C          6.55130        3.62220       -2.59050
C          6.28680        3.44450       -3.92740
C          4.98540        3.12990       -4.52030
O          3.93140        2.91980       -3.94160
C          5.18070        3.13140       -5.97950
C          4.20990        2.91280       -6.95420
C          4.68570        2.98480       -8.24130
C          6.02750        3.25810       -8.53650
C          6.99400        3.47850       -7.58350
C          6.53260        3.40550       -6.26570
C          7.24920        3.57890       -5.00170
C          8.60150        3.78390       -4.88400
C          9.31520        3.90880       -3.67460
N          9.97570        4.01320       -2.73960
C          9.49380        3.87440       -5.97220
N         10.28220        3.95730       -6.80320
C          5.79920        3.17840      -10.02580
C          6.26480        1.88510      -10.72760
C          5.49830        1.88510      -12.03060
C          4.22720        1.62640      -11.75110
C          4.11320        1.44720      -10.25440
C          5.47920        0.81420       -9.95970
C          4.30260        2.87350       -9.69610
H         -5.54680       -3.73650        5.58770
H         -6.24270       -4.33110       -0.62220
H         -8.80660       -7.13660        2.72540
H        -10.29210       -7.29400       -0.36330
H         -9.39300       -9.61530       -0.31960
H         -6.90020       -9.43600        0.44750
H         -5.58190       -7.98050       -1.34100
H         -7.26380       -7.26170       -3.21120
H         -8.31400       -9.64610       -2.73810
H         -9.63250       -8.44810       -2.73420
H         -9.01070       -5.87780       -2.09930
H         -3.37660       -1.85900        7.79680
H         -4.40350       -3.20080        7.27310
H         -6.23560       -1.56960        6.74480
H         -5.74320       -1.48110        8.43690
H         -5.20030       -0.24770        7.29350
H          2.10720        3.45740        9.28420
H          1.03900        2.04250        9.18380
H          2.78590        1.83710        9.42120
H          5.33030        3.64290        6.91850
H          4.22640        4.24210        8.17280
H          4.89680        2.61780        8.30170
H          7.50320        4.55440        1.22760
H          7.97570        4.79830       -0.45990
H          8.11560        2.14840        1.06110
H          9.48730        3.18890        0.65880
H          8.59430        2.37860       -0.62550
H         -0.03590        1.79180        0.27730
H          1.38110        1.85650       -0.79780
H          1.61090        4.28330       -0.32680
H          0.26490        4.20670        0.81690
H         -0.01450        3.92750       -0.90740
H          0.14560       -0.14930        0.85030
H         -0.90080       -1.34980        1.61100
H         -2.02330        1.32160        0.63950
H         -1.99800       -0.15430       -0.33710
H         -2.90610       -0.10600        1.17010
H          7.55920        3.92830       -2.34530
H          3.18590        2.71140       -6.68090
H          8.01940        3.69610       -7.83020
H          6.03550        4.07800      -10.59090
H          7.34270        1.76580      -10.79340
H          5.93460        2.12110      -12.98340
H          3.38980        1.60310      -12.42370
H          3.23080        0.92810       -9.88950
H          5.72360        0.75880       -8.90040
H          5.58130       -0.17230      -10.40890
H          3.54100        3.57050      -10.04140
