
  xtb     02112200063D
 energy: -211.589987810200 gnorm: 0.000461818764 xtb: 6.4.1 (unknown)
117130  0     0  0            999 V2000
    4.2799   -0.8631    0.7497 C   0  0  0  0  0  0  0  0  0  0  0  0
    5.5792   -0.8299    0.4199 C   0  0  0  0  0  0  0  0  0  0  0  0
    6.6081   -1.1905    1.4512 C   0  0  0  0  0  0  0  0  0  0  0  0
    6.4288   -1.8574    2.4405 O   0  0  0  0  0  0  0  0  0  0  0  0
    7.8337   -0.4951    1.0253 C   0  0  0  0  0  0  0  0  0  0  0  0
    9.0246   -0.3742    1.7417 C   0  0  0  0  0  0  0  0  0  0  0  0
    9.9850    0.3776    1.1098 C   0  0  0  0  0  0  0  0  0  0  0  0
    9.7789    0.9801   -0.1404 C   0  0  0  0  0  0  0  0  0  0  0  0
    8.6148    0.8675   -0.8610 C   0  0  0  0  0  0  0  0  0  0  0  0
    7.6281    0.0934   -0.2418 C   0  0  0  0  0  0  0  0  0  0  0  0
    6.2983   -0.2698   -0.7175 C   0  0  0  0  0  0  0  0  0  0  0  0
    5.8985   -0.2822   -2.0228 C   0  0  0  0  0  0  0  0  0  0  0  0
    6.6852    0.2020   -3.0915 C   0  0  0  0  0  0  0  0  0  0  0  0
    7.2732    0.5904   -3.9968 N   0  0  0  0  0  0  0  0  0  0  0  0
    4.7047   -0.8818   -2.4822 C   0  0  0  0  0  0  0  0  0  0  0  0
    3.7778   -1.3965   -2.9206 N   0  0  0  0  0  0  0  0  0  0  0  0
   11.1565    1.5920   -0.1621 C   0  0  0  0  0  0  0  0  0  0  0  0
   12.2031    0.8984   -1.0599 C   0  0  0  0  0  0  0  0  0  0  0  0
   13.5257    1.3953   -0.5221 C   0  0  0  0  0  0  0  0  0  0  0  0
   13.7229    0.8210    0.6577 C   0  0  0  0  0  0  0  0  0  0  0  0
   12.5368   -0.0738    0.9376 C   0  0  0  0  0  0  0  0  0  0  0  0
   12.2053   -0.5262   -0.4904 C   0  0  0  0  0  0  0  0  0  0  0  0
   11.3886    0.9164    1.2277 C   0  0  0  0  0  0  0  0  0  0  0  0
    3.1323   -0.2301    0.0571 C   0  0  0  0  0  0  0  0  0  0  0  0
    2.3489    0.6284    1.0035 C   0  0  0  0  0  0  0  0  0  0  0  0
    1.0954    0.2165    1.2189 C   0  0  0  0  0  0  0  0  0  0  0  0
   -0.2052    0.8840    2.1649 S   0  0  0  0  0  0  0  0  0  0  0  0
   -1.3719   -0.4560    1.6276 C   0  0  0  0  0  0  0  0  0  0  0  0
   -2.7417   -0.0180    1.1931 C   0  0  0  0  0  0  0  0  0  0  0  0
   -3.4217    1.0317    1.8972 C   0  0  0  0  0  0  0  0  0  0  0  0
   -4.7017    1.0109    2.3907 C   0  0  0  0  0  0  0  0  0  0  0  0
   -5.1251    2.2270    2.9609 C   0  0  0  0  0  0  0  0  0  0  0  0
   -6.4987    2.4035    3.5281 C   0  0  0  0  0  0  0  0  0  0  0  0
   -6.6533    1.6610    4.8551 C   0  0  0  0  0  0  0  0  0  0  0  0
   -4.1479    3.1856    2.9158 C   0  0  0  0  0  0  0  0  0  0  0  0
   -4.2155    4.6146    3.3320 C   0  0  0  0  0  0  0  0  0  0  0  0
   -4.6713    5.4930    2.1636 C   0  0  0  0  0  0  0  0  0  0  0  0
   -2.6985    2.5940    2.1799 S   0  0  0  0  0  0  0  0  0  0  0  0
   -3.3556   -0.7443    0.2005 C   0  0  0  0  0  0  0  0  0  0  0  0
   -2.6957   -1.8673   -0.4381 C   0  0  0  0  0  0  0  0  0  0  0  0
   -1.3795   -2.1718   -0.2377 C   0  0  0  0  0  0  0  0  0  0  0  0
   -0.6972   -3.2547   -0.9062 C   0  0  0  0  0  0  0  0  0  0  0  0
   -0.8005   -3.6871   -2.1969 C   0  0  0  0  0  0  0  0  0  0  0  0
    0.0022   -4.8125   -2.4907 C   0  0  0  0  0  0  0  0  0  0  0  0
    0.0026   -5.4428   -3.8488 C   0  0  0  0  0  0  0  0  0  0  0  0
   -1.2956   -6.2148   -4.0890 C   0  0  0  0  0  0  0  0  0  0  0  0
    0.7141   -5.2442   -1.4065 C   0  0  0  0  0  0  0  0  0  0  0  0
    0.4032   -4.2654   -0.0118 S   0  0  0  0  0  0  0  0  0  0  0  0
    1.6363   -6.4088   -1.2792 C   0  0  0  0  0  0  0  0  0  0  0  0
    0.8812   -7.6794   -0.8813 C   0  0  0  0  0  0  0  0  0  0  0  0
   -0.6363   -1.2794    0.6084 C   0  0  0  0  0  0  0  0  0  0  0  0
    0.6697   -0.9471    0.4813 C   0  0  0  0  0  0  0  0  0  0  0  0
    1.9657   -1.5648   -0.5036 S   0  0  0  0  0  0  0  0  0  0  0  0
   -3.7314   -2.6864   -1.6063 S   0  0  0  0  0  0  0  0  0  0  0  0
   -4.9639   -1.4774   -1.3768 C   0  0  0  0  0  0  0  0  0  0  0  0
   -6.1717   -1.2347   -2.0017 C   0  0  0  0  0  0  0  0  0  0  0  0
   -6.8083   -0.0961   -1.4980 C   0  0  0  0  0  0  0  0  0  0  0  0
   -5.8686    0.6399   -0.2074 S   0  0  0  0  0  0  0  0  0  0  0  0
   -4.6400   -0.5433   -0.3876 C   0  0  0  0  0  0  0  0  0  0  0  0
   -8.0330    0.3642   -1.9961 C   0  0  0  0  0  0  0  0  0  0  0  0
   -8.7806    1.4633   -1.6426 C   0  0  0  0  0  0  0  0  0  0  0  0
   -8.4591    2.4174   -0.5847 C   0  0  0  0  0  0  0  0  0  0  0  0
   -7.5516    2.3604    0.2252 O   0  0  0  0  0  0  0  0  0  0  0  0
   -9.4622    3.4999   -0.6914 C   0  0  0  0  0  0  0  0  0  0  0  0
   -9.5310    4.6855    0.0164 C   0  0  0  0  0  0  0  0  0  0  0  0
   -8.4885    5.0000    1.3272 Cl  0  0  0  0  0  0  0  0  0  0  0  0
  -10.4813    5.6385   -0.3752 C   0  0  0  0  0  0  0  0  0  0  0  0
  -10.6247    7.1079    0.4889 Cl  0  0  0  0  0  0  0  0  0  0  0  0
  -11.2756    5.4082   -1.4966 C   0  0  0  0  0  0  0  0  0  0  0  0
  -12.3544    6.6282   -2.0206 Cl  0  0  0  0  0  0  0  0  0  0  0  0
  -11.1988    4.2017   -2.2137 C   0  0  0  0  0  0  0  0  0  0  0  0
  -12.0772    4.0739   -3.6808 Cl  0  0  0  0  0  0  0  0  0  0  0  0
  -10.3384    3.2113   -1.7571 C   0  0  0  0  0  0  0  0  0  0  0  0
  -10.0455    1.8599   -2.2341 C   0  0  0  0  0  0  0  0  0  0  0  0
  -10.9022    1.0472   -2.9321 C   0  0  0  0  0  0  0  0  0  0  0  0
  -10.5883   -0.2467   -3.4020 C   0  0  0  0  0  0  0  0  0  0  0  0
  -10.4160   -1.2937   -3.8419 N   0  0  0  0  0  0  0  0  0  0  0  0
  -12.2760    1.2948   -3.1433 C   0  0  0  0  0  0  0  0  0  0  0  0
  -13.4160    1.3480   -3.2655 N   0  0  0  0  0  0  0  0  0  0  0  0
    4.0358   -1.3385    1.6935 H   0  0  0  0  0  0  0  0  0  0  0  0
    9.1399   -0.8421    2.7066 H   0  0  0  0  0  0  0  0  0  0  0  0
    8.4601    1.3463   -1.8140 H   0  0  0  0  0  0  0  0  0  0  0  0
   11.1918    2.6777   -0.2269 H   0  0  0  0  0  0  0  0  0  0  0  0
   12.0333    1.0119   -2.1269 H   0  0  0  0  0  0  0  0  0  0  0  0
   14.1350    2.1305   -1.0138 H   0  0  0  0  0  0  0  0  0  0  0  0
   14.5297    0.9808    1.3486 H   0  0  0  0  0  0  0  0  0  0  0  0
   12.6729   -0.8459    1.6899 H   0  0  0  0  0  0  0  0  0  0  0  0
   11.2521   -1.0435   -0.5835 H   0  0  0  0  0  0  0  0  0  0  0  0
   12.9950   -1.1394   -0.9208 H   0  0  0  0  0  0  0  0  0  0  0  0
   11.5817    1.5505    2.0909 H   0  0  0  0  0  0  0  0  0  0  0  0
    3.4413    0.3275   -0.8307 H   0  0  0  0  0  0  0  0  0  0  0  0
    2.8124    1.4889    1.4493 H   0  0  0  0  0  0  0  0  0  0  0  0
   -1.5160   -1.0509    2.5448 H   0  0  0  0  0  0  0  0  0  0  0  0
   -5.3118    0.1254    2.3828 H   0  0  0  0  0  0  0  0  0  0  0  0
   -6.7090    3.4625    3.6756 H   0  0  0  0  0  0  0  0  0  0  0  0
   -7.2165    2.0181    2.8011 H   0  0  0  0  0  0  0  0  0  0  0  0
   -6.4638    0.5984    4.7248 H   0  0  0  0  0  0  0  0  0  0  0  0
   -7.6612    1.7870    5.2433 H   0  0  0  0  0  0  0  0  0  0  0  0
   -5.9488    2.0460    5.5896 H   0  0  0  0  0  0  0  0  0  0  0  0
   -4.9122    4.7214    4.1656 H   0  0  0  0  0  0  0  0  0  0  0  0
   -3.2296    4.9429    3.6676 H   0  0  0  0  0  0  0  0  0  0  0  0
   -3.9518    5.4370    1.3502 H   0  0  0  0  0  0  0  0  0  0  0  0
   -5.6352    5.1547    1.7920 H   0  0  0  0  0  0  0  0  0  0  0  0
   -4.7599    6.5289    2.4810 H   0  0  0  0  0  0  0  0  0  0  0  0
   -1.4002   -3.1888   -2.9372 H   0  0  0  0  0  0  0  0  0  0  0  0
    0.0978   -4.6572   -4.6016 H   0  0  0  0  0  0  0  0  0  0  0  0
    0.8531   -6.1171   -3.9531 H   0  0  0  0  0  0  0  0  0  0  0  0
   -1.2969   -6.6537   -5.0839 H   0  0  0  0  0  0  0  0  0  0  0  0
   -1.4056   -7.0131   -3.3583 H   0  0  0  0  0  0  0  0  0  0  0  0
   -2.1537   -5.5529   -3.9992 H   0  0  0  0  0  0  0  0  0  0  0  0
    2.1509   -6.5720   -2.2285 H   0  0  0  0  0  0  0  0  0  0  0  0
    2.3890   -6.1871   -0.5202 H   0  0  0  0  0  0  0  0  0  0  0  0
    1.5730   -8.5117   -0.7775 H   0  0  0  0  0  0  0  0  0  0  0  0
    0.1414   -7.9345   -1.6359 H   0  0  0  0  0  0  0  0  0  0  0  0
    0.3700   -7.5309    0.0671 H   0  0  0  0  0  0  0  0  0  0  0  0
   -6.5867   -1.8361   -2.7897 H   0  0  0  0  0  0  0  0  0  0  0  0
   -8.4164   -0.2434   -2.8066 H   0  0  0  0  0  0  0  0  0  0  0  0
  1  2  2  0  0  0  0
  2  3  1  0  0  0  0
  3  4  2  0  0  0  0
  3  5  1  0  0  0  0
  5  6  2  0  0  0  0
  6  7  1  0  0  0  0
  7  8  2  0  0  0  0
  8  9  1  0  0  0  0
  9 10  2  0  0  0  0
 10 11  1  0  0  0  0
 11 12  2  0  0  0  0
 12 13  1  0  0  0  0
 13 14  3  0  0  0  0
 12 15  1  0  0  0  0
 15 16  3  0  0  0  0
  8 17  1  0  0  0  0
 17 18  1  0  0  0  0
 18 19  1  0  0  0  0
 19 20  2  0  0  0  0
 20 21  1  0  0  0  0
 21 22  1  0  0  0  0
 21 23  1  0  0  0  0
  1 24  1  0  0  0  0
 24 25  1  0  0  0  0
 25 26  2  0  0  0  0
 26 27  1  0  0  0  0
 27 28  1  0  0  0  0
 28 29  1  0  0  0  0
 29 30  1  0  0  0  0
 30 31  2  0  0  0  0
 31 32  1  0  0  0  0
 32 33  1  0  0  0  0
 33 34  1  0  0  0  0
 32 35  2  0  0  0  0
 35 36  1  0  0  0  0
 36 37  1  0  0  0  0
 35 38  1  0  0  0  0
 29 39  2  0  0  0  0
 39 40  1  0  0  0  0
 40 41  2  0  0  0  0
 41 42  1  0  0  0  0
 42 43  2  0  0  0  0
 43 44  1  0  0  0  0
 44 45  1  0  0  0  0
 45 46  1  0  0  0  0
 44 47  2  0  0  0  0
 47 48  1  0  0  0  0
 47 49  1  0  0  0  0
 49 50  1  0  0  0  0
 41 51  1  0  0  0  0
 51 52  2  0  0  0  0
 52 53  1  0  0  0  0
 40 54  1  0  0  0  0
 54 55  1  0  0  0  0
 55 56  1  0  0  0  0
 56 57  2  0  0  0  0
 57 58  1  0  0  0  0
 58 59  1  0  0  0  0
 57 60  1  0  0  0  0
 60 61  2  0  0  0  0
 61 62  1  0  0  0  0
 62 63  2  0  0  0  0
 62 64  1  0  0  0  0
 64 65  2  0  0  0  0
 65 66  1  0  0  0  0
 65 67  1  0  0  0  0
 67 68  1  0  0  0  0
 67 69  2  0  0  0  0
 69 70  1  0  0  0  0
 69 71  1  0  0  0  0
 71 72  1  0  0  0  0
 71 73  2  0  0  0  0
 73 74  1  0  0  0  0
 74 75  2  0  0  0  0
 75 76  1  0  0  0  0
 76 77  3  0  0  0  0
 75 78  1  0  0  0  0
 78 79  3  0  0  0  0
 11  2  1  0  0  0  0
 23 17  1  0  0  0  0
 53 24  1  0  0  0  0
 59 55  2  0  0  0  0
 74 61  1  0  0  0  0
 10  5  1  0  0  0  0
 22 18  1  0  0  0  0
 52 26  1  0  0  0  0
 73 64  1  0  0  0  0
 23  7  1  0  0  0  0
 51 28  1  0  0  0  0
 38 30  1  0  0  0  0
 59 39  1  0  0  0  0
 48 42  1  0  0  0  0
  1 80  1  0  0  0  0
  6 81  1  0  0  0  0
  9 82  1  0  0  0  0
 17 83  1  0  0  0  0
 18 84  1  0  0  0  0
 19 85  1  0  0  0  0
 20 86  1  0  0  0  0
 21 87  1  0  0  0  0
 22 88  1  0  0  0  0
 22 89  1  0  0  0  0
 23 90  1  0  0  0  0
 24 91  1  0  0  0  0
 25 92  1  0  0  0  0
 28 93  1  0  0  0  0
 31 94  1  0  0  0  0
 33 95  1  0  0  0  0
 33 96  1  0  0  0  0
 34 97  1  0  0  0  0
 34 98  1  0  0  0  0
 34 99  1  0  0  0  0
 36100  1  0  0  0  0
 36101  1  0  0  0  0
 37102  1  0  0  0  0
 37103  1  0  0  0  0
 37104  1  0  0  0  0
 43105  1  0  0  0  0
 45106  1  0  0  0  0
 45107  1  0  0  0  0
 46108  1  0  0  0  0
 46109  1  0  0  0  0
 46110  1  0  0  0  0
 49111  1  0  0  0  0
 49112  1  0  0  0  0
 50113  1  0  0  0  0
 50114  1  0  0  0  0
 50115  1  0  0  0  0
 56116  1  0  0  0  0
 60117  1  0  0  0  0
M  END
