117

C          2.56280       -2.28630       -4.81140
C          3.69260       -1.64230       -4.46520
C          3.92660       -0.82480       -3.23890
O          3.17970       -0.66570       -2.29930
C          5.26820       -0.24440       -3.39010
C          5.89520        0.62980       -2.50350
C          7.13690        1.04810       -2.91360
C          7.71740        0.62460       -4.11890
C          7.11730       -0.24650       -4.99460
C          5.84860       -0.68580       -4.59720
C          4.92470       -1.59530       -5.26080
C          5.18290       -2.29290       -6.40660
C          6.39320       -2.21770       -7.13320
N          7.34150       -2.20930       -7.77920
C          4.31410       -3.20750       -7.04390
N          3.68740       -3.96600       -7.63530
C          8.95440        1.46010       -3.90780
C          9.07470        2.77980       -4.71010
C          7.66640        3.23160       -5.00830
C          7.11880        3.63020       -3.86800
C          8.14700        3.45490       -2.77740
C          9.43240        3.74500       -3.56860
C          8.30940        1.92900       -2.56540
C          1.26600       -2.32350       -4.08180
C          0.62650       -0.98070       -3.89130
C          0.33680       -0.67950       -2.62330
S         -0.45680        0.68850       -1.89680
C         -0.23940        0.00400       -0.19320
C         -1.50380       -0.06620        0.62460
C         -2.50520        0.91510        0.35740
C         -2.28940        2.21540       -0.04010
C         -3.46560        2.94510       -0.29090
C         -3.42930        4.37240       -0.74200
C         -2.97150        4.46460       -2.19840
C         -4.59500        2.18680       -0.11440
C         -6.02560        2.55750       -0.30100
C         -6.48460        2.31890       -1.74150
S         -4.21160        0.57090        0.36330
C         -1.54040       -1.01760        1.61960
C         -0.47370       -1.99370        1.76570
C          0.49560       -2.18220        0.82030
C          1.55570       -3.14780        0.87750
C          2.78960       -3.01830        0.29290
C          3.64790       -4.11490        0.51400
C          5.04460       -4.14570       -0.02780
C          6.02880       -3.50240        0.94980
C          3.06410       -5.08630        1.28120
S          1.44750       -4.65410        1.73770
C          3.62730       -6.37450        1.77550
C          3.92510       -6.30970        3.27530
C          0.40420       -1.34330       -0.35190
C          0.70750       -1.65640       -1.62770
S          1.44810       -3.04140       -2.37380
S         -0.61620       -2.94170        3.24170
C         -2.07390       -2.08780        3.66370
C         -2.91270       -2.14730        4.75780
C         -3.96220       -1.22590        4.67100
S         -3.86080       -0.28740        3.18900
C         -2.44890       -1.13300        2.71060
C         -4.95650       -1.12260        5.64840
C         -6.06440       -0.30610        5.71260
C         -6.44890        0.69060        4.71390
O         -5.86390        0.99060        3.68860
C         -7.71560        1.28250        5.19490
C         -8.07190        0.68670        6.41830
C         -9.23290        1.08010        7.06350
C        -10.02100        2.06060        6.47690
C         -9.66490        2.64340        5.27120
Br       -10.78130        3.97250        4.52190
C         -8.49570        2.26160        4.60430
Cl        -8.04780        2.97870        3.11620
C         -7.05200       -0.30400        6.76870
C         -7.06700       -1.07190        7.90680
C         -6.09510       -2.02510        8.27500
N         -5.35310       -2.81530        8.65590
C         -8.07610       -1.01120        8.89000
N         -8.86140       -1.01180        9.72780
H          2.56170       -2.83950       -5.74120
H          5.40960        0.93180       -1.58860
H          7.57900       -0.56020       -5.91550
H          9.89520        0.91590       -3.86090
H          9.75290        2.73190       -5.55760
H          7.20920        3.16560       -5.97830
H          6.11210        3.96300       -3.69440
H          7.98120        4.02210       -1.86540
H         10.34160        3.47000       -3.03600
H          9.49810        4.78040       -3.89860
H          8.82800        1.69080       -1.63900
H          0.58680       -2.99800       -4.61430
H          0.43130       -0.36090       -4.74690
H          0.45840        0.69540        0.30370
H         -1.30870        2.65440       -0.09610
H         -4.41440        4.82810       -0.63880
H         -2.73050        4.92710       -0.11110
H         -3.66600        3.93940       -2.84980
H         -1.98990        4.01220       -2.31750
H         -2.91890        5.50410       -2.51350
H         -6.63580        1.95600        0.37530
H         -6.16750        3.60940       -0.04290
H         -5.90840        2.93080       -2.43110
H         -6.34910        1.27400       -2.01040
H         -7.53640        2.57260       -1.84710
H          3.08410       -2.14290       -0.25860
H          5.06250       -3.59660       -0.97190
H          5.35020       -5.17370       -0.23030
H          7.03270       -3.49710        0.53100
H          6.04740       -4.05310        1.88720
H          5.73420       -2.47680        1.16040
H          4.54360       -6.60480        1.22940
H          2.90970       -7.17800        1.59200
H          3.01230       -6.10470        3.82970
H          4.64100       -5.51900        3.48790
H          4.33790       -7.25470        3.61920
H         -2.79050       -2.81720        5.58940
H         -4.81750       -1.81550        6.46920
H         -9.53900        0.64730        8.00080
H        -10.93000        2.37850        6.96390
