144

C          2.16820       -2.12080       -2.47240
C          3.18680       -1.42140       -3.02030
C          3.74770       -0.15550       -2.46320
O          3.66850        0.24710       -1.32380
C          4.53920        0.43310       -3.55950
C          5.11650        1.70050       -3.59080
C          5.73510        2.00420       -4.77890
C          5.78510        1.11000       -5.85780
C          5.23990       -0.15010       -5.83400
C          4.60410       -0.48000       -4.63250
C          3.89190       -1.69730       -4.26290
C          3.89420       -2.87480       -4.95840
C          4.60460       -3.08760       -6.15880
N          5.16110       -3.32570       -7.13430
C          3.23060       -4.05150       -4.54950
N          2.72580       -5.04610       -4.27750
C          6.54680        2.07730       -6.72860
C          8.06600        1.83820       -6.90990
C          8.53350        1.10010       -5.67980
C          8.48890        1.94580       -4.65910
C          7.99010        3.27090       -5.18050
C          8.59080        3.24820       -6.59520
C          6.49340        3.07270       -5.52660
C          1.30730       -1.58460       -1.44740
C          0.75280       -2.37170       -0.46590
C         -0.09840       -1.83710        0.51880
C         -0.42110       -0.46580        0.53620
C          0.13310        0.36410       -0.48650
C          0.93130       -0.20190       -1.51200
N          1.23130        0.53780       -2.58080
C          0.92970        1.81910       -2.60460
C          1.07760        2.49190       -3.86740
C          0.44920        3.60400       -4.36430
C          0.84110        3.91260       -5.67800
C          1.75860        3.04100       -6.18990
C          2.44110        3.09460       -7.51450
C          2.56060        1.71890       -8.16470
S          2.13180        1.78980       -5.05610
C          0.43190        2.44230       -1.41120
C          0.42140        3.86100       -1.15740
C         -0.42020        4.51700       -0.29810
C         -0.12860        5.88750       -0.18500
C          0.94510        6.27750       -0.93020
C          1.57230        7.62600       -1.01400
C          2.87360        7.67960       -0.21000
S          1.61600        4.94320       -1.80930
N         -0.03080        1.68580       -0.43990
C         -1.27560        0.07340        1.51130
C         -1.82980       -0.70020        2.51290
C         -1.44340       -2.08780        2.57760
N         -1.73970       -2.82930        3.64630
C         -1.42510       -4.11200        3.67260
C         -1.45870       -4.75560        4.95690
C         -2.00320       -4.24350        6.10890
C         -1.77320       -5.04770        7.23460
C         -1.03810       -6.16540        6.96280
C         -0.55860       -7.20990        7.90960
C          0.93530       -7.04470        8.19920
S         -0.62630       -6.25120        5.28430
C         -0.97800       -4.73860        2.45830
N         -0.51850       -3.98500        1.48250
C         -0.65930       -2.65930        1.54130
C         -1.02540       -6.15150        2.19800
C         -1.89940       -7.10480        2.65350
C         -1.68280       -8.36390        2.07080
C         -0.65220       -8.37810        1.17500
C         -0.15570       -9.52380        0.36310
C         -0.51660       -9.35570       -1.11450
S          0.05870       -6.81090        1.01240
C         -2.72410       -0.24190        3.53140
C         -3.50020        0.87200        3.64360
C         -3.76330        1.95940        2.66310
O         -3.14410        2.26570        1.66620
C         -4.97510        2.65020        3.14450
C         -5.65980        3.67290        2.48960
C         -6.76880        4.12310        3.16290
C         -7.16860        3.59650        4.39940
C         -6.49730        2.59650        5.06010
C         -5.36270        2.12420        4.39060
C         -4.40760        1.08900        4.76770
C         -4.34350        0.49150        5.99710
C         -3.36920       -0.43460        6.42620
N         -2.62590       -1.17060        6.90100
C         -5.23290        0.75930        7.06030
N         -5.91700        0.91940        7.96850
C         -8.37170        4.50210        4.48660
C         -9.73890        3.86520        4.15920
C        -10.62700        5.05070        3.85760
C        -10.24840        5.55150        2.68860
C         -9.09810        4.71260        2.18020
C         -9.50580        3.34190        2.73590
C         -7.92520        5.09060        3.10990
H          1.90600       -3.09870       -2.85440
H          5.04090        2.36470       -2.74400
H          5.28320       -0.82620       -6.67210
H          6.05970        2.36900       -7.65720
H          8.34320        1.40150       -7.86550
H          8.78540        0.05600       -5.66820
H          8.69600        1.74950       -3.62350
H          8.19900        4.13990       -4.56190
H          9.67840        3.30160       -6.59160
H          8.18700        4.01840       -7.25120
H          5.97150        4.01780       -5.66670
H          0.99030       -3.42350       -0.40750
H         -0.28650        4.16530       -3.81680
H          0.45950        4.75670       -6.22510
H          3.44510        3.51110       -7.37700
H          1.88700        3.77370       -8.16670
H          3.14670        1.05370       -7.53350
H          1.57560        1.28030       -8.30700
H          3.04750        1.79890       -9.13350
H         -1.22180        4.01440        0.21220
H         -0.69190        6.56650        0.43050
H          1.78650        7.86860       -2.05760
H          0.86990        8.36640       -0.62540
H          2.68060        7.45410        0.83620
H          3.31840        8.66920       -0.27740
H          3.58290        6.95070       -0.59500
H         -1.48750        1.12740        1.44500
H         -2.53170       -3.30850        6.13490
H         -2.13300       -4.80430        8.21830
H         -0.73260       -8.20140        7.48450
H         -1.12450       -7.12900        8.83990
H          1.27060       -7.80810        8.89670
H          1.12980       -6.06630        8.63220
H          1.50870       -7.13620        7.27960
H         -2.68440       -6.90070        3.35980
H         -2.26790       -9.23470        2.30890
H          0.93050       -9.59580        0.45740
H         -0.59560      -10.44610        0.74830
H         -1.59560       -9.29020       -1.23570
H         -0.06780       -8.44790       -1.51010
H         -0.15270      -10.20330       -1.68940
H         -2.82850       -0.98140        4.31910
H         -5.31570        4.04830        1.53840
H         -6.81860        2.20290        6.00970
H         -8.40630        5.16340        5.35020
H        -10.10100        3.15830        4.90060
H        -11.37750        5.42430        4.52930
H        -10.61940        6.42700        2.18880
H         -8.87720        4.77730        1.11810
H         -8.72790        2.58410        2.66300
H        -10.42130        2.96880        2.27970
H         -7.66140        6.14520        3.05530
