106

C          2.44650       -1.67400       -3.59620
C          2.30630       -3.01060       -3.34870
C          1.38470       -3.61530       -2.37350
O          0.60670       -3.04040       -1.63540
C          1.58530       -5.07000       -2.46280
C          0.92610       -6.05000       -1.72350
C          1.32000       -7.33200       -2.02100
C          2.29280       -7.61920       -2.98850
C          2.94780       -6.66190       -3.72620
C          2.56850       -5.34730       -3.43420
C          3.03930       -4.08370       -3.99830
C          4.00700       -3.95880       -4.96140
C          4.69570       -5.04120       -5.54960
N          5.30070       -5.86460       -6.07330
C          4.47420       -2.74780       -5.51410
N          4.91630       -1.81500       -6.01890
C          2.19230       -9.10750       -2.76260
C          3.32180       -9.75650       -1.93510
C          2.72590      -11.06700       -1.47360
C          1.80950      -10.79230       -0.55420
C          1.76960       -9.29120       -0.37960
C          3.24650       -8.95780       -0.62740
C          1.11090       -8.78620       -1.68140
C          1.79410       -0.56390       -3.02330
S          0.56630       -0.58680       -1.77860
C          0.48060        1.13780       -1.81970
C         -0.34450        1.94310       -1.03360
C         -0.31070        3.34420       -1.17640
C          0.57070        3.96740       -2.12720
C          1.41960        3.14860       -2.91840
C          2.30260        3.72910       -3.84000
C          2.32580        5.09710       -3.95600
N          3.06050        5.93700       -4.75690
C          2.70880        7.24870       -4.49800
O          3.16260        8.23470       -5.03010
N          1.72130        7.21480       -3.53120
C          1.12430        8.39950       -2.96730
C          1.71510        8.73380       -1.60070
C          1.47330        5.91230       -3.17340
C          0.60110        5.36210       -2.26710
C          4.10610        5.56560       -5.67710
C          5.39990        5.21590       -4.94750
C          1.35940        1.72040       -2.75440
C          2.08990        0.73530       -3.42060
C         -1.20120        3.94990       -0.28900
C         -1.89560        3.05910        0.52130
S         -1.45510        1.40310        0.17460
C         -2.80770        3.51300        1.49490
C         -3.53730        2.81990        2.41870
C         -3.53060        1.35980        2.60530
O         -2.94280        0.53160        1.93510
C         -4.37870        1.09070        3.77740
C         -4.64000       -0.15150        4.35200
C         -5.44690       -0.09390        5.46250
C         -5.95880        1.11090        5.96360
C         -5.71770        2.34120        5.40000
C         -4.89630        2.30690        4.26820
C         -4.41690        3.39660        3.42060
C         -4.76140        4.71660        3.55600
C         -5.62940        5.21940        4.54860
N         -6.32220        5.70350        5.32570
C         -4.32300        5.77410        2.73150
N         -4.01930        6.69360        2.11290
C         -6.66440        0.42800        7.10830
C         -5.98840        0.53250        8.49220
C         -6.61230       -0.59350        9.28470
C         -6.13290       -1.73570        8.80890
C         -5.17650       -1.40090        7.68710
C         -4.60810       -0.07610        8.21230
C         -6.09740       -0.91560        6.54730
H          3.17030       -1.38970       -4.35040
H          0.17810       -5.78240       -0.99380
H          3.68930       -6.90250       -4.46920
H          1.90360       -9.70000       -3.62850
H          4.28350       -9.80620       -2.43830
H          2.98490      -12.02310       -1.88910
H          1.14980      -11.47260       -0.04830
H          1.31750       -8.91630        0.53460
H          3.44860       -7.89470       -0.74400
H          3.89580       -9.36910        0.14370
H          0.10150       -9.16790       -1.82310
H          2.94600        3.11110       -4.44320
H          0.04360        8.24630       -2.89230
H          1.32400        9.21190       -3.67070
H          2.78150        8.92410       -1.69240
H          1.23580        9.62210       -1.19910
H          1.56700        7.91060       -0.90540
H         -0.04920        5.98430       -1.67610
H          4.26480        6.42800       -6.32960
H          3.76160        4.71870       -6.27790
H          5.75740        6.07760       -4.38930
H          5.23970        4.39380       -4.25340
H          6.16160        4.92510       -5.66530
H          2.82600        0.92820       -4.18060
H         -1.35680        5.01080       -0.20650
H         -2.90720        4.59170        1.50300
H         -4.22360       -1.05360        3.93180
H         -6.12290        3.25630        5.79780
H         -7.74330        0.56270        7.15060
H         -6.01890        1.52210        8.93970
H         -7.35500       -0.45040       10.04730
H         -6.39550       -2.73740        9.09450
H         -4.46700       -2.17300        7.40190
H         -4.01890        0.47510        7.48170
H         -4.02580       -0.21030        9.12240
H         -6.79850       -1.67740        6.21180
