176

C         -3.25910        4.03670       -6.43260
C         -2.42510        5.02250       -6.89770
C         -1.26760        5.59570       -6.20010
O         -0.97190        5.49560       -5.02240
C         -0.49310        6.32310       -7.22130
C          0.73900        6.94870       -7.04690
C          1.23880        7.52400       -8.19020
C          0.56120        7.48500       -9.41590
C         -0.66050        6.88060       -9.59820
C         -1.18500        6.28390       -8.44780
C         -2.43000        5.54360       -8.25030
C         -3.44290        5.42900       -9.16830
C         -4.68220        4.80010       -8.92990
N         -5.72200        4.32670       -8.80490
C         -3.40350        5.96800      -10.47030
N         -3.43730        6.37730      -11.54280
C          1.65350        8.23890      -10.13390
C          2.60080        7.40130      -11.01890
C          3.81430        8.28660      -11.19020
C          4.45450        8.32330      -10.02860
C          3.68430        7.46360       -9.05260
C          3.15510        6.38750      -10.00950
C          2.40770        8.28300       -8.76630
C         -3.31420        3.40810       -5.18160
C         -4.07590        2.25270       -4.93170
C         -4.98400        1.56880       -5.90220
C         -6.34140        2.27290       -5.98130
C         -3.88220        1.80480       -3.63230
S         -4.38370        0.36240       -2.77950
C         -3.39810        0.84050       -1.43660
C         -2.94250        0.21630       -0.23230
C         -3.22920       -1.03180        0.31440
C         -2.53020       -1.40150        1.43990
C         -2.59050       -2.72030        2.19300
C         -3.87380       -2.91830        2.98260
C         -4.10740       -4.15150        3.58000
C         -5.24040       -4.35830        4.34140
C         -6.16960       -3.34180        4.52670
C         -7.38060       -3.55790        5.38760
C         -7.06260       -3.23160        6.84830
C         -5.92480       -2.10970        3.93690
C         -4.78890       -1.89470        3.17630
C         -2.35430       -3.86180        1.22390
C         -1.07560       -4.33690        0.97050
C         -0.87530       -5.36010        0.06210
C         -1.94120       -5.92300       -0.62580
C         -1.72920       -7.06820       -1.57330
C         -1.87790       -8.40170       -0.83780
C         -3.21750       -5.43320       -0.37960
C         -3.42390       -4.41540        0.53140
C         -1.47920       -2.52590        3.18990
C         -0.94980       -1.25220        3.08490
C         -1.56360       -0.53920        2.00840
C         -1.30090        0.72290        1.48330
C         -1.99050        1.08830        0.35170
C         -1.88600        2.38140       -0.43740
C         -2.41200        3.49810        0.44720
C         -3.73670        3.90520        0.38980
C         -4.19820        4.90920        1.22170
C         -3.35300        5.52690        2.13270
C         -3.86380        6.59460        3.05680
C         -4.35040        5.97980        4.37060
C         -2.03110        5.10400        2.19720
C         -1.56490        4.10280        1.36760
C         -0.52900        2.70980       -1.02540
C         -0.29190        4.00540       -1.47120
C          0.86240        4.30710       -2.16320
C          1.80430        3.32360       -2.43800
C          2.99740        3.65070       -3.28880
C          2.58540        3.69110       -4.76240
C          1.57250        2.03660       -1.97390
C          0.41640        1.72760       -1.27730
C         -2.78070        2.06660       -1.60450
C         -3.02660        2.61470       -2.86160
S         -2.40180        3.93280       -3.76410
S          0.32860       -0.92690        4.20120
C          0.18880       -2.55060        4.81560
C          0.93890       -3.29040        5.73890
C          1.97770       -2.70230        6.63400
C          1.45620       -1.47790        7.38520
C          0.49130       -4.60490        5.78920
S         -0.92430       -4.88180        4.76890
C         -0.83620       -3.26910        4.17810
C          0.98490       -5.71020        6.51780
C          2.30360       -5.98540        6.75150
C          3.42560       -5.44110        5.95090
O          3.38750       -4.56980        5.10650
C          4.59860       -6.26370        6.30380
C          5.88320       -6.14790        5.77690
C          6.77990       -7.05680        6.28420
C          6.42530       -8.01880        7.23970
C          5.16240       -8.14420        7.76810
C          4.23510       -7.22370        7.26920
C          2.82320       -7.04340        7.59240
C          2.12990       -7.68990        8.58290
C          0.79820       -7.39230        8.94120
N         -0.27040       -7.17950        9.30430
C          2.66550       -8.70540        9.40030
N          3.04170       -9.54190       10.09110
C          7.81560       -8.60350        7.28330
C          8.03310       -9.92920        6.52360
C          9.53180       -9.99730        6.33730
C          9.86860       -9.08380        5.43580
C          8.60310       -8.38290        4.99730
C          7.60800       -9.54600        5.10010
C          8.21150       -7.52800        6.22130
H         -3.95360        3.62660       -7.15450
H          1.22620        6.95820       -6.08450
H         -1.16920        6.85920      -10.54750
H          1.35750        9.17820      -10.59680
H          2.14880        7.00990      -11.92610
H          4.04380        8.82180      -12.09280
H          5.32550        8.89510       -9.76690
H          4.21860        7.12840       -8.16760
H          3.95590        5.78250      -10.43150
H          2.39960        5.73730       -9.57220
H          2.61550        9.25240       -8.31710
H         -4.53380        1.53310       -6.89570
H         -5.13300        0.54180       -5.56040
H         -6.78760        2.34510       -4.99210
H         -7.01110        1.70940       -6.62510
H         -6.23710        3.27380       -6.39200
H         -3.95410       -1.68460       -0.14700
H         -3.39860       -4.95520        3.44020
H         -5.40680       -5.32380        4.79680
H         -7.70520       -4.59770        5.31460
H         -8.19760       -2.91930        5.04560
H         -6.75120       -2.19380        6.94480
H         -6.25620       -3.86530        7.21040
H         -7.93800       -3.39160        7.47330
H         -6.63240       -1.30380        4.07160
H         -4.62020       -0.92510        2.73080
H         -0.22700       -3.91040        1.48550
H          0.12680       -5.72370       -0.11540
H         -0.73090       -7.00770       -2.01110
H         -2.46120       -7.02000       -2.38210
H         -1.72800       -9.23340       -1.52230
H         -1.14640       -8.47450       -0.03610
H         -2.87110       -8.48440       -0.40210
H         -4.06110       -5.85410       -0.90810
H         -4.42600       -4.05620        0.71680
H         -0.55980        1.36450        1.93390
H         -4.41430        3.44380       -0.31370
H         -5.23090        5.22090        1.15580
H         -4.68890        7.13000        2.58280
H         -3.06810        7.31180        3.26860
H         -5.15160        5.26870        4.18140
H         -4.72270        6.75360        5.03790
H         -3.53760        5.45410        4.86660
H         -1.35630        5.57020        2.90100
H         -0.52880        3.80150        1.41960
H         -1.02190        4.77910       -1.28600
H          1.01940        5.31480       -2.51680
H          3.39840        4.62550       -3.00190
H          3.78050        2.90320       -3.14790
H          3.42480        3.98510       -5.38910
H          2.23890        2.71090       -5.08330
H          1.77230        4.39920       -4.90590
H          2.29560        1.25790       -2.17270
H          0.24360        0.71410       -0.94340
H          2.84460       -2.42500        6.02820
H          2.30180       -3.45590        7.35340
H          0.56700       -1.73500        7.95710
H          2.21740       -1.11990        8.07380
H          1.20830       -0.67140        6.70050
H          0.23990       -6.42970        6.83780
H          6.11360       -5.39290        5.04160
H          4.90250       -8.88930        8.50150
H          8.30780       -8.58380        8.25380
H          7.55600      -10.79540        6.97350
H         10.17790      -10.64300        6.90260
H         10.85190       -8.81390        5.09770
H          8.64470       -7.84020        4.05670
H          7.82130      -10.33470        4.38060
H          6.56510       -9.24660        5.01360
H          8.96700       -6.79010        6.48470
