116

C          2.86870        5.07560        0.39340
C          3.54190        5.77650        1.35650
C          3.70950        5.34220        2.76150
O          3.35170        4.29600        3.26400
C          4.29220        6.49820        3.46970
C          4.63980        6.55990        4.81740
C          5.16990        7.76740        5.20360
C          5.32530        8.84320        4.31920
C          4.97560        8.80020        2.99080
C          4.44860        7.57380        2.57300
C          3.99680        7.14760        1.25160
C          4.07450        7.88680        0.09890
C          3.73200        7.41580       -1.18580
N          3.50000        7.09970       -2.26560
C          4.53550        9.21740        0.03130
N          4.89200       10.30190       -0.09410
C          5.92110        9.73410        5.38080
C          7.45160        9.92710        5.33560
C          7.79580       10.41850        6.72300
C          7.65270        9.39840        7.55940
C          7.20920        8.20030        6.75120
C          7.95050        8.47980        5.43740
C          5.75180        8.53310        6.36590
C          2.58330        3.69450        0.38840
C          3.30850        2.60490        0.86290
C          4.68470        2.69170        1.43050
C          5.64290        1.66720        0.82770
C          2.62720        1.40420        0.61430
C          1.41290        1.55830       -0.07150
S          1.10360        3.20950       -0.44430
C          0.76220        0.33890       -0.27160
C          1.48060       -0.73450        0.26860
S          2.96170       -0.26590        1.01950
C          0.76140       -1.90770       -0.01920
C          1.08590       -3.27680        0.17100
N          2.20610       -3.63540        0.80960
C          2.48890       -4.91790        0.89340
C          3.73800       -5.29060        1.62050
C          1.64230       -5.89600        0.31320
C          1.96330       -7.35220        0.37960
N          0.53090       -5.55610       -0.30430
C          0.22340       -4.25560       -0.37920
C         -0.99740       -3.82730       -0.96410
C         -2.08440       -4.55080       -1.48490
S         -2.51530       -6.18590       -1.82920
C         -4.07010       -5.63940       -2.41840
C         -5.15500       -6.30370       -3.00610
C         -5.28950       -7.78700       -3.08130
C         -4.99360       -8.46610       -1.74510
C         -6.14390       -5.40080       -3.38650
S         -5.75700       -3.74070       -2.92160
C         -4.22490       -4.24740       -2.32350
C         -3.09180       -3.62770       -1.79380
N         -2.66760       -2.35220       -1.50460
C         -3.62260       -1.31610       -1.16450
C         -4.53150       -1.75260       -0.01580
C         -1.37300       -2.46060       -1.02970
C         -0.41320       -1.48860       -0.69530
N         -0.39110       -0.11570       -0.86640
C         -0.98650        0.62480       -1.96130
C          0.01170        0.83000       -3.10050
C         -7.38420       -5.59840       -4.02510
C         -7.66740       -6.51260       -5.00540
C         -6.64620       -7.16220       -5.86980
O         -5.43960       -7.08840       -5.77500
C         -7.42020       -7.81600       -6.93650
C         -7.16100       -8.55530       -8.04350
S         -8.62620       -8.98270       -8.85020
C         -9.59550       -8.15320       -7.68880
C         -8.81780       -7.58070       -6.73030
C         -8.99060       -6.78790       -5.53030
C        -10.19990       -6.44300       -4.98290
C        -11.41200       -6.79710       -5.60830
N        -12.40440       -7.07480       -6.11380
C        -10.37310       -5.74990       -3.77000
N        -10.57500       -5.20360       -2.77990
H          2.45790        5.62730       -0.44460
H          4.49450        5.71010        5.46580
H          5.09150        9.63930        2.32550
H          5.38100       10.65640        5.58580
H          7.81040       10.52370        4.50140
H          8.04560       11.43750        6.95380
H          7.75900        9.39490        8.62840
H          7.34830        7.22380        7.20740
H          9.03150        8.42460        5.55510
H          7.64170        7.84450        4.60930
H          5.10060        8.65450        7.22960
H          4.62230        2.54960        2.51350
H          5.07540        3.69650        1.25600
H          5.65220        1.74680       -0.25730
H          5.36230        0.65410        1.10000
H          6.64920        1.85280        1.19500
H          4.22170       -4.38820        1.98310
H          4.41880       -5.82490        0.95930
H          3.50770       -5.94120        2.46290
H          2.92370       -7.55200       -0.09340
H          1.18560       -7.91230       -0.13140
H          2.02400       -7.68140        1.41600
H         -4.60330       -8.15900       -3.84730
H         -6.30360       -8.03900       -3.39590
H         -5.18240       -9.53320       -1.83020
H         -5.63620       -8.06360       -0.96480
H         -3.95780       -8.32440       -1.45100
H         -3.08110       -0.42530       -0.85120
H         -4.22590       -1.08890       -2.04940
H         -5.14060       -2.60580       -0.30000
H         -3.93470       -2.02160        0.85320
H         -5.19240       -0.93370        0.25380
H         -1.83730        0.06840       -2.34870
H         -1.32370        1.59470       -1.58250
H          0.38100       -0.13080       -3.45290
H         -0.47890        1.33990       -3.92470
H          0.85600        1.43240       -2.77800
H         -8.16410       -4.89840       -3.74580
H         -6.21770       -8.88010       -8.43440
H        -10.66110       -8.14370       -7.80050
