103

C          1.49820       -3.47800        3.93870
C          0.80900       -4.47670        4.55910
C         -0.60230       -4.89320        4.35700
O         -1.34620       -4.63040        3.43570
C         -0.94700       -5.71200        5.53210
C         -2.20440       -6.22750        5.84260
C         -2.24270       -6.93550        7.01890
C         -1.11340       -7.11880        7.83000
C          0.13200       -6.61860        7.53470
C          0.19380       -5.89540        6.33840
C          1.31940       -5.21570        5.70760
C          2.62880       -5.31840        6.09400
C          3.73070       -4.74000        5.42640
N          4.68270       -4.32570        4.93570
C          3.07370       -6.07170        7.20190
N          3.50640       -6.65860        8.08830
C         -1.88050       -7.91720        8.85420
C         -1.68440       -9.44790        8.82580
C         -2.88260       -9.97880        9.57930
C         -3.95130       -9.80530        8.81220
C         -3.49370       -9.15410        7.52700
C         -2.10380       -9.78870        7.38990
C         -3.13850       -7.71290        7.95010
C          1.13930       -2.62920        2.86540
C          0.09390       -2.64610        1.96200
C          0.15020       -1.56140        1.09030
S         -0.85640       -1.05220       -0.23040
C          0.17470        0.33980       -0.48990
C         -0.01110        1.27510       -1.49860
C         -1.08470        1.18350       -2.47180
C         -0.96840        1.25670       -3.83000
C         -2.21460        1.17010       -4.48370
Cl        -2.36820        1.25040       -6.19060
C         -3.28220        1.04100       -3.64220
C         -4.71940        0.88630       -3.99620
C         -5.06980       -0.58740       -4.21870
S         -2.74680        0.99580       -2.00000
C          0.90940        2.33620       -1.55730
C          2.00810        2.39140       -0.66270
C          2.20420        1.44740        0.33410
C          3.31480        1.53520        1.26850
S          4.95890        1.59830        0.70740
C          5.57160        1.66780        2.32280
C          7.03520        1.66830        2.59250
C          7.59020        0.24150        2.58540
C          4.54180        1.64690        3.21800
C          3.26000        1.57430        2.62990
Cl         4.76940        1.70110        4.92190
C          1.26220        0.40700        0.42040
C          1.22550       -0.69700        1.30700
S          2.21210       -1.25360        2.59660
S          3.00690        3.81630       -0.88980
C          1.92540        4.38350       -2.12970
C          1.85310        5.53990       -2.88690
C          0.72760        5.55870       -3.71330
S         -0.23140        4.09630       -3.53810
C          0.87510        3.49150       -2.37580
C          0.42710        6.64540       -4.55100
C         -0.62160        6.83330       -5.41310
C         -1.68640        5.86810       -5.70220
O         -1.89410        4.80230       -5.15710
C         -2.45830        6.43810       -6.82520
C         -3.49640        5.85840       -7.53330
Cl        -4.15780        4.35770       -7.07060
C         -3.98560        6.53610       -8.65940
Cl        -5.29150        5.88230       -9.54700
C         -3.37850        7.71850       -9.08070
Cl        -3.92780        8.47430      -10.51280
C         -2.31580        8.29370       -8.36290
Cl        -1.50810        9.64160       -9.04820
C         -1.90440        7.68410       -7.18420
C         -0.88270        8.03080       -6.19780
C         -0.42590        9.28870       -5.90820
C         -0.97140       10.49830       -6.39370
N         -1.40630       11.53180       -6.63600
C          0.55780        9.58260       -4.93690
N          1.35950        9.90680       -4.18190
H          2.46920       -3.23420        4.35520
H         -3.04830       -6.05570        5.19310
H          0.98720       -6.75660        8.17480
H         -1.89050       -7.50820        9.86260
H         -0.70710       -9.78750        9.15720
H         -2.83900      -10.36240       10.58170
H         -4.97870      -10.01450        9.04580
H         -4.16480       -9.22650        6.67550
H         -1.47990       -9.33090        6.62440
H         -2.15720      -10.86290        7.22120
H         -3.98830       -7.16660        8.35510
H         -0.66650       -3.40410        1.95050
H         -0.03160        1.33850       -4.34950
H         -5.33910        1.29230       -3.19500
H         -4.91780        1.44970       -4.91040
H         -4.46930       -0.99910       -5.02610
H         -4.87820       -1.16200       -3.31530
H         -6.11990       -0.68680       -4.48010
H          7.54720        2.26200        1.83290
H          7.21110        2.12430        3.56880
H          7.09240       -0.36170        3.34050
H          7.43220       -0.22040        1.61360
H          8.65600        0.25430        2.79680
H          2.34720        1.58340        3.19620
H          2.56040        6.34810       -2.84390
H          1.16440        7.43740       -4.49870
