
  xtb     02112206403D
 energy: -206.230882150394 gnorm: 0.000456833761 xtb: 6.4.1 (unknown)
119134  0     0  0            999 V2000
   -5.5711    3.0937    2.8200 C   0  0  0  0  0  0  0  0  0  0  0  0
   -5.0816    4.0795    3.6414 C   0  0  0  0  0  0  0  0  0  0  0  0
   -3.6705    4.3698    3.9068 C   0  0  0  0  0  0  0  0  0  0  0  0
   -2.6932    3.8581    3.3850 O   0  0  0  0  0  0  0  0  0  0  0  0
   -3.6492    5.4091    4.9502 C   0  0  0  0  0  0  0  0  0  0  0  0
   -2.5257    5.9676    5.5556 C   0  0  0  0  0  0  0  0  0  0  0  0
   -2.8175    6.9000    6.5221 C   0  0  0  0  0  0  0  0  0  0  0  0
   -4.1305    7.2466    6.8658 C   0  0  0  0  0  0  0  0  0  0  0  0
   -5.2473    6.7047    6.2745 C   0  0  0  0  0  0  0  0  0  0  0  0
   -4.9732    5.7588    5.2821 C   0  0  0  0  0  0  0  0  0  0  0  0
   -5.8847    4.9754    4.4484 C   0  0  0  0  0  0  0  0  0  0  0  0
   -7.2504    5.1115    4.4291 C   0  0  0  0  0  0  0  0  0  0  0  0
   -8.1391    4.3952    3.6014 C   0  0  0  0  0  0  0  0  0  0  0  0
   -8.9319    3.8637    2.9608 N   0  0  0  0  0  0  0  0  0  0  0  0
   -7.9742    6.0212    5.2274 C   0  0  0  0  0  0  0  0  0  0  0  0
   -8.6333    6.7358    5.8392 N   0  0  0  0  0  0  0  0  0  0  0  0
   -3.6812    8.2341    7.9140 C   0  0  0  0  0  0  0  0  0  0  0  0
   -3.7568    9.7275    7.5324 C   0  0  0  0  0  0  0  0  0  0  0  0
   -2.8295   10.4003    8.5187 C   0  0  0  0  0  0  0  0  0  0  0  0
   -1.5859   10.0752    8.1896 C   0  0  0  0  0  0  0  0  0  0  0  0
   -1.6517    9.1768    6.9755 C   0  0  0  0  0  0  0  0  0  0  0  0
   -2.8801    9.7707    6.2741 C   0  0  0  0  0  0  0  0  0  0  0  0
   -2.2165    7.8507    7.5277 C   0  0  0  0  0  0  0  0  0  0  0  0
   -4.9120    2.1545    2.0201 C   0  0  0  0  0  0  0  0  0  0  0  0
   -5.5892    1.1742    1.2737 C   0  0  0  0  0  0  0  0  0  0  0  0
   -7.0717    1.0236    1.1666 C   0  0  0  0  0  0  0  0  0  0  0  0
   -7.6422    1.9804    0.1162 C   0  0  0  0  0  0  0  0  0  0  0  0
   -4.7020    0.3620    0.5804 C   0  0  0  0  0  0  0  0  0  0  0  0
   -3.3499    0.6954    0.7727 C   0  0  0  0  0  0  0  0  0  0  0  0
   -3.1602    2.0393    1.8341 S   0  0  0  0  0  0  0  0  0  0  0  0
   -2.5137   -0.1715    0.0649 C   0  0  0  0  0  0  0  0  0  0  0  0
   -3.2249   -1.1369   -0.6551 C   0  0  0  0  0  0  0  0  0  0  0  0
   -4.9402   -1.0140   -0.4822 S   0  0  0  0  0  0  0  0  0  0  0  0
   -2.2823   -1.9164   -1.3409 C   0  0  0  0  0  0  0  0  0  0  0  0
   -2.4875   -2.9632   -2.2771 C   0  0  0  0  0  0  0  0  0  0  0  0
   -3.7205   -3.3885   -2.5772 N   0  0  0  0  0  0  0  0  0  0  0  0
   -3.8426   -4.3303   -3.4889 C   0  0  0  0  0  0  0  0  0  0  0  0
   -5.2260   -4.7955   -3.8023 C   0  0  0  0  0  0  0  0  0  0  0  0
   -2.7077   -4.8729   -4.1424 C   0  0  0  0  0  0  0  0  0  0  0  0
   -2.8338   -5.9280   -5.1909 C   0  0  0  0  0  0  0  0  0  0  0  0
   -1.4906   -4.4687   -3.8454 N   0  0  0  0  0  0  0  0  0  0  0  0
   -1.3566   -3.5206   -2.9103 C   0  0  0  0  0  0  0  0  0  0  0  0
   -0.0734   -3.0826   -2.4927 C   0  0  0  0  0  0  0  0  0  0  0  0
    1.1931   -3.5575   -2.8590 C   0  0  0  0  0  0  0  0  0  0  0  0
    1.8910   -4.7257   -3.9248 S   0  0  0  0  0  0  0  0  0  0  0  0
    3.4730   -4.3175   -3.2856 C   0  0  0  0  0  0  0  0  0  0  0  0
    4.7486   -4.7839   -3.5738 C   0  0  0  0  0  0  0  0  0  0  0  0
    5.0070   -5.8766   -4.5592 C   0  0  0  0  0  0  0  0  0  0  0  0
    5.0919   -7.2346   -3.8572 C   0  0  0  0  0  0  0  0  0  0  0  0
    5.7196   -4.1380   -2.7894 C   0  0  0  0  0  0  0  0  0  0  0  0
    5.0100   -2.9433   -1.7022 S   0  0  0  0  0  0  0  0  0  0  0  0
    3.4374   -3.3205   -2.2945 C   0  0  0  0  0  0  0  0  0  0  0  0
    2.1297   -2.8886   -2.0622 C   0  0  0  0  0  0  0  0  0  0  0  0
    1.4894   -2.0095   -1.2300 N   0  0  0  0  0  0  0  0  0  0  0  0
    2.2088   -1.4238   -0.1222 C   0  0  0  0  0  0  0  0  0  0  0  0
    3.0136   -0.1950   -0.5424 C   0  0  0  0  0  0  0  0  0  0  0  0
    0.1361   -2.0902   -1.4903 C   0  0  0  0  0  0  0  0  0  0  0  0
   -0.9980   -1.4138   -0.9825 C   0  0  0  0  0  0  0  0  0  0  0  0
   -1.1646   -0.3387   -0.1237 N   0  0  0  0  0  0  0  0  0  0  0  0
   -0.3069    0.8026    0.1151 C   0  0  0  0  0  0  0  0  0  0  0  0
   -0.2700    1.7190   -1.1064 C   0  0  0  0  0  0  0  0  0  0  0  0
    7.0866   -4.4235   -2.8738 C   0  0  0  0  0  0  0  0  0  0  0  0
    8.1611   -3.8906   -2.2082 C   0  0  0  0  0  0  0  0  0  0  0  0
    8.1358   -2.8149   -1.2029 C   0  0  0  0  0  0  0  0  0  0  0  0
    7.1658   -2.2209   -0.7667 O   0  0  0  0  0  0  0  0  0  0  0  0
    9.5391   -2.5946   -0.8331 C   0  0  0  0  0  0  0  0  0  0  0  0
   10.3383   -3.4731   -1.5525 C   0  0  0  0  0  0  0  0  0  0  0  0
   12.0240   -3.3207   -1.2133 S   0  0  0  0  0  0  0  0  0  0  0  0
   11.6680   -2.0511   -0.0835 C   0  0  0  0  0  0  0  0  0  0  0  0
   12.4565   -1.2407    0.7543 C   0  0  0  0  0  0  0  0  0  0  0  0
   11.6840   -0.3743    1.4619 C   0  0  0  0  0  0  0  0  0  0  0  0
    9.9892   -0.5123    1.1385 S   0  0  0  0  0  0  0  0  0  0  0  0
   10.2974   -1.7758    0.0108 C   0  0  0  0  0  0  0  0  0  0  0  0
    9.5411   -4.3007   -2.4158 C   0  0  0  0  0  0  0  0  0  0  0  0
   10.0479   -5.2715   -3.2469 C   0  0  0  0  0  0  0  0  0  0  0  0
    9.3017   -6.1051   -4.0985 C   0  0  0  0  0  0  0  0  0  0  0  0
    8.7530   -6.8178   -4.8142 N   0  0  0  0  0  0  0  0  0  0  0  0
   11.4352   -5.5155   -3.3057 C   0  0  0  0  0  0  0  0  0  0  0  0
   12.5630   -5.7220   -3.3617 N   0  0  0  0  0  0  0  0  0  0  0  0
   -6.6479    2.9985    2.7884 H   0  0  0  0  0  0  0  0  0  0  0  0
   -1.5318    5.6631    5.2671 H   0  0  0  0  0  0  0  0  0  0  0  0
   -6.2498    6.9778    6.5575 H   0  0  0  0  0  0  0  0  0  0  0  0
   -4.0210    8.0359    8.9287 H   0  0  0  0  0  0  0  0  0  0  0  0
   -4.7642   10.1270    7.4560 H   0  0  0  0  0  0  0  0  0  0  0  0
   -3.1652   10.9785    9.3594 H   0  0  0  0  0  0  0  0  0  0  0  0
   -0.6752   10.3275    8.7006 H   0  0  0  0  0  0  0  0  0  0  0  0
   -0.7408    9.0763    6.3914 H   0  0  0  0  0  0  0  0  0  0  0  0
   -3.2564    9.1667    5.4505 H   0  0  0  0  0  0  0  0  0  0  0  0
   -2.7052   10.7884    5.9292 H   0  0  0  0  0  0  0  0  0  0  0  0
   -1.5789    7.3997    8.2860 H   0  0  0  0  0  0  0  0  0  0  0  0
   -7.5564    1.2098    2.1260 H   0  0  0  0  0  0  0  0  0  0  0  0
   -7.2874   -0.0042    0.8677 H   0  0  0  0  0  0  0  0  0  0  0  0
   -7.4568    3.0145    0.3962 H   0  0  0  0  0  0  0  0  0  0  0  0
   -7.1857    1.7931   -0.8530 H   0  0  0  0  0  0  0  0  0  0  0  0
   -8.7155    1.8365    0.0321 H   0  0  0  0  0  0  0  0  0  0  0  0
   -5.3218   -5.8624   -3.6057 H   0  0  0  0  0  0  0  0  0  0  0  0
   -5.9337   -4.2498   -3.1849 H   0  0  0  0  0  0  0  0  0  0  0  0
   -5.4565   -4.6252   -4.8530 H   0  0  0  0  0  0  0  0  0  0  0  0
   -3.3154   -6.8152   -4.7822 H   0  0  0  0  0  0  0  0  0  0  0  0
   -1.8437   -6.1900   -5.5529 H   0  0  0  0  0  0  0  0  0  0  0  0
   -3.4397   -5.5689   -6.0215 H   0  0  0  0  0  0  0  0  0  0  0  0
    5.9300   -5.6967   -5.1121 H   0  0  0  0  0  0  0  0  0  0  0  0
    4.1792   -5.8949   -5.2709 H   0  0  0  0  0  0  0  0  0  0  0  0
    5.9125   -7.2489   -3.1439 H   0  0  0  0  0  0  0  0  0  0  0  0
    5.2613   -8.0179   -4.5904 H   0  0  0  0  0  0  0  0  0  0  0  0
    4.1658   -7.4444   -3.3271 H   0  0  0  0  0  0  0  0  0  0  0  0
    1.5032   -1.2059    0.6808 H   0  0  0  0  0  0  0  0  0  0  0  0
    2.9069   -2.1809    0.2515 H   0  0  0  0  0  0  0  0  0  0  0  0
    3.4557    0.2723    0.3329 H   0  0  0  0  0  0  0  0  0  0  0  0
    3.8182   -0.4924   -1.2095 H   0  0  0  0  0  0  0  0  0  0  0  0
    2.3918    0.5321   -1.0580 H   0  0  0  0  0  0  0  0  0  0  0  0
    0.6983    0.4922    0.3790 H   0  0  0  0  0  0  0  0  0  0  0  0
   -0.7305    1.3423    0.9662 H   0  0  0  0  0  0  0  0  0  0  0  0
    0.1231    1.1885   -1.9718 H   0  0  0  0  0  0  0  0  0  0  0  0
   -1.2714    2.0702   -1.3448 H   0  0  0  0  0  0  0  0  0  0  0  0
    0.3592    2.5809   -0.9030 H   0  0  0  0  0  0  0  0  0  0  0  0
    7.3200   -5.1967   -3.5939 H   0  0  0  0  0  0  0  0  0  0  0  0
   13.5265   -1.2988    0.8250 H   0  0  0  0  0  0  0  0  0  0  0  0
   12.0114    0.3578    2.1733 H   0  0  0  0  0  0  0  0  0  0  0  0
  1  2  2  0  0  0  0
  2  3  1  0  0  0  0
  3  4  2  0  0  0  0
  3  5  1  0  0  0  0
  5  6  2  0  0  0  0
  6  7  1  0  0  0  0
  7  8  2  0  0  0  0
  8  9  1  0  0  0  0
  9 10  2  0  0  0  0
 10 11  1  0  0  0  0
 11 12  2  0  0  0  0
 12 13  1  0  0  0  0
 13 14  3  0  0  0  0
 12 15  1  0  0  0  0
 15 16  3  0  0  0  0
  8 17  1  0  0  0  0
 17 18  1  0  0  0  0
 18 19  1  0  0  0  0
 19 20  2  0  0  0  0
 20 21  1  0  0  0  0
 21 22  1  0  0  0  0
 21 23  1  0  0  0  0
  1 24  1  0  0  0  0
 24 25  2  0  0  0  0
 25 26  1  0  0  0  0
 26 27  1  0  0  0  0
 25 28  1  0  0  0  0
 28 29  2  0  0  0  0
 29 30  1  0  0  0  0
 29 31  1  0  0  0  0
 31 32  2  0  0  0  0
 32 33  1  0  0  0  0
 32 34  1  0  0  0  0
 34 35  2  0  0  0  0
 35 36  1  0  0  0  0
 36 37  2  0  0  0  0
 37 38  1  0  0  0  0
 37 39  1  0  0  0  0
 39 40  1  0  0  0  0
 39 41  2  0  0  0  0
 41 42  1  0  0  0  0
 42 43  2  0  0  0  0
 43 44  1  0  0  0  0
 44 45  1  0  0  0  0
 45 46  1  0  0  0  0
 46 47  1  0  0  0  0
 47 48  1  0  0  0  0
 48 49  1  0  0  0  0
 47 50  2  0  0  0  0
 50 51  1  0  0  0  0
 51 52  1  0  0  0  0
 52 53  1  0  0  0  0
 53 54  1  0  0  0  0
 54 55  1  0  0  0  0
 55 56  1  0  0  0  0
 54 57  1  0  0  0  0
 57 58  2  0  0  0  0
 58 59  1  0  0  0  0
 59 60  1  0  0  0  0
 60 61  1  0  0  0  0
 50 62  1  0  0  0  0
 62 63  2  0  0  0  0
 63 64  1  0  0  0  0
 64 65  2  0  0  0  0
 64 66  1  0  0  0  0
 66 67  2  0  0  0  0
 67 68  1  0  0  0  0
 68 69  1  0  0  0  0
 69 70  1  0  0  0  0
 70 71  2  0  0  0  0
 71 72  1  0  0  0  0
 72 73  1  0  0  0  0
 67 74  1  0  0  0  0
 74 75  2  0  0  0  0
 75 76  1  0  0  0  0
 76 77  3  0  0  0  0
 75 78  1  0  0  0  0
 78 79  3  0  0  0  0
 11  2  1  0  0  0  0
 23 17  1  0  0  0  0
 30 24  1  0  0  0  0
 59 31  1  0  0  0  0
 74 63  1  0  0  0  0
 10  5  1  0  0  0  0
 22 18  1  0  0  0  0
 33 28  1  0  0  0  0
 58 34  1  0  0  0  0
 73 66  1  0  0  0  0
 23  7  1  0  0  0  0
 42 35  1  0  0  0  0
 57 43  1  0  0  0  0
 73 69  2  0  0  0  0
 53 44  2  0  0  0  0
 52 46  2  0  0  0  0
  1 80  1  0  0  0  0
  6 81  1  0  0  0  0
  9 82  1  0  0  0  0
 17 83  1  0  0  0  0
 18 84  1  0  0  0  0
 19 85  1  0  0  0  0
 20 86  1  0  0  0  0
 21 87  1  0  0  0  0
 22 88  1  0  0  0  0
 22 89  1  0  0  0  0
 23 90  1  0  0  0  0
 26 91  1  0  0  0  0
 26 92  1  0  0  0  0
 27 93  1  0  0  0  0
 27 94  1  0  0  0  0
 27 95  1  0  0  0  0
 38 96  1  0  0  0  0
 38 97  1  0  0  0  0
 38 98  1  0  0  0  0
 40 99  1  0  0  0  0
 40100  1  0  0  0  0
 40101  1  0  0  0  0
 48102  1  0  0  0  0
 48103  1  0  0  0  0
 49104  1  0  0  0  0
 49105  1  0  0  0  0
 49106  1  0  0  0  0
 55107  1  0  0  0  0
 55108  1  0  0  0  0
 56109  1  0  0  0  0
 56110  1  0  0  0  0
 56111  1  0  0  0  0
 60112  1  0  0  0  0
 60113  1  0  0  0  0
 61114  1  0  0  0  0
 61115  1  0  0  0  0
 61116  1  0  0  0  0
 62117  1  0  0  0  0
 70118  1  0  0  0  0
 71119  1  0  0  0  0
M  END
