
  xtb     02022213523D
 energy: -180.810458068853 gnorm: 0.000406060709 xtb: 6.4.1 (unknown)
106120  0     0  0            999 V2000
    2.4465   -1.6740   -3.5962 C   0  0  0  0  0  0  0  0  0  0  0  0
    2.3063   -3.0106   -3.3487 C   0  0  0  0  0  0  0  0  0  0  0  0
    1.3847   -3.6153   -2.3735 C   0  0  0  0  0  0  0  0  0  0  0  0
    0.6067   -3.0404   -1.6354 O   0  0  0  0  0  0  0  0  0  0  0  0
    1.5853   -5.0700   -2.4628 C   0  0  0  0  0  0  0  0  0  0  0  0
    0.9261   -6.0500   -1.7235 C   0  0  0  0  0  0  0  0  0  0  0  0
    1.3200   -7.3320   -2.0210 C   0  0  0  0  0  0  0  0  0  0  0  0
    2.2928   -7.6192   -2.9885 C   0  0  0  0  0  0  0  0  0  0  0  0
    2.9478   -6.6619   -3.7262 C   0  0  0  0  0  0  0  0  0  0  0  0
    2.5685   -5.3473   -3.4342 C   0  0  0  0  0  0  0  0  0  0  0  0
    3.0393   -4.0837   -3.9983 C   0  0  0  0  0  0  0  0  0  0  0  0
    4.0070   -3.9588   -4.9614 C   0  0  0  0  0  0  0  0  0  0  0  0
    4.6957   -5.0412   -5.5496 C   0  0  0  0  0  0  0  0  0  0  0  0
    5.3007   -5.8646   -6.0733 N   0  0  0  0  0  0  0  0  0  0  0  0
    4.4742   -2.7478   -5.5141 C   0  0  0  0  0  0  0  0  0  0  0  0
    4.9163   -1.8150   -6.0189 N   0  0  0  0  0  0  0  0  0  0  0  0
    2.1923   -9.1075   -2.7626 C   0  0  0  0  0  0  0  0  0  0  0  0
    3.3218   -9.7565   -1.9351 C   0  0  0  0  0  0  0  0  0  0  0  0
    2.7259  -11.0670   -1.4736 C   0  0  0  0  0  0  0  0  0  0  0  0
    1.8095  -10.7923   -0.5542 C   0  0  0  0  0  0  0  0  0  0  0  0
    1.7696   -9.2912   -0.3796 C   0  0  0  0  0  0  0  0  0  0  0  0
    3.2465   -8.9578   -0.6274 C   0  0  0  0  0  0  0  0  0  0  0  0
    1.1109   -8.7862   -1.6814 C   0  0  0  0  0  0  0  0  0  0  0  0
    1.7941   -0.5639   -3.0233 C   0  0  0  0  0  0  0  0  0  0  0  0
    0.5663   -0.5868   -1.7786 S   0  0  0  0  0  0  0  0  0  0  0  0
    0.4806    1.1378   -1.8197 C   0  0  0  0  0  0  0  0  0  0  0  0
   -0.3445    1.9431   -1.0336 C   0  0  0  0  0  0  0  0  0  0  0  0
   -0.3107    3.3442   -1.1764 C   0  0  0  0  0  0  0  0  0  0  0  0
    0.5707    3.9674   -2.1272 C   0  0  0  0  0  0  0  0  0  0  0  0
    1.4196    3.1486   -2.9184 C   0  0  0  0  0  0  0  0  0  0  0  0
    2.3026    3.7291   -3.8400 C   0  0  0  0  0  0  0  0  0  0  0  0
    2.3258    5.0971   -3.9560 C   0  0  0  0  0  0  0  0  0  0  0  0
    3.0605    5.9370   -4.7569 N   0  0  0  0  0  0  0  0  0  0  0  0
    2.7088    7.2487   -4.4980 C   0  0  0  0  0  0  0  0  0  0  0  0
    3.1626    8.2347   -5.0301 O   0  0  0  0  0  0  0  0  0  0  0  0
    1.7213    7.2148   -3.5312 N   0  0  0  0  0  0  0  0  0  0  0  0
    1.1243    8.3995   -2.9673 C   0  0  0  0  0  0  0  0  0  0  0  0
    1.7151    8.7338   -1.6007 C   0  0  0  0  0  0  0  0  0  0  0  0
    1.4733    5.9123   -3.1734 C   0  0  0  0  0  0  0  0  0  0  0  0
    0.6011    5.3621   -2.2671 C   0  0  0  0  0  0  0  0  0  0  0  0
    4.1061    5.5656   -5.6771 C   0  0  0  0  0  0  0  0  0  0  0  0
    5.3999    5.2159   -4.9475 C   0  0  0  0  0  0  0  0  0  0  0  0
    1.3594    1.7204   -2.7544 C   0  0  0  0  0  0  0  0  0  0  0  0
    2.0899    0.7353   -3.4206 C   0  0  0  0  0  0  0  0  0  0  0  0
   -1.2012    3.9499   -0.2890 C   0  0  0  0  0  0  0  0  0  0  0  0
   -1.8956    3.0591    0.5213 C   0  0  0  0  0  0  0  0  0  0  0  0
   -1.4551    1.4031    0.1746 S   0  0  0  0  0  0  0  0  0  0  0  0
   -2.8077    3.5130    1.4949 C   0  0  0  0  0  0  0  0  0  0  0  0
   -3.5373    2.8199    2.4187 C   0  0  0  0  0  0  0  0  0  0  0  0
   -3.5306    1.3598    2.6053 C   0  0  0  0  0  0  0  0  0  0  0  0
   -2.9428    0.5316    1.9351 O   0  0  0  0  0  0  0  0  0  0  0  0
   -4.3787    1.0907    3.7774 C   0  0  0  0  0  0  0  0  0  0  0  0
   -4.6400   -0.1515    4.3520 C   0  0  0  0  0  0  0  0  0  0  0  0
   -5.4469   -0.0939    5.4625 C   0  0  0  0  0  0  0  0  0  0  0  0
   -5.9588    1.1109    5.9636 C   0  0  0  0  0  0  0  0  0  0  0  0
   -5.7177    2.3412    5.4000 C   0  0  0  0  0  0  0  0  0  0  0  0
   -4.8963    2.3069    4.2682 C   0  0  0  0  0  0  0  0  0  0  0  0
   -4.4169    3.3966    3.4206 C   0  0  0  0  0  0  0  0  0  0  0  0
   -4.7614    4.7166    3.5560 C   0  0  0  0  0  0  0  0  0  0  0  0
   -5.6294    5.2194    4.5486 C   0  0  0  0  0  0  0  0  0  0  0  0
   -6.3222    5.7035    5.3257 N   0  0  0  0  0  0  0  0  0  0  0  0
   -4.3230    5.7741    2.7315 C   0  0  0  0  0  0  0  0  0  0  0  0
   -4.0193    6.6936    2.1129 N   0  0  0  0  0  0  0  0  0  0  0  0
   -6.6644    0.4280    7.1083 C   0  0  0  0  0  0  0  0  0  0  0  0
   -5.9884    0.5325    8.4922 C   0  0  0  0  0  0  0  0  0  0  0  0
   -6.6123   -0.5935    9.2847 C   0  0  0  0  0  0  0  0  0  0  0  0
   -6.1329   -1.7357    8.8089 C   0  0  0  0  0  0  0  0  0  0  0  0
   -5.1765   -1.4009    7.6871 C   0  0  0  0  0  0  0  0  0  0  0  0
   -4.6081   -0.0761    8.2123 C   0  0  0  0  0  0  0  0  0  0  0  0
   -6.0974   -0.9156    6.5473 C   0  0  0  0  0  0  0  0  0  0  0  0
    3.1703   -1.3897   -4.3504 H   0  0  0  0  0  0  0  0  0  0  0  0
    0.1781   -5.7824   -0.9938 H   0  0  0  0  0  0  0  0  0  0  0  0
    3.6893   -6.9025   -4.4692 H   0  0  0  0  0  0  0  0  0  0  0  0
    1.9036   -9.7000   -3.6285 H   0  0  0  0  0  0  0  0  0  0  0  0
    4.2835   -9.8062   -2.4383 H   0  0  0  0  0  0  0  0  0  0  0  0
    2.9849  -12.0231   -1.8891 H   0  0  0  0  0  0  0  0  0  0  0  0
    1.1498  -11.4726   -0.0483 H   0  0  0  0  0  0  0  0  0  0  0  0
    1.3175   -8.9163    0.5346 H   0  0  0  0  0  0  0  0  0  0  0  0
    3.4486   -7.8947   -0.7440 H   0  0  0  0  0  0  0  0  0  0  0  0
    3.8958   -9.3691    0.1437 H   0  0  0  0  0  0  0  0  0  0  0  0
    0.1015   -9.1679   -1.8231 H   0  0  0  0  0  0  0  0  0  0  0  0
    2.9460    3.1111   -4.4432 H   0  0  0  0  0  0  0  0  0  0  0  0
    0.0436    8.2463   -2.8923 H   0  0  0  0  0  0  0  0  0  0  0  0
    1.3240    9.2119   -3.6707 H   0  0  0  0  0  0  0  0  0  0  0  0
    2.7815    8.9241   -1.6924 H   0  0  0  0  0  0  0  0  0  0  0  0
    1.2358    9.6221   -1.1991 H   0  0  0  0  0  0  0  0  0  0  0  0
    1.5670    7.9106   -0.9054 H   0  0  0  0  0  0  0  0  0  0  0  0
   -0.0492    5.9843   -1.6761 H   0  0  0  0  0  0  0  0  0  0  0  0
    4.2648    6.4280   -6.3296 H   0  0  0  0  0  0  0  0  0  0  0  0
    3.7616    4.7187   -6.2779 H   0  0  0  0  0  0  0  0  0  0  0  0
    5.7574    6.0776   -4.3893 H   0  0  0  0  0  0  0  0  0  0  0  0
    5.2397    4.3938   -4.2534 H   0  0  0  0  0  0  0  0  0  0  0  0
    6.1616    4.9251   -5.6653 H   0  0  0  0  0  0  0  0  0  0  0  0
    2.8260    0.9282   -4.1806 H   0  0  0  0  0  0  0  0  0  0  0  0
   -1.3568    5.0108   -0.2065 H   0  0  0  0  0  0  0  0  0  0  0  0
   -2.9072    4.5917    1.5030 H   0  0  0  0  0  0  0  0  0  0  0  0
   -4.2236   -1.0536    3.9318 H   0  0  0  0  0  0  0  0  0  0  0  0
   -6.1229    3.2563    5.7978 H   0  0  0  0  0  0  0  0  0  0  0  0
   -7.7433    0.5627    7.1506 H   0  0  0  0  0  0  0  0  0  0  0  0
   -6.0189    1.5221    8.9397 H   0  0  0  0  0  0  0  0  0  0  0  0
   -7.3550   -0.4504   10.0473 H   0  0  0  0  0  0  0  0  0  0  0  0
   -6.3955   -2.7374    9.0945 H   0  0  0  0  0  0  0  0  0  0  0  0
   -4.4670   -2.1730    7.4019 H   0  0  0  0  0  0  0  0  0  0  0  0
   -4.0189    0.4751    7.4817 H   0  0  0  0  0  0  0  0  0  0  0  0
   -4.0258   -0.2103    9.1224 H   0  0  0  0  0  0  0  0  0  0  0  0
   -6.7985   -1.6774    6.2118 H   0  0  0  0  0  0  0  0  0  0  0  0
  1  2  2  0  0  0  0
  2  3  1  0  0  0  0
  3  4  2  0  0  0  0
  3  5  1  0  0  0  0
  5  6  2  0  0  0  0
  6  7  1  0  0  0  0
  7  8  2  0  0  0  0
  8  9  1  0  0  0  0
  9 10  2  0  0  0  0
 10 11  1  0  0  0  0
 11 12  2  0  0  0  0
 12 13  1  0  0  0  0
 13 14  3  0  0  0  0
 12 15  1  0  0  0  0
 15 16  3  0  0  0  0
  8 17  1  0  0  0  0
 17 18  1  0  0  0  0
 18 19  1  0  0  0  0
 19 20  2  0  0  0  0
 20 21  1  0  0  0  0
 21 22  1  0  0  0  0
 21 23  1  0  0  0  0
  1 24  1  0  0  0  0
 24 25  1  0  0  0  0
 25 26  1  0  0  0  0
 26 27  2  0  0  0  0
 27 28  1  0  0  0  0
 28 29  2  0  0  0  0
 29 30  1  0  0  0  0
 30 31  1  0  0  0  0
 31 32  2  0  0  0  0
 32 33  1  0  0  0  0
 33 34  1  0  0  0  0
 34 35  2  0  0  0  0
 34 36  1  0  0  0  0
 36 37  1  0  0  0  0
 37 38  1  0  0  0  0
 36 39  1  0  0  0  0
 39 40  2  0  0  0  0
 33 41  1  0  0  0  0
 41 42  1  0  0  0  0
 30 43  2  0  0  0  0
 43 44  1  0  0  0  0
 28 45  1  0  0  0  0
 45 46  2  0  0  0  0
 46 47  1  0  0  0  0
 46 48  1  0  0  0  0
 48 49  2  0  0  0  0
 49 50  1  0  0  0  0
 50 51  2  0  0  0  0
 50 52  1  0  0  0  0
 52 53  2  0  0  0  0
 53 54  1  0  0  0  0
 54 55  2  0  0  0  0
 55 56  1  0  0  0  0
 56 57  2  0  0  0  0
 57 58  1  0  0  0  0
 58 59  2  0  0  0  0
 59 60  1  0  0  0  0
 60 61  3  0  0  0  0
 59 62  1  0  0  0  0
 62 63  3  0  0  0  0
 55 64  1  0  0  0  0
 64 65  1  0  0  0  0
 65 66  1  0  0  0  0
 66 67  2  0  0  0  0
 67 68  1  0  0  0  0
 68 69  1  0  0  0  0
 68 70  1  0  0  0  0
 11  2  1  0  0  0  0
 23 17  1  0  0  0  0
 44 24  2  0  0  0  0
 58 49  1  0  0  0  0
 70 64  1  0  0  0  0
 10  5  1  0  0  0  0
 22 18  1  0  0  0  0
 43 26  1  0  0  0  0
 57 52  1  0  0  0  0
 69 65  1  0  0  0  0
 23  7  1  0  0  0  0
 47 27  1  0  0  0  0
 70 54  1  0  0  0  0
 40 29  1  0  0  0  0
 39 32  1  0  0  0  0
  1 71  1  0  0  0  0
  6 72  1  0  0  0  0
  9 73  1  0  0  0  0
 17 74  1  0  0  0  0
 18 75  1  0  0  0  0
 19 76  1  0  0  0  0
 20 77  1  0  0  0  0
 21 78  1  0  0  0  0
 22 79  1  0  0  0  0
 22 80  1  0  0  0  0
 23 81  1  0  0  0  0
 31 82  1  0  0  0  0
 37 83  1  0  0  0  0
 37 84  1  0  0  0  0
 38 85  1  0  0  0  0
 38 86  1  0  0  0  0
 38 87  1  0  0  0  0
 40 88  1  0  0  0  0
 41 89  1  0  0  0  0
 41 90  1  0  0  0  0
 42 91  1  0  0  0  0
 42 92  1  0  0  0  0
 42 93  1  0  0  0  0
 44 94  1  0  0  0  0
 45 95  1  0  0  0  0
 48 96  1  0  0  0  0
 53 97  1  0  0  0  0
 56 98  1  0  0  0  0
 64 99  1  0  0  0  0
 65100  1  0  0  0  0
 66101  1  0  0  0  0
 67102  1  0  0  0  0
 68103  1  0  0  0  0
 69104  1  0  0  0  0
 69105  1  0  0  0  0
 70106  1  0  0  0  0
M  END
