
  xtb     02112207283D
 energy: -214.199991973761 gnorm: 0.000841873965 xtb: 6.4.1 (unknown)
125139  0     0  0            999 V2000
    0.0642   -4.6068   -5.7045 C   0  0  0  0  0  0  0  0  0  0  0  0
   -0.7190   -4.0314   -6.6742 C   0  0  0  0  0  0  0  0  0  0  0  0
   -1.5058   -2.8029   -6.5401 C   0  0  0  0  0  0  0  0  0  0  0  0
   -1.6891   -2.1412   -5.5311 O   0  0  0  0  0  0  0  0  0  0  0  0
   -2.0329   -2.4990   -7.8811 C   0  0  0  0  0  0  0  0  0  0  0  0
   -2.7896   -1.3901   -8.2532 C   0  0  0  0  0  0  0  0  0  0  0  0
   -3.1140   -1.3579   -9.5882 C   0  0  0  0  0  0  0  0  0  0  0  0
   -2.7133   -2.3545  -10.4875 C   0  0  0  0  0  0  0  0  0  0  0  0
   -1.9683   -3.4543  -10.1326 C   0  0  0  0  0  0  0  0  0  0  0  0
   -1.6291   -3.5087   -8.7773 C   0  0  0  0  0  0  0  0  0  0  0  0
   -0.8434   -4.4983   -8.0404 C   0  0  0  0  0  0  0  0  0  0  0  0
   -0.3513   -5.6667   -8.5659 C   0  0  0  0  0  0  0  0  0  0  0  0
    0.3745   -6.6471   -7.8587 C   0  0  0  0  0  0  0  0  0  0  0  0
    0.9650   -7.4964   -7.3571 N   0  0  0  0  0  0  0  0  0  0  0  0
   -0.5248   -6.0764   -9.9043 C   0  0  0  0  0  0  0  0  0  0  0  0
   -0.6237   -6.4776  -10.9760 N   0  0  0  0  0  0  0  0  0  0  0  0
   -3.3782   -1.6766  -11.6599 C   0  0  0  0  0  0  0  0  0  0  0  0
   -4.7207   -2.2717  -12.1340 C   0  0  0  0  0  0  0  0  0  0  0  0
   -5.3480   -1.1540  -12.9356 C   0  0  0  0  0  0  0  0  0  0  0  0
   -5.7288   -0.2109  -12.0836 C   0  0  0  0  0  0  0  0  0  0  0  0
   -5.3655   -0.6752  -10.6915 C   0  0  0  0  0  0  0  0  0  0  0  0
   -5.5661   -2.1871  -10.8567 C   0  0  0  0  0  0  0  0  0  0  0  0
   -3.8263   -0.5658  -10.6565 C   0  0  0  0  0  0  0  0  0  0  0  0
    0.2909   -4.2419   -4.3729 C   0  0  0  0  0  0  0  0  0  0  0  0
    1.1970   -4.9171   -3.5368 C   0  0  0  0  0  0  0  0  0  0  0  0
    1.9955   -6.1251   -3.9040 C   0  0  0  0  0  0  0  0  0  0  0  0
    1.1643   -7.3998   -3.7348 C   0  0  0  0  0  0  0  0  0  0  0  0
    1.2413   -4.3465   -2.2717 C   0  0  0  0  0  0  0  0  0  0  0  0
    0.3763   -3.2508   -2.1065 C   0  0  0  0  0  0  0  0  0  0  0  0
   -0.4987   -2.8959   -3.5478 S   0  0  0  0  0  0  0  0  0  0  0  0
    0.4894   -2.7109   -0.8226 C   0  0  0  0  0  0  0  0  0  0  0  0
    1.4438   -3.3736   -0.0433 C   0  0  0  0  0  0  0  0  0  0  0  0
    2.1993   -4.7047   -0.8460 S   0  0  0  0  0  0  0  0  0  0  0  0
    1.5232   -2.6912    1.1792 C   0  0  0  0  0  0  0  0  0  0  0  0
    2.4354   -2.8652    2.2525 C   0  0  0  0  0  0  0  0  0  0  0  0
    3.3308   -3.8597    2.2418 N   0  0  0  0  0  0  0  0  0  0  0  0
    4.1931   -3.9236    3.2344 C   0  0  0  0  0  0  0  0  0  0  0  0
    5.1803   -5.0428    3.2032 C   0  0  0  0  0  0  0  0  0  0  0  0
    4.1823   -2.9669    4.2807 C   0  0  0  0  0  0  0  0  0  0  0  0
    5.1646   -3.0197    5.4034 C   0  0  0  0  0  0  0  0  0  0  0  0
    3.2980   -1.9920    4.3054 N   0  0  0  0  0  0  0  0  0  0  0  0
    2.4112   -1.9256    3.3052 C   0  0  0  0  0  0  0  0  0  0  0  0
    1.3890   -0.9414    3.2980 C   0  0  0  0  0  0  0  0  0  0  0  0
    1.0605    0.0142    4.2704 C   0  0  0  0  0  0  0  0  0  0  0  0
    1.6540    0.5901    5.7848 S   0  0  0  0  0  0  0  0  0  0  0  0
    0.2871    1.6784    5.8891 C   0  0  0  0  0  0  0  0  0  0  0  0
   -0.0805    2.6584    6.8199 C   0  0  0  0  0  0  0  0  0  0  0  0
    0.6136    2.8844    8.1204 C   0  0  0  0  0  0  0  0  0  0  0  0
    0.8103    1.5880    8.9047 C   0  0  0  0  0  0  0  0  0  0  0  0
   -1.2518    3.3014    6.4296 C   0  0  0  0  0  0  0  0  0  0  0  0
   -1.9293    2.6252    4.9461 S   0  0  0  0  0  0  0  0  0  0  0  0
   -0.5821    1.5644    4.7913 C   0  0  0  0  0  0  0  0  0  0  0  0
   -0.1276    0.6295    3.8594 C   0  0  0  0  0  0  0  0  0  0  0  0
   -0.5267    0.1126    2.6547 N   0  0  0  0  0  0  0  0  0  0  0  0
   -1.8663    0.3567    2.1719 C   0  0  0  0  0  0  0  0  0  0  0  0
   -1.9930    1.7123    1.4785 C   0  0  0  0  0  0  0  0  0  0  0  0
    0.4044   -0.8354    2.2747 C   0  0  0  0  0  0  0  0  0  0  0  0
    0.5571   -1.6457    1.1255 C   0  0  0  0  0  0  0  0  0  0  0  0
   -0.0644   -1.6763   -0.1122 N   0  0  0  0  0  0  0  0  0  0  0  0
   -0.7127   -0.6115   -0.8466 C   0  0  0  0  0  0  0  0  0  0  0  0
    0.2974    0.4547   -1.2656 C   0  0  0  0  0  0  0  0  0  0  0  0
   -1.9731    4.3506    7.0318 C   0  0  0  0  0  0  0  0  0  0  0  0
   -1.4343    5.4376    7.6696 C   0  0  0  0  0  0  0  0  0  0  0  0
   -0.0580    5.9330    7.4392 C   0  0  0  0  0  0  0  0  0  0  0  0
    0.8453    5.3791    6.8513 O   0  0  0  0  0  0  0  0  0  0  0  0
   -0.0510    7.3143    7.9744 C   0  0  0  0  0  0  0  0  0  0  0  0
    0.9660    8.2429    7.9454 C   0  0  0  0  0  0  0  0  0  0  0  0
    0.7254    9.5052    8.4923 C   0  0  0  0  0  0  0  0  0  0  0  0
    1.8228   10.5069    8.4454 C   0  0  0  0  0  0  0  0  0  0  0  0
    2.9259   10.2814    8.0146 O   0  0  0  0  0  0  0  0  0  0  0  0
    1.4501   11.6999    8.9282 O   0  0  0  0  0  0  0  0  0  0  0  0
    2.4438   12.7139    8.9044 C   0  0  0  0  0  0  0  0  0  0  0  0
   -0.5158    9.8048    9.0520 C   0  0  0  0  0  0  0  0  0  0  0  0
   -1.5383    8.8682    9.0795 C   0  0  0  0  0  0  0  0  0  0  0  0
   -1.3064    7.6143    8.5345 C   0  0  0  0  0  0  0  0  0  0  0  0
   -2.1706    6.4449    8.3976 C   0  0  0  0  0  0  0  0  0  0  0  0
   -3.4207    6.2923    8.9401 C   0  0  0  0  0  0  0  0  0  0  0  0
   -4.0970    7.2922    9.6673 C   0  0  0  0  0  0  0  0  0  0  0  0
   -4.6978    8.0710   10.2595 N   0  0  0  0  0  0  0  0  0  0  0  0
   -4.1655    5.0960    8.8738 C   0  0  0  0  0  0  0  0  0  0  0  0
   -4.8090    4.1448    8.8761 N   0  0  0  0  0  0  0  0  0  0  0  0
    0.6274   -5.4787   -6.0087 H   0  0  0  0  0  0  0  0  0  0  0  0
   -3.0684   -0.6410   -7.5284 H   0  0  0  0  0  0  0  0  0  0  0  0
   -1.6612   -4.2059  -10.8403 H   0  0  0  0  0  0  0  0  0  0  0  0
   -2.7206   -1.4010  -12.4822 H   0  0  0  0  0  0  0  0  0  0  0  0
   -4.6428   -3.2397  -12.6210 H   0  0  0  0  0  0  0  0  0  0  0  0
   -5.3975   -1.1399  -14.0086 H   0  0  0  0  0  0  0  0  0  0  0  0
   -6.1599    0.7484  -12.3026 H   0  0  0  0  0  0  0  0  0  0  0  0
   -5.8761   -0.1889   -9.8646 H   0  0  0  0  0  0  0  0  0  0  0  0
   -5.1797   -2.7791  -10.0290 H   0  0  0  0  0  0  0  0  0  0  0  0
   -6.6082   -2.4469  -11.0351 H   0  0  0  0  0  0  0  0  0  0  0  0
   -3.4685    0.4506  -10.8112 H   0  0  0  0  0  0  0  0  0  0  0  0
    2.8617   -6.1733   -3.2408 H   0  0  0  0  0  0  0  0  0  0  0  0
    2.3549   -6.0613   -4.9321 H   0  0  0  0  0  0  0  0  0  0  0  0
    0.8181   -7.4917   -2.7081 H   0  0  0  0  0  0  0  0  0  0  0  0
    1.7689   -8.2680   -3.9801 H   0  0  0  0  0  0  0  0  0  0  0  0
    0.3009   -7.3873   -4.3954 H   0  0  0  0  0  0  0  0  0  0  0  0
    5.0050   -5.6475    2.3182 H   0  0  0  0  0  0  0  0  0  0  0  0
    6.1970   -4.6530    3.1792 H   0  0  0  0  0  0  0  0  0  0  0  0
    5.0794   -5.6641    4.0920 H   0  0  0  0  0  0  0  0  0  0  0  0
    5.0747   -3.9609    5.9439 H   0  0  0  0  0  0  0  0  0  0  0  0
    6.1821   -2.9468    5.0222 H   0  0  0  0  0  0  0  0  0  0  0  0
    4.9738   -2.1940    6.0828 H   0  0  0  0  0  0  0  0  0  0  0  0
    1.5833    3.3471    7.9186 H   0  0  0  0  0  0  0  0  0  0  0  0
    0.0310    3.5838    8.7220 H   0  0  0  0  0  0  0  0  0  0  0  0
    1.4659    0.9027    8.3755 H   0  0  0  0  0  0  0  0  0  0  0  0
    1.2560    1.8117    9.8706 H   0  0  0  0  0  0  0  0  0  0  0  0
   -0.1463    1.0974    9.0718 H   0  0  0  0  0  0  0  0  0  0  0  0
   -2.1617   -0.4686    1.5225 H   0  0  0  0  0  0  0  0  0  0  0  0
   -2.5360    0.3462    3.0396 H   0  0  0  0  0  0  0  0  0  0  0  0
   -2.9924    1.8224    1.0666 H   0  0  0  0  0  0  0  0  0  0  0  0
   -1.2663    1.8207    0.6785 H   0  0  0  0  0  0  0  0  0  0  0  0
   -1.8293    2.5118    2.1959 H   0  0  0  0  0  0  0  0  0  0  0  0
   -1.1545   -1.0664   -1.7368 H   0  0  0  0  0  0  0  0  0  0  0  0
   -1.5143   -0.1658   -0.2655 H   0  0  0  0  0  0  0  0  0  0  0  0
    0.7736    0.8980   -0.3929 H   0  0  0  0  0  0  0  0  0  0  0  0
   -0.2016    1.2349   -1.8333 H   0  0  0  0  0  0  0  0  0  0  0  0
    1.0701    0.0137   -1.8909 H   0  0  0  0  0  0  0  0  0  0  0  0
   -3.0480    4.3205    6.8908 H   0  0  0  0  0  0  0  0  0  0  0  0
    1.9268    8.0131    7.5108 H   0  0  0  0  0  0  0  0  0  0  0  0
    2.7885   12.8825    7.8820 H   0  0  0  0  0  0  0  0  0  0  0  0
    1.9740   13.6092    9.3031 H   0  0  0  0  0  0  0  0  0  0  0  0
    3.2984   12.4219    9.5182 H   0  0  0  0  0  0  0  0  0  0  0  0
   -0.6793   10.7872    9.4662 H   0  0  0  0  0  0  0  0  0  0  0  0
   -2.4920    9.1264    9.5105 H   0  0  0  0  0  0  0  0  0  0  0  0
  1  2  2  0  0  0  0
  2  3  1  0  0  0  0
  3  4  2  0  0  0  0
  3  5  1  0  0  0  0
  5  6  2  0  0  0  0
  6  7  1  0  0  0  0
  7  8  2  0  0  0  0
  8  9  1  0  0  0  0
  9 10  2  0  0  0  0
 10 11  1  0  0  0  0
 11 12  2  0  0  0  0
 12 13  1  0  0  0  0
 13 14  3  0  0  0  0
 12 15  1  0  0  0  0
 15 16  3  0  0  0  0
  8 17  1  0  0  0  0
 17 18  1  0  0  0  0
 18 19  1  0  0  0  0
 19 20  2  0  0  0  0
 20 21  1  0  0  0  0
 21 22  1  0  0  0  0
 21 23  1  0  0  0  0
  1 24  1  0  0  0  0
 24 25  2  0  0  0  0
 25 26  1  0  0  0  0
 26 27  1  0  0  0  0
 25 28  1  0  0  0  0
 28 29  2  0  0  0  0
 29 30  1  0  0  0  0
 29 31  1  0  0  0  0
 31 32  2  0  0  0  0
 32 33  1  0  0  0  0
 32 34  1  0  0  0  0
 34 35  2  0  0  0  0
 35 36  1  0  0  0  0
 36 37  2  0  0  0  0
 37 38  1  0  0  0  0
 37 39  1  0  0  0  0
 39 40  1  0  0  0  0
 39 41  2  0  0  0  0
 41 42  1  0  0  0  0
 42 43  2  0  0  0  0
 43 44  1  0  0  0  0
 44 45  1  0  0  0  0
 45 46  1  0  0  0  0
 46 47  1  0  0  0  0
 47 48  1  0  0  0  0
 48 49  1  0  0  0  0
 47 50  2  0  0  0  0
 50 51  1  0  0  0  0
 51 52  1  0  0  0  0
 52 53  1  0  0  0  0
 53 54  1  0  0  0  0
 54 55  1  0  0  0  0
 55 56  1  0  0  0  0
 54 57  1  0  0  0  0
 57 58  2  0  0  0  0
 58 59  1  0  0  0  0
 59 60  1  0  0  0  0
 60 61  1  0  0  0  0
 50 62  1  0  0  0  0
 62 63  2  0  0  0  0
 63 64  1  0  0  0  0
 64 65  2  0  0  0  0
 64 66  1  0  0  0  0
 66 67  2  0  0  0  0
 67 68  1  0  0  0  0
 68 69  1  0  0  0  0
 69 70  2  0  0  0  0
 69 71  1  0  0  0  0
 71 72  1  0  0  0  0
 68 73  2  0  0  0  0
 73 74  1  0  0  0  0
 74 75  2  0  0  0  0
 75 76  1  0  0  0  0
 76 77  2  0  0  0  0
 77 78  1  0  0  0  0
 78 79  3  0  0  0  0
 77 80  1  0  0  0  0
 80 81  3  0  0  0  0
 11  2  1  0  0  0  0
 23 17  1  0  0  0  0
 30 24  1  0  0  0  0
 59 31  1  0  0  0  0
 76 63  1  0  0  0  0
 10  5  1  0  0  0  0
 22 18  1  0  0  0  0
 33 28  1  0  0  0  0
 58 34  1  0  0  0  0
 75 66  1  0  0  0  0
 23  7  1  0  0  0  0
 42 35  1  0  0  0  0
 57 43  1  0  0  0  0
 53 44  2  0  0  0  0
 52 46  2  0  0  0  0
  1 82  1  0  0  0  0
  6 83  1  0  0  0  0
  9 84  1  0  0  0  0
 17 85  1  0  0  0  0
 18 86  1  0  0  0  0
 19 87  1  0  0  0  0
 20 88  1  0  0  0  0
 21 89  1  0  0  0  0
 22 90  1  0  0  0  0
 22 91  1  0  0  0  0
 23 92  1  0  0  0  0
 26 93  1  0  0  0  0
 26 94  1  0  0  0  0
 27 95  1  0  0  0  0
 27 96  1  0  0  0  0
 27 97  1  0  0  0  0
 38 98  1  0  0  0  0
 38 99  1  0  0  0  0
 38100  1  0  0  0  0
 40101  1  0  0  0  0
 40102  1  0  0  0  0
 40103  1  0  0  0  0
 48104  1  0  0  0  0
 48105  1  0  0  0  0
 49106  1  0  0  0  0
 49107  1  0  0  0  0
 49108  1  0  0  0  0
 55109  1  0  0  0  0
 55110  1  0  0  0  0
 56111  1  0  0  0  0
 56112  1  0  0  0  0
 56113  1  0  0  0  0
 60114  1  0  0  0  0
 60115  1  0  0  0  0
 61116  1  0  0  0  0
 61117  1  0  0  0  0
 61118  1  0  0  0  0
 62119  1  0  0  0  0
 67120  1  0  0  0  0
 72121  1  0  0  0  0
 72122  1  0  0  0  0
 72123  1  0  0  0  0
 73124  1  0  0  0  0
 74125  1  0  0  0  0
M  END
