116

C          5.56350        3.45720        1.29090
C          5.15600        4.74430        1.04510
C          3.80030        5.17460        0.69410
O          2.79960        4.48120        0.60760
C          3.87170        6.62680        0.46330
C          2.82780        7.46920        0.08970
C          3.20000        8.78190       -0.07320
C          4.51460        9.22450        0.12380
C          5.55150        8.40500        0.50270
C          5.19550        7.06430        0.67190
C          6.01190        5.91390        1.05810
C          7.34460        5.96340        1.38230
C          8.12780        7.13660        1.37330
N          8.83190        8.04360        1.39150
C          8.13980        4.86960        1.78220
N          8.85980        4.03750        2.11490
C          4.17340       10.64920       -0.23270
C          4.57410       11.15520       -1.64100
C          4.61790        9.94320       -2.53830
C          3.37130        9.52850       -2.72040
C          2.46190       10.45230       -1.94830
C          3.23790       11.77210       -2.08450
C          2.70720       10.15750       -0.44760
C          4.85610        2.25000        1.27330
C          5.46750        1.00500        1.49740
C          6.91980        0.77880        1.76500
C          7.71110        0.71040        0.45600
C          4.55520       -0.03570        1.38200
C          3.24350        0.38070        1.09680
S          3.12900        2.09450        0.94740
C          2.38120       -0.71530        0.99330
C          3.04100       -1.93530        1.17930
S          4.72930       -1.77620        1.51090
C          2.09150       -2.94910        0.99750
C          2.27680       -4.35550        0.96570
N          3.47800       -4.89870        1.19610
C          3.59240       -6.20610        1.09220
C          4.94010       -6.79100        1.35500
C          2.48270       -7.01620        0.74140
C          2.60460       -8.49710        0.59990
N          1.29440       -6.49120        0.52740
C          1.16850       -5.16350        0.63970
C         -0.09000       -4.53090        0.46860
C         -1.34720       -5.10850        0.24650
S         -2.03490       -6.67040       -0.01160
C         -3.61760       -5.93070       -0.09300
C         -4.89610       -6.45960       -0.27830
C         -5.17000       -7.90010       -0.54840
C         -5.38410       -8.13150       -2.04650
C         -5.86570       -5.46120       -0.28680
S         -5.16930       -3.86220       -0.00870
C         -3.58590       -4.53790        0.07560
C         -2.28520       -4.06890        0.26220
N         -1.65170       -2.86980        0.45070
C         -2.42060       -1.70170        0.81540
C         -2.25270       -1.36250        2.29470
C         -0.29540       -3.12530        0.57420
C          0.84530       -2.30410        0.74420
N          1.05310       -0.93570        0.74280
C          0.23950        0.13620        0.21390
C         -0.04480       -0.06040       -1.27320
C         -7.25730       -5.64620       -0.38740
C         -8.22010       -4.73210       -0.70260
C         -9.62860       -4.96410       -0.27650
O        -10.10270       -5.98840        0.15900
C        -10.26150       -3.65640       -0.46230
S        -11.79800       -2.97340       -0.14630
C        -11.24150       -1.46130       -0.80310
Br       -12.39570        0.01320       -0.84830
C         -9.94910       -1.48130       -1.25080
C         -9.38420       -2.75090       -1.04480
C         -8.13420       -3.43300       -1.33330
C         -7.21230       -3.01260       -2.25730
C         -6.19930       -3.84430       -2.77540
N         -5.40980       -4.52150       -3.26130
C         -7.26890       -1.73070       -2.83720
N         -7.28750       -0.67740       -3.29260
H          6.61250        3.33040        1.51980
H          1.82950        7.08550       -0.05230
H          6.55550        8.76450        0.65320
H          4.35520       11.39220        0.54120
H          5.45200       11.79560       -1.65710
H          5.52690        9.49220       -2.89130
H          3.03030        8.66160       -3.25570
H          1.41580       10.45390       -2.24340
H          2.88020       12.55680       -1.41910
H          3.26370       12.14150       -3.10870
H          1.93130       10.57630        0.19050
H          7.33110        1.56770        2.39640
H          7.02380       -0.17110        2.29310
H          8.76140        0.53310        0.66980
H          7.62470        1.64390       -0.09540
H          7.33890       -0.09850       -0.16860
H          5.63080       -5.99260        1.61040
H          5.30520       -7.31630        0.47360
H          4.89200       -7.50480        2.17610
H          3.33810       -8.74650       -0.16560
H          1.63880       -8.90910        0.32190
H          2.93220       -8.94410        1.53750
H         -6.05770       -8.22320       -0.00010
H         -4.31560       -8.48710       -0.20690
H         -4.50890       -7.81110       -2.60570
H         -5.55650       -9.18700       -2.23990
H         -6.24100       -7.56370       -2.40130
H         -2.16130       -0.85710        0.17730
H         -3.46780       -1.94390        0.61700
H         -2.61340       -2.18500        2.90820
H         -2.82520       -0.47180        2.53880
H         -1.20770       -1.18920        2.54150
H         -0.68010        0.23930        0.79020
H          0.81060        1.05740        0.35200
H         -0.67660        0.74390       -1.63930
H          0.88760       -0.04840       -1.83280
H         -0.53930       -1.01110       -1.46020
H         -7.62920       -6.62290       -0.09190
H         -9.45280       -0.63380       -1.68640
