119

C          5.94270        1.97460        0.57130
C          6.74750        2.39990       -0.44630
C          6.49450        2.13130       -1.88230
O          5.68900        1.36320       -2.36580
C          7.34290        3.08990       -2.61670
C          7.40120        3.26060       -3.99840
C          8.26140        4.25240       -4.40400
C          9.00710        5.02470       -3.50290
C          8.96210        4.86570       -2.13850
C          8.09360        3.85910       -1.70490
C          7.77740        3.41420       -0.35210
C          8.39940        3.81640        0.80100
C          8.13280        3.27210        2.07520
N          7.98400        2.85040        3.13280
C          9.41190        4.79510        0.86350
N         10.23560        5.58630        0.98220
C          9.63160        5.84850       -4.60130
C          9.05340        7.26420       -4.81170
C          9.49980        7.63320       -6.20800
C          8.79880        6.89930       -7.06290
C          7.86640        6.02240       -6.25860
C          7.57380        6.96000       -5.08010
C          8.80420        4.98440       -5.60630
C          5.00120        0.92120        0.50430
C          5.06370       -0.31630       -0.12130
C          6.28010       -0.87520       -0.77940
C          6.66700       -2.23930       -0.21020
C          3.86590       -1.02710        0.05390
C          2.89880       -0.35030        0.80980
S          3.48660        1.16500        1.37710
C          1.69850       -1.06080        0.88540
C          1.76560       -2.28140        0.20190
S          3.29790       -2.57190       -0.53960
C          0.51280       -2.90710        0.33760
C          0.05630       -4.20130       -0.02890
N          0.85740       -5.05400       -0.67840
C          0.40590       -6.26530       -0.92550
C          1.31890       -7.19350       -1.65540
C         -0.88840       -6.66570       -0.50850
C         -1.40300       -8.04460       -0.75630
N         -1.69320       -5.82930        0.11220
C         -1.25070       -4.59010        0.35510
C         -2.09950       -3.61630        0.94630
C         -3.46540       -3.64520        1.27560
S         -4.77260       -4.77260        1.31040
C         -5.83610       -3.49080        1.84420
C         -7.19730       -3.45950        2.14860
C         -8.08880       -4.65210        2.03730
C         -8.66070       -4.76360        0.62110
C         -7.60370       -2.18660        2.54320
S         -6.27090       -1.02690        2.50430
C         -5.18380       -2.25550        1.98020
C         -3.82950       -2.34640        1.66260
N         -2.73420       -1.51820        1.61920
C         -2.89310       -0.09200        1.42070
C         -3.67310        0.20590        0.14040
C         -1.66480       -2.29150        1.20910
C         -0.29960       -1.99330        1.05640
N          0.44460       -0.88550        1.41910
C          0.25010       -0.07530        2.60590
C          1.16160       -0.53100        3.74480
C         -8.92260       -1.78330        2.82200
C         -9.37580       -0.62540        3.38780
C        -10.76180       -0.16980        3.11450
O        -11.65470       -0.81480        2.61150
C        -10.78690        1.25000        3.52740
C        -11.79700        2.18300        3.39070
C        -11.57150        3.47620        3.83640
C        -10.34740        3.81070        4.40410
Cl       -10.08390        5.42820        4.93640
C         -9.32430        2.88000        4.55830
C         -9.55470        1.59020        4.11560
C         -8.72000        0.38990        4.17540
C         -7.68510        0.18710        5.05220
C         -7.15050       -1.09130        5.31600
N         -6.74080       -2.12740        5.59350
C         -7.11010        1.20000        5.84290
N         -6.58650        1.99270        6.48770
H          5.94730        2.53370        1.50040
H          6.80810        2.64640       -4.65770
H          9.53730        5.46860       -1.45550
H         10.71790        5.81980       -4.65910
H          9.28450        7.97210       -4.02050
H         10.29190        8.32670       -6.42090
H          8.88840        6.85720       -8.13250
H          7.01550        5.59950       -6.78610
H          7.06030        6.48100       -4.24840
H          7.02090        7.84640       -5.38690
H          9.33910        4.37630       -6.33340
H          6.08430       -0.96220       -1.85140
H          7.11110       -0.18050       -0.64870
H          6.82250       -2.17110        0.86450
H          7.59150       -2.57770       -0.67110
H          5.89610       -2.97950       -0.40450
H          1.53720       -8.06930       -1.04600
H          2.24500       -6.67480       -1.88520
H          0.85540       -7.53450       -2.58000
H         -2.40580       -8.12970       -0.34780
H         -0.75600       -8.78230       -0.28390
H         -1.42880       -8.25520       -1.82450
H         -8.89940       -4.58840        2.76300
H         -7.49920       -5.54450        2.25570
H         -7.85600       -4.85440       -0.10470
H         -9.25230       -3.88510        0.37370
H         -9.29630       -5.64170        0.54590
H         -1.91030        0.36720        1.33710
H         -3.42020        0.32520        2.28470
H         -3.73100        1.28070       -0.00690
H         -4.68370       -0.18840        0.19630
H         -3.17070       -0.23830       -0.71640
H          0.46060        0.97010        2.35780
H         -0.78310       -0.17320        2.93500
H          0.99430       -1.58410        3.96070
H          2.20790       -0.38730        3.49110
H          0.94170        0.04750        4.63740
H         -9.70340       -2.43370        2.44080
H        -12.73900        1.90150        2.94660
H        -12.33850        4.22900        3.74570
H         -8.38680        3.17440        5.00130
