120

C         -4.78420        3.88370        1.06120
C         -5.48840        4.48380        0.05690
C         -5.43640        4.06560       -1.36450
O         -4.96970        3.04450       -1.82450
C         -5.96260        5.21320       -2.12960
C         -6.03580        5.32490       -3.51650
C         -6.53950        6.52580       -3.95550
C         -6.93220        7.54840       -3.08120
C         -6.86360        7.45340       -1.71170
C         -6.36130        6.23500       -1.24420
C         -6.13100        5.77980        0.12220
C         -6.53080        6.41290        1.27010
C         -6.37770        5.86870        2.56280
N         -6.30690        5.47170        3.63790
C         -7.18710        7.65960        1.30590
N         -7.71990        8.67280        1.39550
C         -7.32550        8.47050       -4.20840
C         -8.83610        8.60840       -4.49160
C         -8.89150        9.15830       -5.89870
C         -8.52450        8.18790       -6.72590
C         -8.21480        6.96560       -5.89180
C         -9.23520        7.15180       -4.76160
C         -6.89250        7.32840       -5.18290
C         -4.23230        2.58240        1.02180
C         -4.73560        1.39720        0.50440
C         -6.12160        1.22180       -0.01870
C         -6.86780        0.09750        0.69820
C         -3.81100        0.35180        0.65300
C         -2.61060        0.72460        1.27480
S         -2.64560        2.37580        1.76440
C         -1.69480       -0.33040        1.31940
C         -2.21770       -1.50240        0.76350
S         -3.82460       -1.32600        0.15740
C         -1.24050       -2.49930        0.90480
C         -1.31540       -3.88890        0.62820
N         -2.41540       -4.42720        0.08790
C         -2.43950       -5.73110       -0.09070
C         -3.67460       -6.30940       -0.69760
C         -1.33990       -6.54530        0.28120
C         -1.35890       -8.02590        0.09300
N         -0.25100       -6.02360        0.80540
C         -0.21410       -4.69760        0.98240
C          0.95340       -4.05960        1.47630
C          2.21780       -4.60050        1.75080
S          3.00520       -6.13880        1.75880
C          4.51190       -5.33010        2.15300
C          5.80250       -5.79890        2.35340
C          6.16800       -7.24220        2.23320
C          6.69500       -7.55610        0.83020
C          6.69770       -4.74510        2.61330
S          5.88920       -3.17490        2.61690
C          4.38320       -3.93440        2.27320
C          3.06550       -3.52930        2.05410
N          2.36510       -2.34940        2.02650
C          3.10630       -1.12040        1.84120
C          3.31740       -0.83160        0.35630
C          1.06050       -2.65310        1.67310
C         -0.10860       -1.87590        1.50220
N         -0.42190       -0.55690        1.77240
C          0.20980        0.39180        2.66030
C          0.83040        1.56640        1.90580
C          8.06280       -4.93990        2.83560
C          9.07590       -4.03750        3.05800
C          8.95450       -2.58240        3.10060
O          7.94760       -1.88370        2.98510
C         10.29960       -2.06510        3.31270
C         10.67350       -0.72980        3.40800
O          9.77560        0.25850        3.31130
C         12.03410       -0.46250        3.60850
C         12.93760       -1.50240        3.70450
C         12.55570       -2.84130        3.61000
C         11.21770       -3.12400        3.41110
C         10.47230       -4.37680        3.26500
C         11.02770       -5.62940        3.32790
C         12.40220       -5.86980        3.53560
N         13.50560       -6.14120        3.69950
C         10.33390       -6.85030        3.20390
N          9.84220       -7.88540        3.11350
H         -4.53720        4.46920        1.94000
H         -5.71150        4.51790       -4.15470
H         -7.15520        8.25180       -1.04980
H         -6.79540        9.42000       -4.25080
H         -9.39380        9.14890       -3.73190
H         -9.12990       10.17860       -6.13510
H         -8.39500        8.23570       -7.79120
H         -8.20740        6.00960       -6.40860
H         -9.08490        6.48630       -3.91350
H        -10.26120        7.06510       -5.11520
H         -6.07580        7.51720       -5.87730
H         -6.06290        1.00550       -1.08840
H         -6.67250        2.15560        0.10280
H         -7.89050        0.04800        0.33310
H         -6.89300        0.28270        1.77000
H         -6.39350       -0.86370        0.52160
H         -4.38390       -5.51010       -0.89160
H         -3.43730       -6.81650       -1.63180
H         -4.12480       -7.03760       -0.02470
H         -0.41880       -8.44140        0.44430
H         -1.49310       -8.27400       -0.95890
H         -2.18170       -8.47040        0.65100
H          5.27080       -7.83640        2.41740
H          6.92040       -7.51950        2.97300
H          7.59260       -6.98000        0.61750
H          5.94290       -7.31720        0.08180
H          6.93880       -8.61200        0.75680
H          2.60710       -0.28490        2.32190
H          4.07430       -1.25980        2.32900
H          3.88410        0.08720        0.23350
H          3.87110       -1.64380       -0.10890
H          2.36160       -0.73140       -0.15470
H          0.93970       -0.13590        3.27590
H         -0.56420        0.78070        3.33180
H          1.52330        1.22840        1.14060
H          0.05080        2.14930        1.42300
H          1.35830        2.21260        2.60170
H          8.35510       -5.98060        2.81520
H          8.89220       -0.13840        3.17580
H         12.35600        0.56380        3.68510
H         13.98120       -1.27310        3.85850
H         13.29860       -3.61660        3.69110
