
  xtb     02022217463D
 energy: -218.784152041490 gnorm: 0.000332712410 xtb: 6.4.1 (unknown)
132149  0     0  0            999 V2000
   -5.2323   -3.4780    4.5859 C   0  0  0  0  0  0  0  0  0  0  0  0
   -5.8568   -4.1553    3.5665 C   0  0  0  0  0  0  0  0  0  0  0  0
   -5.6738   -3.9256    2.1321 C   0  0  0  0  0  0  0  0  0  0  0  0
   -4.9099   -3.1407    1.5928 O   0  0  0  0  0  0  0  0  0  0  0  0
   -6.6071   -4.8308    1.4424 C   0  0  0  0  0  0  0  0  0  0  0  0
   -6.8009   -4.9438    0.0684 C   0  0  0  0  0  0  0  0  0  0  0  0
   -7.7397   -5.8819   -0.2872 C   0  0  0  0  0  0  0  0  0  0  0  0
   -8.4362   -6.6485    0.6559 C   0  0  0  0  0  0  0  0  0  0  0  0
   -8.2570   -6.5420    2.0152 C   0  0  0  0  0  0  0  0  0  0  0  0
   -7.3031   -5.5958    2.3994 C   0  0  0  0  0  0  0  0  0  0  0  0
   -6.8406   -5.2057    3.7319 C   0  0  0  0  0  0  0  0  0  0  0  0
   -7.2536   -5.7770    4.9099 C   0  0  0  0  0  0  0  0  0  0  0  0
   -8.1938   -6.8239    5.0038 C   0  0  0  0  0  0  0  0  0  0  0  0
   -8.9477   -7.6756    5.1631 N   0  0  0  0  0  0  0  0  0  0  0  0
   -6.7995   -5.4300    6.1987 C   0  0  0  0  0  0  0  0  0  0  0  0
   -6.4831   -5.2126    7.2824 N   0  0  0  0  0  0  0  0  0  0  0  0
   -9.2092   -7.3936   -0.4035 C   0  0  0  0  0  0  0  0  0  0  0  0
   -8.7618   -8.8376   -0.7407 C   0  0  0  0  0  0  0  0  0  0  0  0
   -7.2923   -8.9206   -0.4096 C   0  0  0  0  0  0  0  0  0  0  0  0
   -6.6342   -8.1938   -1.3027 C   0  0  0  0  0  0  0  0  0  0  0  0
   -7.6470   -7.6057   -2.2539 C   0  0  0  0  0  0  0  0  0  0  0  0
   -8.6887   -8.7357   -2.2728 C   0  0  0  0  0  0  0  0  0  0  0  0
   -8.4338   -6.5379   -1.4543 C   0  0  0  0  0  0  0  0  0  0  0  0
   -4.2346   -2.4990    4.5562 C   0  0  0  0  0  0  0  0  0  0  0  0
   -3.7013   -1.9068    5.7155 C   0  0  0  0  0  0  0  0  0  0  0  0
   -4.1765   -2.1457    7.1114 C   0  0  0  0  0  0  0  0  0  0  0  0
   -5.4203   -1.3059    7.4145 C   0  0  0  0  0  0  0  0  0  0  0  0
   -2.6797   -1.0190    5.4071 C   0  0  0  0  0  0  0  0  0  0  0  0
   -2.4062   -0.9188    4.0315 C   0  0  0  0  0  0  0  0  0  0  0  0
   -3.4490   -1.9134    3.0893 S   0  0  0  0  0  0  0  0  0  0  0  0
   -1.3423   -0.0480    3.7903 C   0  0  0  0  0  0  0  0  0  0  0  0
   -0.8056    0.4885    4.9683 C   0  0  0  0  0  0  0  0  0  0  0  0
   -1.6238   -0.0301    6.4015 S   0  0  0  0  0  0  0  0  0  0  0  0
    0.3228    1.2375    4.6042 C   0  0  0  0  0  0  0  0  0  0  0  0
    1.3246    1.8381    5.4125 C   0  0  0  0  0  0  0  0  0  0  0  0
    1.1938    1.8889    6.7430 N   0  0  0  0  0  0  0  0  0  0  0  0
    2.1939    2.3795    7.4450 C   0  0  0  0  0  0  0  0  0  0  0  0
    2.0197    2.4324    8.9266 C   0  0  0  0  0  0  0  0  0  0  0  0
    3.3811    2.8293    6.8159 C   0  0  0  0  0  0  0  0  0  0  0  0
    4.5315    3.3670    7.6008 C   0  0  0  0  0  0  0  0  0  0  0  0
    3.5150    2.7941    5.5066 N   0  0  0  0  0  0  0  0  0  0  0  0
    2.4977    2.3131    4.7827 C   0  0  0  0  0  0  0  0  0  0  0  0
    2.5583    2.2891    3.3641 C   0  0  0  0  0  0  0  0  0  0  0  0
    3.5672    2.7102    2.4825 C   0  0  0  0  0  0  0  0  0  0  0  0
    5.1859    3.3187    2.5334 S   0  0  0  0  0  0  0  0  0  0  0  0
    5.2083    3.3308    0.7777 C   0  0  0  0  0  0  0  0  0  0  0  0
    6.1892    3.6534   -0.1504 C   0  0  0  0  0  0  0  0  0  0  0  0
    7.5654    4.0767    0.2476 C   0  0  0  0  0  0  0  0  0  0  0  0
    8.4997    2.8673    0.3411 C   0  0  0  0  0  0  0  0  0  0  0  0
    5.7347    3.4569   -1.4674 C   0  0  0  0  0  0  0  0  0  0  0  0
    4.0578    2.9052   -1.5178 S   0  0  0  0  0  0  0  0  0  0  0  0
    4.0013    2.8981    0.2023 C   0  0  0  0  0  0  0  0  0  0  0  0
    3.0746    2.5431    1.1828 C   0  0  0  0  0  0  0  0  0  0  0  0
    1.8046    2.0249    1.2200 N   0  0  0  0  0  0  0  0  0  0  0  0
    0.9189    2.2734    0.1022 C   0  0  0  0  0  0  0  0  0  0  0  0
    0.6827    3.7715   -0.0889 C   0  0  0  0  0  0  0  0  0  0  0  0
    1.4855    1.8269    2.5510 C   0  0  0  0  0  0  0  0  0  0  0  0
    0.4106    1.1674    3.1845 C   0  0  0  0  0  0  0  0  0  0  0  0
   -0.6084    0.3681    2.7117 N   0  0  0  0  0  0  0  0  0  0  0  0
   -0.7704   -0.2775    1.4281 C   0  0  0  0  0  0  0  0  0  0  0  0
   -1.9998    0.2343    0.6772 C   0  0  0  0  0  0  0  0  0  0  0  0
    6.5513    3.6222   -2.5905 C   0  0  0  0  0  0  0  0  0  0  0  0
    6.2868    3.4445   -3.9274 C   0  0  0  0  0  0  0  0  0  0  0  0
    4.9854    3.1299   -4.5203 C   0  0  0  0  0  0  0  0  0  0  0  0
    3.9314    2.9198   -3.9416 O   0  0  0  0  0  0  0  0  0  0  0  0
    5.1807    3.1314   -5.9795 C   0  0  0  0  0  0  0  0  0  0  0  0
    4.2099    2.9128   -6.9542 C   0  0  0  0  0  0  0  0  0  0  0  0
    4.6857    2.9848   -8.2413 C   0  0  0  0  0  0  0  0  0  0  0  0
    6.0275    3.2581   -8.5365 C   0  0  0  0  0  0  0  0  0  0  0  0
    6.9940    3.4785   -7.5835 C   0  0  0  0  0  0  0  0  0  0  0  0
    6.5326    3.4055   -6.2657 C   0  0  0  0  0  0  0  0  0  0  0  0
    7.2492    3.5789   -5.0017 C   0  0  0  0  0  0  0  0  0  0  0  0
    8.6015    3.7839   -4.8840 C   0  0  0  0  0  0  0  0  0  0  0  0
    9.3152    3.9088   -3.6746 C   0  0  0  0  0  0  0  0  0  0  0  0
    9.9757    4.0132   -2.7396 N   0  0  0  0  0  0  0  0  0  0  0  0
    9.4938    3.8744   -5.9722 C   0  0  0  0  0  0  0  0  0  0  0  0
   10.2822    3.9573   -6.8032 N   0  0  0  0  0  0  0  0  0  0  0  0
    5.7992    3.1784  -10.0258 C   0  0  0  0  0  0  0  0  0  0  0  0
    6.2648    1.8851  -10.7276 C   0  0  0  0  0  0  0  0  0  0  0  0
    5.4983    1.8851  -12.0306 C   0  0  0  0  0  0  0  0  0  0  0  0
    4.2272    1.6264  -11.7511 C   0  0  0  0  0  0  0  0  0  0  0  0
    4.1132    1.4472  -10.2544 C   0  0  0  0  0  0  0  0  0  0  0  0
    5.4792    0.8142   -9.9597 C   0  0  0  0  0  0  0  0  0  0  0  0
    4.3026    2.8735   -9.6961 C   0  0  0  0  0  0  0  0  0  0  0  0
   -5.5468   -3.7365    5.5877 H   0  0  0  0  0  0  0  0  0  0  0  0
   -6.2427   -4.3311   -0.6222 H   0  0  0  0  0  0  0  0  0  0  0  0
   -8.8066   -7.1366    2.7254 H   0  0  0  0  0  0  0  0  0  0  0  0
  -10.2921   -7.2940   -0.3633 H   0  0  0  0  0  0  0  0  0  0  0  0
   -9.3930   -9.6153   -0.3196 H   0  0  0  0  0  0  0  0  0  0  0  0
   -6.9002   -9.4360    0.4475 H   0  0  0  0  0  0  0  0  0  0  0  0
   -5.5819   -7.9805   -1.3410 H   0  0  0  0  0  0  0  0  0  0  0  0
   -7.2638   -7.2617   -3.2112 H   0  0  0  0  0  0  0  0  0  0  0  0
   -8.3140   -9.6461   -2.7381 H   0  0  0  0  0  0  0  0  0  0  0  0
   -9.6325   -8.4481   -2.7342 H   0  0  0  0  0  0  0  0  0  0  0  0
   -9.0107   -5.8778   -2.0993 H   0  0  0  0  0  0  0  0  0  0  0  0
   -3.3766   -1.8590    7.7968 H   0  0  0  0  0  0  0  0  0  0  0  0
   -4.4035   -3.2008    7.2731 H   0  0  0  0  0  0  0  0  0  0  0  0
   -6.2356   -1.5696    6.7448 H   0  0  0  0  0  0  0  0  0  0  0  0
   -5.7432   -1.4811    8.4369 H   0  0  0  0  0  0  0  0  0  0  0  0
   -5.2003   -0.2477    7.2935 H   0  0  0  0  0  0  0  0  0  0  0  0
    2.1072    3.4574    9.2842 H   0  0  0  0  0  0  0  0  0  0  0  0
    1.0390    2.0425    9.1838 H   0  0  0  0  0  0  0  0  0  0  0  0
    2.7859    1.8371    9.4212 H   0  0  0  0  0  0  0  0  0  0  0  0
    5.3303    3.6429    6.9185 H   0  0  0  0  0  0  0  0  0  0  0  0
    4.2264    4.2421    8.1728 H   0  0  0  0  0  0  0  0  0  0  0  0
    4.8968    2.6178    8.3017 H   0  0  0  0  0  0  0  0  0  0  0  0
    7.5032    4.5544    1.2276 H   0  0  0  0  0  0  0  0  0  0  0  0
    7.9757    4.7983   -0.4599 H   0  0  0  0  0  0  0  0  0  0  0  0
    8.1156    2.1484    1.0611 H   0  0  0  0  0  0  0  0  0  0  0  0
    9.4873    3.1889    0.6588 H   0  0  0  0  0  0  0  0  0  0  0  0
    8.5943    2.3786   -0.6255 H   0  0  0  0  0  0  0  0  0  0  0  0
   -0.0359    1.7918    0.2773 H   0  0  0  0  0  0  0  0  0  0  0  0
    1.3811    1.8565   -0.7978 H   0  0  0  0  0  0  0  0  0  0  0  0
    1.6109    4.2833   -0.3268 H   0  0  0  0  0  0  0  0  0  0  0  0
    0.2649    4.2067    0.8169 H   0  0  0  0  0  0  0  0  0  0  0  0
   -0.0145    3.9275   -0.9074 H   0  0  0  0  0  0  0  0  0  0  0  0
    0.1456   -0.1493    0.8503 H   0  0  0  0  0  0  0  0  0  0  0  0
   -0.9008   -1.3498    1.6110 H   0  0  0  0  0  0  0  0  0  0  0  0
   -2.0233    1.3216    0.6395 H   0  0  0  0  0  0  0  0  0  0  0  0
   -1.9980   -0.1543   -0.3371 H   0  0  0  0  0  0  0  0  0  0  0  0
   -2.9061   -0.1060    1.1701 H   0  0  0  0  0  0  0  0  0  0  0  0
    7.5592    3.9283   -2.3453 H   0  0  0  0  0  0  0  0  0  0  0  0
    3.1859    2.7114   -6.6809 H   0  0  0  0  0  0  0  0  0  0  0  0
    8.0194    3.6961   -7.8302 H   0  0  0  0  0  0  0  0  0  0  0  0
    6.0355    4.0780  -10.5909 H   0  0  0  0  0  0  0  0  0  0  0  0
    7.3427    1.7658  -10.7934 H   0  0  0  0  0  0  0  0  0  0  0  0
    5.9346    2.1211  -12.9834 H   0  0  0  0  0  0  0  0  0  0  0  0
    3.3898    1.6031  -12.4237 H   0  0  0  0  0  0  0  0  0  0  0  0
    3.2308    0.9281   -9.8895 H   0  0  0  0  0  0  0  0  0  0  0  0
    5.7236    0.7588   -8.9004 H   0  0  0  0  0  0  0  0  0  0  0  0
    5.5813   -0.1723  -10.4089 H   0  0  0  0  0  0  0  0  0  0  0  0
    3.5410    3.5705  -10.0414 H   0  0  0  0  0  0  0  0  0  0  0  0
  1  2  2  0  0  0  0
  2  3  1  0  0  0  0
  3  4  2  0  0  0  0
  3  5  1  0  0  0  0
  5  6  2  0  0  0  0
  6  7  1  0  0  0  0
  7  8  2  0  0  0  0
  8  9  1  0  0  0  0
  9 10  2  0  0  0  0
 10 11  1  0  0  0  0
 11 12  2  0  0  0  0
 12 13  1  0  0  0  0
 13 14  3  0  0  0  0
 12 15  1  0  0  0  0
 15 16  3  0  0  0  0
  8 17  1  0  0  0  0
 17 18  1  0  0  0  0
 18 19  1  0  0  0  0
 19 20  2  0  0  0  0
 20 21  1  0  0  0  0
 21 22  1  0  0  0  0
 21 23  1  0  0  0  0
  1 24  1  0  0  0  0
 24 25  2  0  0  0  0
 25 26  1  0  0  0  0
 26 27  1  0  0  0  0
 25 28  1  0  0  0  0
 28 29  2  0  0  0  0
 29 30  1  0  0  0  0
 29 31  1  0  0  0  0
 31 32  2  0  0  0  0
 32 33  1  0  0  0  0
 32 34  1  0  0  0  0
 34 35  2  0  0  0  0
 35 36  1  0  0  0  0
 36 37  2  0  0  0  0
 37 38  1  0  0  0  0
 37 39  1  0  0  0  0
 39 40  1  0  0  0  0
 39 41  2  0  0  0  0
 41 42  1  0  0  0  0
 42 43  2  0  0  0  0
 43 44  1  0  0  0  0
 44 45  1  0  0  0  0
 45 46  1  0  0  0  0
 46 47  1  0  0  0  0
 47 48  1  0  0  0  0
 48 49  1  0  0  0  0
 47 50  2  0  0  0  0
 50 51  1  0  0  0  0
 51 52  1  0  0  0  0
 52 53  1  0  0  0  0
 53 54  1  0  0  0  0
 54 55  1  0  0  0  0
 55 56  1  0  0  0  0
 54 57  1  0  0  0  0
 57 58  2  0  0  0  0
 58 59  1  0  0  0  0
 59 60  1  0  0  0  0
 60 61  1  0  0  0  0
 50 62  1  0  0  0  0
 62 63  2  0  0  0  0
 63 64  1  0  0  0  0
 64 65  2  0  0  0  0
 64 66  1  0  0  0  0
 66 67  2  0  0  0  0
 67 68  1  0  0  0  0
 68 69  2  0  0  0  0
 69 70  1  0  0  0  0
 70 71  2  0  0  0  0
 71 72  1  0  0  0  0
 72 73  2  0  0  0  0
 73 74  1  0  0  0  0
 74 75  3  0  0  0  0
 73 76  1  0  0  0  0
 76 77  3  0  0  0  0
 69 78  1  0  0  0  0
 78 79  1  0  0  0  0
 79 80  1  0  0  0  0
 80 81  2  0  0  0  0
 81 82  1  0  0  0  0
 82 83  1  0  0  0  0
 82 84  1  0  0  0  0
 11  2  1  0  0  0  0
 23 17  1  0  0  0  0
 30 24  1  0  0  0  0
 59 31  1  0  0  0  0
 72 63  1  0  0  0  0
 84 78  1  0  0  0  0
 10  5  1  0  0  0  0
 22 18  1  0  0  0  0
 33 28  1  0  0  0  0
 58 34  1  0  0  0  0
 71 66  1  0  0  0  0
 83 79  1  0  0  0  0
 23  7  1  0  0  0  0
 42 35  1  0  0  0  0
 57 43  1  0  0  0  0
 84 68  1  0  0  0  0
 53 44  2  0  0  0  0
 52 46  2  0  0  0  0
  1 85  1  0  0  0  0
  6 86  1  0  0  0  0
  9 87  1  0  0  0  0
 17 88  1  0  0  0  0
 18 89  1  0  0  0  0
 19 90  1  0  0  0  0
 20 91  1  0  0  0  0
 21 92  1  0  0  0  0
 22 93  1  0  0  0  0
 22 94  1  0  0  0  0
 23 95  1  0  0  0  0
 26 96  1  0  0  0  0
 26 97  1  0  0  0  0
 27 98  1  0  0  0  0
 27 99  1  0  0  0  0
 27100  1  0  0  0  0
 38101  1  0  0  0  0
 38102  1  0  0  0  0
 38103  1  0  0  0  0
 40104  1  0  0  0  0
 40105  1  0  0  0  0
 40106  1  0  0  0  0
 48107  1  0  0  0  0
 48108  1  0  0  0  0
 49109  1  0  0  0  0
 49110  1  0  0  0  0
 49111  1  0  0  0  0
 55112  1  0  0  0  0
 55113  1  0  0  0  0
 56114  1  0  0  0  0
 56115  1  0  0  0  0
 56116  1  0  0  0  0
 60117  1  0  0  0  0
 60118  1  0  0  0  0
 61119  1  0  0  0  0
 61120  1  0  0  0  0
 61121  1  0  0  0  0
 62122  1  0  0  0  0
 67123  1  0  0  0  0
 70124  1  0  0  0  0
 78125  1  0  0  0  0
 79126  1  0  0  0  0
 80127  1  0  0  0  0
 81128  1  0  0  0  0
 82129  1  0  0  0  0
 83130  1  0  0  0  0
 83131  1  0  0  0  0
 84132  1  0  0  0  0
M  END
