
  xtb     02022210583D
 energy: -261.245446440096 gnorm: 0.000283789317 xtb: 6.4.1 (unknown)
164184  0     0  0            999 V2000
   -2.9959   -3.1796   -7.2498 C   0  0  0  0  0  0  0  0  0  0  0  0
   -3.9160   -2.3224   -7.7646 C   0  0  0  0  0  0  0  0  0  0  0  0
   -4.5166   -2.5629   -9.1039 C   0  0  0  0  0  0  0  0  0  0  0  0
   -4.1427   -3.3634   -9.9312 O   0  0  0  0  0  0  0  0  0  0  0  0
   -5.6815   -1.6593   -9.1779 C   0  0  0  0  0  0  0  0  0  0  0  0
   -6.6221   -1.5770  -10.2034 C   0  0  0  0  0  0  0  0  0  0  0  0
   -7.6042   -0.6395   -9.9902 C   0  0  0  0  0  0  0  0  0  0  0  0
   -7.6658    0.1455   -8.8303 C   0  0  0  0  0  0  0  0  0  0  0  0
   -6.7462    0.0781   -7.8116 C   0  0  0  0  0  0  0  0  0  0  0  0
   -5.7235   -0.8515   -8.0215 C   0  0  0  0  0  0  0  0  0  0  0  0
   -4.5444   -1.1401   -7.2100 C   0  0  0  0  0  0  0  0  0  0  0  0
   -3.9943   -0.2822   -6.2933 C   0  0  0  0  0  0  0  0  0  0  0  0
   -4.6061    0.9124   -5.8626 C   0  0  0  0  0  0  0  0  0  0  0  0
   -5.0617    1.8863   -5.4593 N   0  0  0  0  0  0  0  0  0  0  0  0
   -2.7007   -0.4183   -5.7465 C   0  0  0  0  0  0  0  0  0  0  0  0
   -1.6363   -0.4161   -5.3155 N   0  0  0  0  0  0  0  0  0  0  0  0
   -8.9094    0.8661   -9.2865 C   0  0  0  0  0  0  0  0  0  0  0  0
   -8.7102    2.3013   -9.8180 C   0  0  0  0  0  0  0  0  0  0  0  0
   -9.9616    2.5671  -10.6230 C   0  0  0  0  0  0  0  0  0  0  0  0
   -9.8954    1.8323  -11.7260 C   0  0  0  0  0  0  0  0  0  0  0  0
   -8.5981    1.0570  -11.6846 C   0  0  0  0  0  0  0  0  0  0  0  0
   -7.7079    2.0728  -10.9569 C   0  0  0  0  0  0  0  0  0  0  0  0
   -8.8347   -0.0004  -10.5845 C   0  0  0  0  0  0  0  0  0  0  0  0
   -2.6062   -3.2785   -5.8903 C   0  0  0  0  0  0  0  0  0  0  0  0
   -3.3668   -3.0222   -4.7650 C   0  0  0  0  0  0  0  0  0  0  0  0
   -2.6263   -3.1566   -3.5958 C   0  0  0  0  0  0  0  0  0  0  0  0
   -2.9719   -2.8538   -1.9179 S   0  0  0  0  0  0  0  0  0  0  0  0
   -1.2950   -3.0907   -1.5527 C   0  0  0  0  0  0  0  0  0  0  0  0
   -0.4676   -2.8431   -0.4132 C   0  0  0  0  0  0  0  0  0  0  0  0
   -0.7927   -2.4339    0.8769 C   0  0  0  0  0  0  0  0  0  0  0  0
    0.2497   -2.1117    1.7133 C   0  0  0  0  0  0  0  0  0  0  0  0
    0.1766   -1.5435    3.1197 C   0  0  0  0  0  0  0  0  0  0  0  0
   -0.1730   -2.5774    4.1778 C   0  0  0  0  0  0  0  0  0  0  0  0
   -0.3856   -2.1506    5.4836 C   0  0  0  0  0  0  0  0  0  0  0  0
   -0.6482   -3.0637    6.4853 C   0  0  0  0  0  0  0  0  0  0  0  0
   -0.7015   -4.4252    6.2118 C   0  0  0  0  0  0  0  0  0  0  0  0
   -1.0311   -5.4114    7.2949 C   0  0  0  0  0  0  0  0  0  0  0  0
   -2.5462   -5.5901    7.4116 C   0  0  0  0  0  0  0  0  0  0  0  0
   -0.4868   -4.8447    4.9066 C   0  0  0  0  0  0  0  0  0  0  0  0
   -0.2186   -3.9348    3.8988 C   0  0  0  0  0  0  0  0  0  0  0  0
   -0.7825   -0.3711    3.1409 C   0  0  0  0  0  0  0  0  0  0  0  0
   -0.3495    0.9132    2.8434 C   0  0  0  0  0  0  0  0  0  0  0  0
   -1.2428    1.9683    2.8287 C   0  0  0  0  0  0  0  0  0  0  0  0
   -2.5894    1.7675    3.0996 C   0  0  0  0  0  0  0  0  0  0  0  0
   -3.5650    2.9070    3.0383 C   0  0  0  0  0  0  0  0  0  0  0  0
   -4.1302    3.0499    1.6236 C   0  0  0  0  0  0  0  0  0  0  0  0
   -3.0206    0.4771    3.3786 C   0  0  0  0  0  0  0  0  0  0  0  0
   -2.1312   -0.5800    3.3993 C   0  0  0  0  0  0  0  0  0  0  0  0
    1.6166   -1.1664    3.3412 C   0  0  0  0  0  0  0  0  0  0  0  0
    2.4037   -1.6068    2.2898 C   0  0  0  0  0  0  0  0  0  0  0  0
    1.5907   -2.1895    1.2673 C   0  0  0  0  0  0  0  0  0  0  0  0
    1.9174   -2.6646   -0.0004 C   0  0  0  0  0  0  0  0  0  0  0  0
    0.8753   -2.9844   -0.8388 C   0  0  0  0  0  0  0  0  0  0  0  0
    0.9396   -3.4342   -2.2895 C   0  0  0  0  0  0  0  0  0  0  0  0
    1.5705   -2.4234   -3.2309 C   0  0  0  0  0  0  0  0  0  0  0  0
    2.0047   -2.8330   -4.4851 C   0  0  0  0  0  0  0  0  0  0  0  0
    2.4442   -1.9053   -5.4095 C   0  0  0  0  0  0  0  0  0  0  0  0
    2.4484   -0.5491   -5.1115 C   0  0  0  0  0  0  0  0  0  0  0  0
    2.8322    0.4608   -6.1530 C   0  0  0  0  0  0  0  0  0  0  0  0
    1.6216    0.7815   -7.0324 C   0  0  0  0  0  0  0  0  0  0  0  0
    2.0172   -0.1473   -3.8552 C   0  0  0  0  0  0  0  0  0  0  0  0
    1.5791   -1.0704   -2.9244 C   0  0  0  0  0  0  0  0  0  0  0  0
    1.6037   -4.7941   -2.3441 C   0  0  0  0  0  0  0  0  0  0  0  0
    0.8516   -5.9600   -2.3333 C   0  0  0  0  0  0  0  0  0  0  0  0
    1.4730   -7.1954   -2.3388 C   0  0  0  0  0  0  0  0  0  0  0  0
    2.8571   -7.2981   -2.3450 C   0  0  0  0  0  0  0  0  0  0  0  0
    3.5290   -8.6400   -2.3945 C   0  0  0  0  0  0  0  0  0  0  0  0
    3.7682   -9.0658   -3.8445 C   0  0  0  0  0  0  0  0  0  0  0  0
    3.6053   -6.1275   -2.3516 C   0  0  0  0  0  0  0  0  0  0  0  0
    2.9896   -4.8909   -2.3482 C   0  0  0  0  0  0  0  0  0  0  0  0
   -0.5226   -3.4378   -2.6463 C   0  0  0  0  0  0  0  0  0  0  0  0
   -1.2770   -3.4869   -3.8167 C   0  0  0  0  0  0  0  0  0  0  0  0
   -0.9599   -3.7403   -5.4860 S   0  0  0  0  0  0  0  0  0  0  0  0
    4.0781   -1.1950    2.4388 S   0  0  0  0  0  0  0  0  0  0  0  0
    3.7231   -0.3691    3.9308 C   0  0  0  0  0  0  0  0  0  0  0  0
    4.4796    0.4230    4.7843 C   0  0  0  0  0  0  0  0  0  0  0  0
    3.7178    0.9471    5.8149 C   0  0  0  0  0  0  0  0  0  0  0  0
    2.0397    0.3871    5.7396 S   0  0  0  0  0  0  0  0  0  0  0  0
    2.3632   -0.4727    4.2889 C   0  0  0  0  0  0  0  0  0  0  0  0
    4.0175    1.8435    6.8604 C   0  0  0  0  0  0  0  0  0  0  0  0
    5.0657    2.7065    7.0161 C   0  0  0  0  0  0  0  0  0  0  0  0
    6.1243    3.0503    6.0379 C   0  0  0  0  0  0  0  0  0  0  0  0
    6.4776    2.4370    5.0518 O   0  0  0  0  0  0  0  0  0  0  0  0
    6.6807    4.3387    6.4934 C   0  0  0  0  0  0  0  0  0  0  0  0
    7.6111    5.1264    5.8198 C   0  0  0  0  0  0  0  0  0  0  0  0
    7.9128    6.3045    6.4590 C   0  0  0  0  0  0  0  0  0  0  0  0
    7.3364    6.6718    7.6828 C   0  0  0  0  0  0  0  0  0  0  0  0
    6.4295    5.8967    8.3656 C   0  0  0  0  0  0  0  0  0  0  0  0
    6.1055    4.6953    7.7288 C   0  0  0  0  0  0  0  0  0  0  0  0
    5.1777    3.6410    8.1242 C   0  0  0  0  0  0  0  0  0  0  0  0
    4.5815    3.5200    9.3517 C   0  0  0  0  0  0  0  0  0  0  0  0
    3.7758    2.4345    9.7575 C   0  0  0  0  0  0  0  0  0  0  0  0
    3.1321    1.5778   10.1708 N   0  0  0  0  0  0  0  0  0  0  0  0
    4.7405    4.4433   10.4059 C   0  0  0  0  0  0  0  0  0  0  0  0
    4.8231    5.1566   11.3019 N   0  0  0  0  0  0  0  0  0  0  0  0
    8.0658    7.9912    7.7208 C   0  0  0  0  0  0  0  0  0  0  0  0
    7.2662    9.2654    7.3508 C   0  0  0  0  0  0  0  0  0  0  0  0
    6.1559    8.8244    6.4297 C   0  0  0  0  0  0  0  0  0  0  0  0
    6.7035    8.4757    5.2732 C   0  0  0  0  0  0  0  0  0  0  0  0
    8.1944    8.6748    5.3914 C   0  0  0  0  0  0  0  0  0  0  0  0
    8.2311    9.8908    6.3307 C   0  0  0  0  0  0  0  0  0  0  0  0
    8.7101    7.5806    6.3592 C   0  0  0  0  0  0  0  0  0  0  0  0
   -2.5437   -3.8750   -7.9487 H   0  0  0  0  0  0  0  0  0  0  0  0
   -6.5471   -2.2074  -11.0754 H   0  0  0  0  0  0  0  0  0  0  0  0
   -6.8065    0.6804   -6.9201 H   0  0  0  0  0  0  0  0  0  0  0  0
   -9.7811    0.7662   -8.6427 H   0  0  0  0  0  0  0  0  0  0  0  0
   -8.4492    3.0345   -9.0599 H   0  0  0  0  0  0  0  0  0  0  0  0
  -10.7647    3.1994  -10.2926 H   0  0  0  0  0  0  0  0  0  0  0  0
  -10.6320    1.7281  -12.5008 H   0  0  0  0  0  0  0  0  0  0  0  0
   -8.2358    0.6588  -12.6286 H   0  0  0  0  0  0  0  0  0  0  0  0
   -6.7495    1.6726  -10.6314 H   0  0  0  0  0  0  0  0  0  0  0  0
   -7.5442    2.9729  -11.5471 H   0  0  0  0  0  0  0  0  0  0  0  0
   -9.6595   -0.6731  -10.8123 H   0  0  0  0  0  0  0  0  0  0  0  0
   -4.4110   -2.7676   -4.8001 H   0  0  0  0  0  0  0  0  0  0  0  0
   -1.8221   -2.3375    1.1859 H   0  0  0  0  0  0  0  0  0  0  0  0
   -0.3484   -1.0953    5.7131 H   0  0  0  0  0  0  0  0  0  0  0  0
   -0.8075   -2.7147    7.4952 H   0  0  0  0  0  0  0  0  0  0  0  0
   -0.6367   -5.0570    8.2492 H   0  0  0  0  0  0  0  0  0  0  0  0
   -0.5708   -6.3758    7.0710 H   0  0  0  0  0  0  0  0  0  0  0  0
   -2.7862   -6.3020    8.1978 H   0  0  0  0  0  0  0  0  0  0  0  0
   -2.9572   -5.9565    6.4733 H   0  0  0  0  0  0  0  0  0  0  0  0
   -3.0217   -4.6403    7.6456 H   0  0  0  0  0  0  0  0  0  0  0  0
   -0.5223   -5.8992    4.6722 H   0  0  0  0  0  0  0  0  0  0  0  0
   -0.0450   -4.2877    2.8926 H   0  0  0  0  0  0  0  0  0  0  0  0
    0.6923    1.0947    2.6215 H   0  0  0  0  0  0  0  0  0  0  0  0
   -0.8866    2.9635    2.6037 H   0  0  0  0  0  0  0  0  0  0  0  0
   -3.0673    3.8362    3.3230 H   0  0  0  0  0  0  0  0  0  0  0  0
   -4.3849    2.7302    3.7374 H   0  0  0  0  0  0  0  0  0  0  0  0
   -4.6433    2.1379    1.3266 H   0  0  0  0  0  0  0  0  0  0  0  0
   -4.8354    3.8764    1.5772 H   0  0  0  0  0  0  0  0  0  0  0  0
   -3.3286    3.2364    0.9125 H   0  0  0  0  0  0  0  0  0  0  0  0
   -4.0659    0.2976    3.5863 H   0  0  0  0  0  0  0  0  0  0  0  0
   -2.4847   -1.5750    3.6293 H   0  0  0  0  0  0  0  0  0  0  0  0
    2.9465   -2.7268   -0.3178 H   0  0  0  0  0  0  0  0  0  0  0  0
    1.9909   -3.8827   -4.7418 H   0  0  0  0  0  0  0  0  0  0  0  0
    2.7738   -2.2399   -6.3827 H   0  0  0  0  0  0  0  0  0  0  0  0
    3.6389    0.0690   -6.7764 H   0  0  0  0  0  0  0  0  0  0  0  0
    3.1832    1.3763   -5.6729 H   0  0  0  0  0  0  0  0  0  0  0  0
    1.8743    1.5398   -7.7703 H   0  0  0  0  0  0  0  0  0  0  0  0
    0.7984    1.1446   -6.4215 H   0  0  0  0  0  0  0  0  0  0  0  0
    1.2849   -0.1129   -7.5517 H   0  0  0  0  0  0  0  0  0  0  0  0
    2.0077    0.9037   -3.6049 H   0  0  0  0  0  0  0  0  0  0  0  0
    1.2284   -0.7331   -1.9596 H   0  0  0  0  0  0  0  0  0  0  0  0
   -0.2275   -5.9051   -2.3223 H   0  0  0  0  0  0  0  0  0  0  0  0
    0.8714   -8.0933   -2.3344 H   0  0  0  0  0  0  0  0  0  0  0  0
    4.4859   -8.5944   -1.8706 H   0  0  0  0  0  0  0  0  0  0  0  0
    2.9035   -9.3856   -1.8994 H   0  0  0  0  0  0  0  0  0  0  0  0
    4.2519  -10.0392   -3.8805 H   0  0  0  0  0  0  0  0  0  0  0  0
    2.8242   -9.1266   -4.3814 H   0  0  0  0  0  0  0  0  0  0  0  0
    4.4034   -8.3428   -4.3513 H   0  0  0  0  0  0  0  0  0  0  0  0
    4.6845   -6.1855   -2.3570 H   0  0  0  0  0  0  0  0  0  0  0  0
    3.5886   -3.9921   -2.3639 H   0  0  0  0  0  0  0  0  0  0  0  0
    5.5250    0.6338    4.6615 H   0  0  0  0  0  0  0  0  0  0  0  0
    3.2340    1.9008    7.6084 H   0  0  0  0  0  0  0  0  0  0  0  0
    8.0276    4.8078    4.8770 H   0  0  0  0  0  0  0  0  0  0  0  0
    5.9907    6.1933    9.3038 H   0  0  0  0  0  0  0  0  0  0  0  0
    8.7257    8.1484    8.5715 H   0  0  0  0  0  0  0  0  0  0  0  0
    6.9710    9.8752    8.2005 H   0  0  0  0  0  0  0  0  0  0  0  0
    5.1245    8.7590    6.7234 H   0  0  0  0  0  0  0  0  0  0  0  0
    6.2211    8.0603    4.4078 H   0  0  0  0  0  0  0  0  0  0  0  0
    8.7445    8.7470    4.4568 H   0  0  0  0  0  0  0  0  0  0  0  0
    7.8296   10.7917    5.8688 H   0  0  0  0  0  0  0  0  0  0  0  0
    9.2204   10.0954    6.7376 H   0  0  0  0  0  0  0  0  0  0  0  0
    9.7919    7.4684    6.3205 H   0  0  0  0  0  0  0  0  0  0  0  0
  1  2  2  0  0  0  0
  2  3  1  0  0  0  0
  3  4  2  0  0  0  0
  3  5  1  0  0  0  0
  5  6  2  0  0  0  0
  6  7  1  0  0  0  0
  7  8  2  0  0  0  0
  8  9  1  0  0  0  0
  9 10  2  0  0  0  0
 10 11  1  0  0  0  0
 11 12  2  0  0  0  0
 12 13  1  0  0  0  0
 13 14  3  0  0  0  0
 12 15  1  0  0  0  0
 15 16  3  0  0  0  0
  8 17  1  0  0  0  0
 17 18  1  0  0  0  0
 18 19  1  0  0  0  0
 19 20  2  0  0  0  0
 20 21  1  0  0  0  0
 21 22  1  0  0  0  0
 21 23  1  0  0  0  0
  1 24  1  0  0  0  0
 24 25  2  0  0  0  0
 25 26  1  0  0  0  0
 26 27  1  0  0  0  0
 27 28  1  0  0  0  0
 28 29  1  0  0  0  0
 29 30  2  0  0  0  0
 30 31  1  0  0  0  0
 31 32  1  0  0  0  0
 32 33  1  0  0  0  0
 33 34  2  0  0  0  0
 34 35  1  0  0  0  0
 35 36  2  0  0  0  0
 36 37  1  0  0  0  0
 37 38  1  0  0  0  0
 36 39  1  0  0  0  0
 39 40  2  0  0  0  0
 32 41  1  0  0  0  0
 41 42  2  0  0  0  0
 42 43  1  0  0  0  0
 43 44  2  0  0  0  0
 44 45  1  0  0  0  0
 45 46  1  0  0  0  0
 44 47  1  0  0  0  0
 47 48  2  0  0  0  0
 32 49  1  0  0  0  0
 49 50  2  0  0  0  0
 50 51  1  0  0  0  0
 51 52  1  0  0  0  0
 52 53  2  0  0  0  0
 53 54  1  0  0  0  0
 54 55  1  0  0  0  0
 55 56  2  0  0  0  0
 56 57  1  0  0  0  0
 57 58  2  0  0  0  0
 58 59  1  0  0  0  0
 59 60  1  0  0  0  0
 58 61  1  0  0  0  0
 61 62  2  0  0  0  0
 54 63  1  0  0  0  0
 63 64  2  0  0  0  0
 64 65  1  0  0  0  0
 65 66  2  0  0  0  0
 66 67  1  0  0  0  0
 67 68  1  0  0  0  0
 66 69  1  0  0  0  0
 69 70  2  0  0  0  0
 54 71  1  0  0  0  0
 71 72  1  0  0  0  0
 72 73  1  0  0  0  0
 50 74  1  0  0  0  0
 74 75  1  0  0  0  0
 75 76  1  0  0  0  0
 76 77  2  0  0  0  0
 77 78  1  0  0  0  0
 78 79  1  0  0  0  0
 77 80  1  0  0  0  0
 80 81  2  0  0  0  0
 81 82  1  0  0  0  0
 82 83  2  0  0  0  0
 82 84  1  0  0  0  0
 84 85  2  0  0  0  0
 85 86  1  0  0  0  0
 86 87  2  0  0  0  0
 87 88  1  0  0  0  0
 88 89  2  0  0  0  0
 89 90  1  0  0  0  0
 90 91  2  0  0  0  0
 91 92  1  0  0  0  0
 92 93  3  0  0  0  0
 91 94  1  0  0  0  0
 94 95  3  0  0  0  0
 87 96  1  0  0  0  0
 96 97  1  0  0  0  0
 97 98  1  0  0  0  0
 98 99  2  0  0  0  0
 99100  1  0  0  0  0
100101  1  0  0  0  0
100102  1  0  0  0  0
 11  2  1  0  0  0  0
 23 17  1  0  0  0  0
 73 24  1  0  0  0  0
 79 75  2  0  0  0  0
 90 81  1  0  0  0  0
102 96  1  0  0  0  0
 10  5  1  0  0  0  0
 22 18  1  0  0  0  0
 72 26  2  0  0  0  0
 89 84  1  0  0  0  0
101 97  1  0  0  0  0
 23  7  1  0  0  0  0
 71 28  2  0  0  0  0
102 86  1  0  0  0  0
 53 29  1  0  0  0  0
 62 55  1  0  0  0  0
 70 63  1  0  0  0  0
 51 31  2  0  0  0  0
 40 33  1  0  0  0  0
 48 41  1  0  0  0  0
 79 49  1  0  0  0  0
  1103  1  0  0  0  0
  6104  1  0  0  0  0
  9105  1  0  0  0  0
 17106  1  0  0  0  0
 18107  1  0  0  0  0
 19108  1  0  0  0  0
 20109  1  0  0  0  0
 21110  1  0  0  0  0
 22111  1  0  0  0  0
 22112  1  0  0  0  0
 23113  1  0  0  0  0
 25114  1  0  0  0  0
 30115  1  0  0  0  0
 34116  1  0  0  0  0
 35117  1  0  0  0  0
 37118  1  0  0  0  0
 37119  1  0  0  0  0
 38120  1  0  0  0  0
 38121  1  0  0  0  0
 38122  1  0  0  0  0
 39123  1  0  0  0  0
 40124  1  0  0  0  0
 42125  1  0  0  0  0
 43126  1  0  0  0  0
 45127  1  0  0  0  0
 45128  1  0  0  0  0
 46129  1  0  0  0  0
 46130  1  0  0  0  0
 46131  1  0  0  0  0
 47132  1  0  0  0  0
 48133  1  0  0  0  0
 52134  1  0  0  0  0
 56135  1  0  0  0  0
 57136  1  0  0  0  0
 59137  1  0  0  0  0
 59138  1  0  0  0  0
 60139  1  0  0  0  0
 60140  1  0  0  0  0
 60141  1  0  0  0  0
 61142  1  0  0  0  0
 62143  1  0  0  0  0
 64144  1  0  0  0  0
 65145  1  0  0  0  0
 67146  1  0  0  0  0
 67147  1  0  0  0  0
 68148  1  0  0  0  0
 68149  1  0  0  0  0
 68150  1  0  0  0  0
 69151  1  0  0  0  0
 70152  1  0  0  0  0
 76153  1  0  0  0  0
 80154  1  0  0  0  0
 85155  1  0  0  0  0
 88156  1  0  0  0  0
 96157  1  0  0  0  0
 97158  1  0  0  0  0
 98159  1  0  0  0  0
 99160  1  0  0  0  0
100161  1  0  0  0  0
101162  1  0  0  0  0
101163  1  0  0  0  0
102164  1  0  0  0  0
M  END
