
  xtb     02022222453D
 energy: -198.692185497460 gnorm: 0.000283696078 xtb: 6.4.1 (unknown)
116130  0     0  0            999 V2000
    4.9267    3.9482   -1.0569 C   0  0  0  0  0  0  0  0  0  0  0  0
    5.7662    3.2110   -1.8552 C   0  0  0  0  0  0  0  0  0  0  0  0
    5.5258    1.8525   -2.3464 C   0  0  0  0  0  0  0  0  0  0  0  0
    4.5598    1.1404   -2.1234 O   0  0  0  0  0  0  0  0  0  0  0  0
    6.6855    1.5012   -3.1828 C   0  0  0  0  0  0  0  0  0  0  0  0
    6.8928    0.3085   -3.8708 C   0  0  0  0  0  0  0  0  0  0  0  0
    8.0695    0.2694   -4.5796 C   0  0  0  0  0  0  0  0  0  0  0  0
    8.9766    1.3367   -4.5966 C   0  0  0  0  0  0  0  0  0  0  0  0
    8.7851    2.5175   -3.9187 C   0  0  0  0  0  0  0  0  0  0  0  0
    7.5904    2.5817   -3.1969 C   0  0  0  0  0  0  0  0  0  0  0  0
    7.0419    3.6602   -2.3746 C   0  0  0  0  0  0  0  0  0  0  0  0
    7.6507    4.8703   -2.1518 C   0  0  0  0  0  0  0  0  0  0  0  0
    7.1428    5.9193   -1.3583 C   0  0  0  0  0  0  0  0  0  0  0  0
    6.8080    6.8223   -0.7304 N   0  0  0  0  0  0  0  0  0  0  0  0
    8.8965    5.2511   -2.6921 C   0  0  0  0  0  0  0  0  0  0  0  0
    9.9010    5.6373   -3.0932 N   0  0  0  0  0  0  0  0  0  0  0  0
    9.9298    0.6167   -5.5172 C   0  0  0  0  0  0  0  0  0  0  0  0
    9.9450    1.0353   -7.0082 C   0  0  0  0  0  0  0  0  0  0  0  0
    8.5770    1.5950   -7.3099 C   0  0  0  0  0  0  0  0  0  0  0  0
    7.7152    0.5868   -7.2960 C   0  0  0  0  0  0  0  0  0  0  0  0
    8.4851   -0.6729   -6.9850 C   0  0  0  0  0  0  0  0  0  0  0  0
    9.8232   -0.3477   -7.6678 C   0  0  0  0  0  0  0  0  0  0  0  0
    8.9171   -0.5716   -5.5008 C   0  0  0  0  0  0  0  0  0  0  0  0
    3.6845    3.6372   -0.4949 C   0  0  0  0  0  0  0  0  0  0  0  0
    2.9618    4.5396    0.3052 C   0  0  0  0  0  0  0  0  0  0  0  0
    3.4115    5.9059    0.7085 C   0  0  0  0  0  0  0  0  0  0  0  0
    4.3347    5.8354    1.9280 C   0  0  0  0  0  0  0  0  0  0  0  0
    1.7691    3.9831    0.7458 C   0  0  0  0  0  0  0  0  0  0  0  0
    1.5496    2.6678    0.2993 C   0  0  0  0  0  0  0  0  0  0  0  0
    2.8424    2.0983   -0.6884 S   0  0  0  0  0  0  0  0  0  0  0  0
    0.3322    2.1741    0.7750 C   0  0  0  0  0  0  0  0  0  0  0  0
   -0.3467    3.0995    1.5767 C   0  0  0  0  0  0  0  0  0  0  0  0
    0.4782    4.6072    1.7563 S   0  0  0  0  0  0  0  0  0  0  0  0
   -1.5064    2.4680    2.0448 C   0  0  0  0  0  0  0  0  0  0  0  0
   -2.4649    2.9262    2.9853 C   0  0  0  0  0  0  0  0  0  0  0  0
   -2.3943    4.1602    3.4986 N   0  0  0  0  0  0  0  0  0  0  0  0
   -3.2824    4.4998    4.4092 C   0  0  0  0  0  0  0  0  0  0  0  0
   -3.1887    5.8824    4.9643 C   0  0  0  0  0  0  0  0  0  0  0  0
   -4.2783    3.5884    4.8417 C   0  0  0  0  0  0  0  0  0  0  0  0
   -5.2816    3.9565    5.8839 C   0  0  0  0  0  0  0  0  0  0  0  0
   -4.3605    2.3759    4.3353 N   0  0  0  0  0  0  0  0  0  0  0  0
   -3.4685    2.0263    3.4010 C   0  0  0  0  0  0  0  0  0  0  0  0
   -3.5331    0.7580    2.7681 C   0  0  0  0  0  0  0  0  0  0  0  0
   -4.4846   -0.2605    2.9157 C   0  0  0  0  0  0  0  0  0  0  0  0
   -5.8898   -0.6028    3.8607 S   0  0  0  0  0  0  0  0  0  0  0  0
   -6.0811   -2.1026    2.9716 C   0  0  0  0  0  0  0  0  0  0  0  0
   -7.0209   -3.1213    3.0479 C   0  0  0  0  0  0  0  0  0  0  0  0
   -8.1789   -3.0825    3.9909 C   0  0  0  0  0  0  0  0  0  0  0  0
   -9.4206   -2.5056    3.3056 C   0  0  0  0  0  0  0  0  0  0  0  0
   -6.7632   -4.1282    2.1014 C   0  0  0  0  0  0  0  0  0  0  0  0
   -5.3271   -3.7814    1.1354 S   0  0  0  0  0  0  0  0  0  0  0  0
   -5.0915   -2.3063    1.9932 C   0  0  0  0  0  0  0  0  0  0  0  0
   -4.1771   -1.2503    1.9762 C   0  0  0  0  0  0  0  0  0  0  0  0
   -3.0486   -0.9027    1.2764 N   0  0  0  0  0  0  0  0  0  0  0  0
   -2.8390   -1.5187   -0.0163 C   0  0  0  0  0  0  0  0  0  0  0  0
   -3.6300   -0.7894   -1.1006 C   0  0  0  0  0  0  0  0  0  0  0  0
   -2.6305    0.3302    1.7522 C   0  0  0  0  0  0  0  0  0  0  0  0
   -1.5221    1.1633    1.4691 C   0  0  0  0  0  0  0  0  0  0  0  0
   -0.3758    1.0031    0.7170 N   0  0  0  0  0  0  0  0  0  0  0  0
    0.2535   -0.1860    0.1903 C   0  0  0  0  0  0  0  0  0  0  0  0
    0.1849   -0.2462   -1.3349 C   0  0  0  0  0  0  0  0  0  0  0  0
   -7.5679   -5.2627    1.9576 C   0  0  0  0  0  0  0  0  0  0  0  0
   -7.4867   -6.3286    1.0973 C   0  0  0  0  0  0  0  0  0  0  0  0
   -6.4596   -6.5466    0.0621 C   0  0  0  0  0  0  0  0  0  0  0  0
   -5.5139   -5.8301   -0.2156 O   0  0  0  0  0  0  0  0  0  0  0  0
   -6.8265   -7.8163   -0.5553 C   0  0  0  0  0  0  0  0  0  0  0  0
   -6.2125   -8.8110   -1.8018 S   0  0  0  0  0  0  0  0  0  0  0  0
   -7.4930   -9.9357   -1.5367 C   0  0  0  0  0  0  0  0  0  0  0  0
   -8.3525   -9.5721   -0.5424 C   0  0  0  0  0  0  0  0  0  0  0  0
   -7.9691   -8.3436    0.0293 C   0  0  0  0  0  0  0  0  0  0  0  0
   -8.4202   -7.4403    1.0725 C   0  0  0  0  0  0  0  0  0  0  0  0
   -9.5297   -7.6519    1.8512 C   0  0  0  0  0  0  0  0  0  0  0  0
  -10.3368   -8.7974    1.6908 C   0  0  0  0  0  0  0  0  0  0  0  0
  -11.0098   -9.7205    1.5799 N   0  0  0  0  0  0  0  0  0  0  0  0
  -10.0058   -6.8038    2.8691 C   0  0  0  0  0  0  0  0  0  0  0  0
  -10.4525   -6.1618    3.7113 N   0  0  0  0  0  0  0  0  0  0  0  0
    5.2664    4.9445   -0.8097 H   0  0  0  0  0  0  0  0  0  0  0  0
    6.1683   -0.4897   -3.8269 H   0  0  0  0  0  0  0  0  0  0  0  0
    9.4951    3.3270   -3.9436 H   0  0  0  0  0  0  0  0  0  0  0  0
   10.9295    0.4401   -5.1254 H   0  0  0  0  0  0  0  0  0  0  0  0
   10.7907    1.6547   -7.2944 H   0  0  0  0  0  0  0  0  0  0  0  0
    8.3740    2.6417   -7.4410 H   0  0  0  0  0  0  0  0  0  0  0  0
    6.6478    0.6232   -7.4129 H   0  0  0  0  0  0  0  0  0  0  0  0
    8.0015   -1.6091   -7.2515 H   0  0  0  0  0  0  0  0  0  0  0  0
    9.7399   -0.2912   -8.7521 H   0  0  0  0  0  0  0  0  0  0  0  0
   10.6267   -1.0306   -7.3955 H   0  0  0  0  0  0  0  0  0  0  0  0
    9.2566   -1.5255   -5.1017 H   0  0  0  0  0  0  0  0  0  0  0  0
    2.5272    6.4927    0.9649 H   0  0  0  0  0  0  0  0  0  0  0  0
    3.9303    6.4080   -0.1092 H   0  0  0  0  0  0  0  0  0  0  0  0
    3.8199    5.3692    2.7650 H   0  0  0  0  0  0  0  0  0  0  0  0
    5.2274    5.2570    1.7020 H   0  0  0  0  0  0  0  0  0  0  0  0
    4.6392    6.8369    2.2175 H   0  0  0  0  0  0  0  0  0  0  0  0
   -3.0301    5.8503    6.0412 H   0  0  0  0  0  0  0  0  0  0  0  0
   -2.3583    6.3998    4.4927 H   0  0  0  0  0  0  0  0  0  0  0  0
   -4.1105    6.4310    4.7764 H   0  0  0  0  0  0  0  0  0  0  0  0
   -5.9429    3.1120    6.0552 H   0  0  0  0  0  0  0  0  0  0  0  0
   -4.7832    4.2205    6.8155 H   0  0  0  0  0  0  0  0  0  0  0  0
   -5.8683    4.8155    5.5612 H   0  0  0  0  0  0  0  0  0  0  0  0
   -8.4069   -4.0778    4.3750 H   0  0  0  0  0  0  0  0  0  0  0  0
   -7.9089   -2.4438    4.8342 H   0  0  0  0  0  0  0  0  0  0  0  0
  -10.2476   -2.4736    4.0090 H   0  0  0  0  0  0  0  0  0  0  0  0
   -9.2219   -1.4967    2.9514 H   0  0  0  0  0  0  0  0  0  0  0  0
   -9.7136   -3.1209    2.4582 H   0  0  0  0  0  0  0  0  0  0  0  0
   -1.7859   -1.5406   -0.2749 H   0  0  0  0  0  0  0  0  0  0  0  0
   -3.1915   -2.5504    0.0638 H   0  0  0  0  0  0  0  0  0  0  0  0
   -3.3163    0.2508   -1.1692 H   0  0  0  0  0  0  0  0  0  0  0  0
   -3.4716   -1.2716   -2.0611 H   0  0  0  0  0  0  0  0  0  0  0  0
   -4.6929   -0.8137   -0.8726 H   0  0  0  0  0  0  0  0  0  0  0  0
   -0.1947   -1.0614    0.6628 H   0  0  0  0  0  0  0  0  0  0  0  0
    1.3078   -0.1569    0.4865 H   0  0  0  0  0  0  0  0  0  0  0  0
   -0.8334   -0.1220   -1.6937 H   0  0  0  0  0  0  0  0  0  0  0  0
    0.7976    0.5432   -1.7618 H   0  0  0  0  0  0  0  0  0  0  0  0
    0.5705   -1.2002   -1.6834 H   0  0  0  0  0  0  0  0  0  0  0  0
   -8.3976   -5.2881    2.6515 H   0  0  0  0  0  0  0  0  0  0  0  0
   -7.5385  -10.8192   -2.1429 H   0  0  0  0  0  0  0  0  0  0  0  0
   -9.2039  -10.1561   -0.2462 H   0  0  0  0  0  0  0  0  0  0  0  0
  1  2  2  0  0  0  0
  2  3  1  0  0  0  0
  3  4  2  0  0  0  0
  3  5  1  0  0  0  0
  5  6  2  0  0  0  0
  6  7  1  0  0  0  0
  7  8  2  0  0  0  0
  8  9  1  0  0  0  0
  9 10  2  0  0  0  0
 10 11  1  0  0  0  0
 11 12  2  0  0  0  0
 12 13  1  0  0  0  0
 13 14  3  0  0  0  0
 12 15  1  0  0  0  0
 15 16  3  0  0  0  0
  8 17  1  0  0  0  0
 17 18  1  0  0  0  0
 18 19  1  0  0  0  0
 19 20  2  0  0  0  0
 20 21  1  0  0  0  0
 21 22  1  0  0  0  0
 21 23  1  0  0  0  0
  1 24  1  0  0  0  0
 24 25  2  0  0  0  0
 25 26  1  0  0  0  0
 26 27  1  0  0  0  0
 25 28  1  0  0  0  0
 28 29  2  0  0  0  0
 29 30  1  0  0  0  0
 29 31  1  0  0  0  0
 31 32  2  0  0  0  0
 32 33  1  0  0  0  0
 32 34  1  0  0  0  0
 34 35  2  0  0  0  0
 35 36  1  0  0  0  0
 36 37  2  0  0  0  0
 37 38  1  0  0  0  0
 37 39  1  0  0  0  0
 39 40  1  0  0  0  0
 39 41  2  0  0  0  0
 41 42  1  0  0  0  0
 42 43  2  0  0  0  0
 43 44  1  0  0  0  0
 44 45  1  0  0  0  0
 45 46  1  0  0  0  0
 46 47  1  0  0  0  0
 47 48  1  0  0  0  0
 48 49  1  0  0  0  0
 47 50  2  0  0  0  0
 50 51  1  0  0  0  0
 51 52  1  0  0  0  0
 52 53  1  0  0  0  0
 53 54  1  0  0  0  0
 54 55  1  0  0  0  0
 55 56  1  0  0  0  0
 54 57  1  0  0  0  0
 57 58  2  0  0  0  0
 58 59  1  0  0  0  0
 59 60  1  0  0  0  0
 60 61  1  0  0  0  0
 50 62  1  0  0  0  0
 62 63  2  0  0  0  0
 63 64  1  0  0  0  0
 64 65  2  0  0  0  0
 64 66  1  0  0  0  0
 66 67  1  0  0  0  0
 67 68  1  0  0  0  0
 68 69  2  0  0  0  0
 69 70  1  0  0  0  0
 70 71  1  0  0  0  0
 71 72  2  0  0  0  0
 72 73  1  0  0  0  0
 73 74  3  0  0  0  0
 72 75  1  0  0  0  0
 75 76  3  0  0  0  0
 11  2  1  0  0  0  0
 23 17  1  0  0  0  0
 30 24  1  0  0  0  0
 59 31  1  0  0  0  0
 71 63  1  0  0  0  0
 10  5  1  0  0  0  0
 22 18  1  0  0  0  0
 33 28  1  0  0  0  0
 58 34  1  0  0  0  0
 70 66  2  0  0  0  0
 23  7  1  0  0  0  0
 42 35  1  0  0  0  0
 57 43  1  0  0  0  0
 53 44  2  0  0  0  0
 52 46  2  0  0  0  0
  1 77  1  0  0  0  0
  6 78  1  0  0  0  0
  9 79  1  0  0  0  0
 17 80  1  0  0  0  0
 18 81  1  0  0  0  0
 19 82  1  0  0  0  0
 20 83  1  0  0  0  0
 21 84  1  0  0  0  0
 22 85  1  0  0  0  0
 22 86  1  0  0  0  0
 23 87  1  0  0  0  0
 26 88  1  0  0  0  0
 26 89  1  0  0  0  0
 27 90  1  0  0  0  0
 27 91  1  0  0  0  0
 27 92  1  0  0  0  0
 38 93  1  0  0  0  0
 38 94  1  0  0  0  0
 38 95  1  0  0  0  0
 40 96  1  0  0  0  0
 40 97  1  0  0  0  0
 40 98  1  0  0  0  0
 48 99  1  0  0  0  0
 48100  1  0  0  0  0
 49101  1  0  0  0  0
 49102  1  0  0  0  0
 49103  1  0  0  0  0
 55104  1  0  0  0  0
 55105  1  0  0  0  0
 56106  1  0  0  0  0
 56107  1  0  0  0  0
 56108  1  0  0  0  0
 60109  1  0  0  0  0
 60110  1  0  0  0  0
 61111  1  0  0  0  0
 61112  1  0  0  0  0
 61113  1  0  0  0  0
 62114  1  0  0  0  0
 68115  1  0  0  0  0
 69116  1  0  0  0  0
M  END
