
  xtb     02012220513D
 energy: -194.445370708014 gnorm: 0.000787528548 xtb: 6.4.1 (unknown)
103116  0     0  0            999 V2000
    4.1764    0.1952    0.0631 C   0  0  0  0  0  0  0  0  0  0  0  0
    5.3428    0.5948    0.6469 C   0  0  0  0  0  0  0  0  0  0  0  0
    5.5890    1.7615    1.5308 C   0  0  0  0  0  0  0  0  0  0  0  0
    4.7874    2.5593    1.9720 O   0  0  0  0  0  0  0  0  0  0  0  0
    7.0408    1.7854    1.7745 C   0  0  0  0  0  0  0  0  0  0  0  0
    7.7363    2.7220    2.5369 C   0  0  0  0  0  0  0  0  0  0  0  0
    9.0901    2.4989    2.5992 C   0  0  0  0  0  0  0  0  0  0  0  0
    9.7074    1.4182    1.9534 C   0  0  0  0  0  0  0  0  0  0  0  0
    9.0335    0.4878    1.2000 C   0  0  0  0  0  0  0  0  0  0  0  0
    7.6530    0.6989    1.1192 C   0  0  0  0  0  0  0  0  0  0  0  0
    6.6215   -0.0740    0.4349 C   0  0  0  0  0  0  0  0  0  0  0  0
    6.8379   -1.2470   -0.2396 C   0  0  0  0  0  0  0  0  0  0  0  0
    5.8591   -2.0701   -0.8386 C   0  0  0  0  0  0  0  0  0  0  0  0
    5.1439   -2.8200   -1.3350 N   0  0  0  0  0  0  0  0  0  0  0  0
    8.1056   -1.8426   -0.4207 C   0  0  0  0  0  0  0  0  0  0  0  0
    9.0955   -2.3897   -0.6184 N   0  0  0  0  0  0  0  0  0  0  0  0
   11.0802    1.8092    2.4388 C   0  0  0  0  0  0  0  0  0  0  0  0
   12.0303    2.5021    1.4311 C   0  0  0  0  0  0  0  0  0  0  0  0
   11.1504    3.1944    0.4199 C   0  0  0  0  0  0  0  0  0  0  0  0
   10.5660    4.2191    1.0262 C   0  0  0  0  0  0  0  0  0  0  0  0
   11.0403    4.2385    2.4584 C   0  0  0  0  0  0  0  0  0  0  0  0
   12.4713    3.7073    2.2769 C   0  0  0  0  0  0  0  0  0  0  0  0
   10.3936    3.0149    3.1546 C   0  0  0  0  0  0  0  0  0  0  0  0
    2.8493    0.6670    0.1802 C   0  0  0  0  0  0  0  0  0  0  0  0
    2.2599    1.6630    0.9371 C   0  0  0  0  0  0  0  0  0  0  0  0
    0.8809    1.7022    0.7505 C   0  0  0  0  0  0  0  0  0  0  0  0
   -0.3861    2.6569    1.4604 S   0  0  0  0  0  0  0  0  0  0  0  0
   -1.5907    1.7244    0.5929 C   0  0  0  0  0  0  0  0  0  0  0  0
   -2.9639    1.8962    0.7173 C   0  0  0  0  0  0  0  0  0  0  0  0
   -3.5370    2.9498    1.5356 C   0  0  0  0  0  0  0  0  0  0  0  0
   -4.4821    3.8633    1.1671 C   0  0  0  0  0  0  0  0  0  0  0  0
   -4.7809    4.7576    2.2134 C   0  0  0  0  0  0  0  0  0  0  0  0
   -5.6788    5.7474    2.0711 F   0  0  0  0  0  0  0  0  0  0  0  0
   -4.0993    4.5439    3.3749 C   0  0  0  0  0  0  0  0  0  0  0  0
   -4.1616    5.3218    4.6431 C   0  0  0  0  0  0  0  0  0  0  0  0
   -2.8640    6.0961    4.8810 C   0  0  0  0  0  0  0  0  0  0  0  0
   -3.0309    3.1990    3.1804 S   0  0  0  0  0  0  0  0  0  0  0  0
   -3.7834    0.9999    0.0087 C   0  0  0  0  0  0  0  0  0  0  0  0
   -3.2103    0.0286   -0.8529 C   0  0  0  0  0  0  0  0  0  0  0  0
   -1.8408   -0.0910   -1.0374 C   0  0  0  0  0  0  0  0  0  0  0  0
   -1.2575   -1.0325   -1.9784 C   0  0  0  0  0  0  0  0  0  0  0  0
   -1.6212   -2.7317   -1.9166 S   0  0  0  0  0  0  0  0  0  0  0  0
   -0.5815   -3.0680   -3.2565 C   0  0  0  0  0  0  0  0  0  0  0  0
   -0.3442   -4.4546   -3.7438 C   0  0  0  0  0  0  0  0  0  0  0  0
    0.5338   -5.2372   -2.7646 C   0  0  0  0  0  0  0  0  0  0  0  0
   -0.0146   -1.9093   -3.6983 C   0  0  0  0  0  0  0  0  0  0  0  0
   -0.3816   -0.7508   -2.9861 C   0  0  0  0  0  0  0  0  0  0  0  0
    0.8265   -1.8657   -4.7449 F   0  0  0  0  0  0  0  0  0  0  0  0
   -1.0215    0.7491   -0.2654 C   0  0  0  0  0  0  0  0  0  0  0  0
    0.3899    0.7530   -0.1482 C   0  0  0  0  0  0  0  0  0  0  0  0
    1.6579   -0.2111   -0.7837 S   0  0  0  0  0  0  0  0  0  0  0  0
   -4.4028   -0.9901   -1.6349 S   0  0  0  0  0  0  0  0  0  0  0  0
   -5.6676   -0.1874   -0.7601 C   0  0  0  0  0  0  0  0  0  0  0  0
   -7.0372   -0.4119   -0.6529 C   0  0  0  0  0  0  0  0  0  0  0  0
   -7.6317    0.4591    0.2415 C   0  0  0  0  0  0  0  0  0  0  0  0
   -6.4717    1.5872    0.9205 S   0  0  0  0  0  0  0  0  0  0  0  0
   -5.1922    0.8487    0.0444 C   0  0  0  0  0  0  0  0  0  0  0  0
   -8.9907    0.5791    0.6174 C   0  0  0  0  0  0  0  0  0  0  0  0
   -9.9908   -0.3386    0.5328 C   0  0  0  0  0  0  0  0  0  0  0  0
  -11.4060    0.1345    0.6010 C   0  0  0  0  0  0  0  0  0  0  0  0
  -11.7782    1.2273    0.9477 O   0  0  0  0  0  0  0  0  0  0  0  0
  -12.2094   -1.0071    0.1122 C   0  0  0  0  0  0  0  0  0  0  0  0
  -13.5628   -1.1071   -0.1592 C   0  0  0  0  0  0  0  0  0  0  0  0
  -14.3819   -0.0718    0.0378 F   0  0  0  0  0  0  0  0  0  0  0  0
  -14.0874   -2.2980   -0.6472 C   0  0  0  0  0  0  0  0  0  0  0  0
  -13.2496   -3.3778   -0.8667 C   0  0  0  0  0  0  0  0  0  0  0  0
  -11.8887   -3.3061   -0.5954 C   0  0  0  0  0  0  0  0  0  0  0  0
  -11.3731   -2.1209   -0.0993 C   0  0  0  0  0  0  0  0  0  0  0  0
  -10.0115   -1.7663    0.3062 C   0  0  0  0  0  0  0  0  0  0  0  0
   -9.0403   -2.6652    0.6588 C   0  0  0  0  0  0  0  0  0  0  0  0
   -9.1689   -4.0628    0.5157 C   0  0  0  0  0  0  0  0  0  0  0  0
   -9.2149   -5.2041    0.4066 N   0  0  0  0  0  0  0  0  0  0  0  0
   -7.8343   -2.3088    1.2968 C   0  0  0  0  0  0  0  0  0  0  0  0
   -6.8570   -2.0783    1.8522 N   0  0  0  0  0  0  0  0  0  0  0  0
    4.2499   -0.6486   -0.6129 H   0  0  0  0  0  0  0  0  0  0  0  0
    7.2177    3.5344    3.0216 H   0  0  0  0  0  0  0  0  0  0  0  0
    9.5271   -0.3348    0.7110 H   0  0  0  0  0  0  0  0  0  0  0  0
   11.5934    1.0746    3.0560 H   0  0  0  0  0  0  0  0  0  0  0  0
   12.8089    1.8590    1.0299 H   0  0  0  0  0  0  0  0  0  0  0  0
   11.0043    2.8448   -0.5853 H   0  0  0  0  0  0  0  0  0  0  0  0
    9.8334    4.8969    0.6287 H   0  0  0  0  0  0  0  0  0  0  0  0
   10.9187    5.1775    2.9918 H   0  0  0  0  0  0  0  0  0  0  0  0
   13.1094    4.3968    1.7264 H   0  0  0  0  0  0  0  0  0  0  0  0
   12.9527    3.4278    3.2130 H   0  0  0  0  0  0  0  0  0  0  0  0
   10.4618    3.0711    4.2393 H   0  0  0  0  0  0  0  0  0  0  0  0
    2.8134    2.3118    1.5901 H   0  0  0  0  0  0  0  0  0  0  0  0
   -4.9196    3.9306    0.1885 H   0  0  0  0  0  0  0  0  0  0  0  0
   -5.0029    6.0151    4.5810 H   0  0  0  0  0  0  0  0  0  0  0  0
   -4.3349    4.6422    5.4811 H   0  0  0  0  0  0  0  0  0  0  0  0
   -2.9267    6.6538    5.8115 H   0  0  0  0  0  0  0  0  0  0  0  0
   -2.6857    6.7960    4.0679 H   0  0  0  0  0  0  0  0  0  0  0  0
   -2.0213    5.4108    4.9395 H   0  0  0  0  0  0  0  0  0  0  0  0
   -1.2996   -4.9701   -3.8668 H   0  0  0  0  0  0  0  0  0  0  0  0
    0.1486   -4.3979   -4.7165 H   0  0  0  0  0  0  0  0  0  0  0  0
    1.4959   -4.7457   -2.6419 H   0  0  0  0  0  0  0  0  0  0  0  0
    0.0495   -5.3017   -1.7927 H   0  0  0  0  0  0  0  0  0  0  0  0
    0.7027   -6.2436   -3.1379 H   0  0  0  0  0  0  0  0  0  0  0  0
   -0.0318    0.2342   -3.2342 H   0  0  0  0  0  0  0  0  0  0  0  0
   -7.5742   -1.1477   -1.2230 H   0  0  0  0  0  0  0  0  0  0  0  0
   -9.2995    1.5584    0.9716 H   0  0  0  0  0  0  0  0  0  0  0  0
  -15.1447   -2.3608   -0.8507 H   0  0  0  0  0  0  0  0  0  0  0  0
  -13.6624   -4.2960   -1.2551 H   0  0  0  0  0  0  0  0  0  0  0  0
  -11.2568   -4.1589   -0.7811 H   0  0  0  0  0  0  0  0  0  0  0  0
  1  2  2  0  0  0  0
  2  3  1  0  0  0  0
  3  4  2  0  0  0  0
  3  5  1  0  0  0  0
  5  6  2  0  0  0  0
  6  7  1  0  0  0  0
  7  8  2  0  0  0  0
  8  9  1  0  0  0  0
  9 10  2  0  0  0  0
 10 11  1  0  0  0  0
 11 12  2  0  0  0  0
 12 13  1  0  0  0  0
 13 14  3  0  0  0  0
 12 15  1  0  0  0  0
 15 16  3  0  0  0  0
  8 17  1  0  0  0  0
 17 18  1  0  0  0  0
 18 19  1  0  0  0  0
 19 20  2  0  0  0  0
 20 21  1  0  0  0  0
 21 22  1  0  0  0  0
 21 23  1  0  0  0  0
  1 24  1  0  0  0  0
 24 25  2  0  0  0  0
 25 26  1  0  0  0  0
 26 27  1  0  0  0  0
 27 28  1  0  0  0  0
 28 29  2  0  0  0  0
 29 30  1  0  0  0  0
 30 31  2  0  0  0  0
 31 32  1  0  0  0  0
 32 33  1  0  0  0  0
 32 34  2  0  0  0  0
 34 35  1  0  0  0  0
 35 36  1  0  0  0  0
 34 37  1  0  0  0  0
 29 38  1  0  0  0  0
 38 39  2  0  0  0  0
 39 40  1  0  0  0  0
 40 41  1  0  0  0  0
 41 42  1  0  0  0  0
 42 43  1  0  0  0  0
 43 44  1  0  0  0  0
 44 45  1  0  0  0  0
 43 46  2  0  0  0  0
 46 47  1  0  0  0  0
 46 48  1  0  0  0  0
 40 49  2  0  0  0  0
 49 50  1  0  0  0  0
 50 51  1  0  0  0  0
 39 52  1  0  0  0  0
 52 53  1  0  0  0  0
 53 54  1  0  0  0  0
 54 55  2  0  0  0  0
 55 56  1  0  0  0  0
 56 57  1  0  0  0  0
 55 58  1  0  0  0  0
 58 59  2  0  0  0  0
 59 60  1  0  0  0  0
 60 61  2  0  0  0  0
 60 62  1  0  0  0  0
 62 63  2  0  0  0  0
 63 64  1  0  0  0  0
 63 65  1  0  0  0  0
 65 66  2  0  0  0  0
 66 67  1  0  0  0  0
 67 68  2  0  0  0  0
 68 69  1  0  0  0  0
 69 70  2  0  0  0  0
 70 71  1  0  0  0  0
 71 72  3  0  0  0  0
 70 73  1  0  0  0  0
 73 74  3  0  0  0  0
 11  2  1  0  0  0  0
 23 17  1  0  0  0  0
 51 24  1  0  0  0  0
 57 53  2  0  0  0  0
 69 59  1  0  0  0  0
 10  5  1  0  0  0  0
 22 18  1  0  0  0  0
 50 26  2  0  0  0  0
 68 62  1  0  0  0  0
 23  7  1  0  0  0  0
 49 28  1  0  0  0  0
 37 30  1  0  0  0  0
 57 38  1  0  0  0  0
 47 41  2  0  0  0  0
  1 75  1  0  0  0  0
  6 76  1  0  0  0  0
  9 77  1  0  0  0  0
 17 78  1  0  0  0  0
 18 79  1  0  0  0  0
 19 80  1  0  0  0  0
 20 81  1  0  0  0  0
 21 82  1  0  0  0  0
 22 83  1  0  0  0  0
 22 84  1  0  0  0  0
 23 85  1  0  0  0  0
 25 86  1  0  0  0  0
 31 87  1  0  0  0  0
 35 88  1  0  0  0  0
 35 89  1  0  0  0  0
 36 90  1  0  0  0  0
 36 91  1  0  0  0  0
 36 92  1  0  0  0  0
 44 93  1  0  0  0  0
 44 94  1  0  0  0  0
 45 95  1  0  0  0  0
 45 96  1  0  0  0  0
 45 97  1  0  0  0  0
 47 98  1  0  0  0  0
 54 99  1  0  0  0  0
 58100  1  0  0  0  0
 65101  1  0  0  0  0
 66102  1  0  0  0  0
 67103  1  0  0  0  0
M  END
