
  xtb     02022201293D
 energy: -194.112030898912 gnorm: 0.000671981528 xtb: 6.4.1 (unknown)
103116  0     0  0            999 V2000
   -0.9620    4.0408   -4.5689 C   0  0  0  0  0  0  0  0  0  0  0  0
   -2.2760    4.3432   -4.4310 C   0  0  0  0  0  0  0  0  0  0  0  0
   -3.0465    4.9337   -5.5654 C   0  0  0  0  0  0  0  0  0  0  0  0
   -2.5912    5.4996   -6.5311 O   0  0  0  0  0  0  0  0  0  0  0  0
   -4.4565    4.6039   -5.2790 C   0  0  0  0  0  0  0  0  0  0  0  0
   -5.5586    4.8039   -6.1084 C   0  0  0  0  0  0  0  0  0  0  0  0
   -6.7473    4.3632   -5.5775 C   0  0  0  0  0  0  0  0  0  0  0  0
   -6.8392    3.7421   -4.3231 C   0  0  0  0  0  0  0  0  0  0  0  0
   -5.7654    3.5430   -3.4898 C   0  0  0  0  0  0  0  0  0  0  0  0
   -4.5526    4.0103   -4.0008 C   0  0  0  0  0  0  0  0  0  0  0  0
   -3.2340    4.0310   -3.3837 C   0  0  0  0  0  0  0  0  0  0  0  0
   -2.9889    4.0482   -2.0374 C   0  0  0  0  0  0  0  0  0  0  0  0
   -1.7216    4.3505   -1.4925 C   0  0  0  0  0  0  0  0  0  0  0  0
   -0.7140    4.6325   -1.0214 N   0  0  0  0  0  0  0  0  0  0  0  0
   -3.9685    3.8217   -1.0531 C   0  0  0  0  0  0  0  0  0  0  0  0
   -4.7188    3.6193   -0.2077 N   0  0  0  0  0  0  0  0  0  0  0  0
   -8.3297    3.5489   -4.4387 C   0  0  0  0  0  0  0  0  0  0  0  0
   -9.2385    4.5043   -3.6268 C   0  0  0  0  0  0  0  0  0  0  0  0
   -8.4516    5.7769   -3.4313 C   0  0  0  0  0  0  0  0  0  0  0  0
   -8.3629    6.3817   -4.6084 C   0  0  0  0  0  0  0  0  0  0  0  0
   -9.0887    5.5300   -5.6206 C   0  0  0  0  0  0  0  0  0  0  0  0
  -10.2042    4.9504   -4.7360 C   0  0  0  0  0  0  0  0  0  0  0  0
   -8.2305    4.2563   -5.8271 C   0  0  0  0  0  0  0  0  0  0  0  0
   -0.2146    3.1124   -3.7933 C   0  0  0  0  0  0  0  0  0  0  0  0
    1.1566    2.9985   -3.6950 C   0  0  0  0  0  0  0  0  0  0  0  0
    1.5312    1.9614   -2.8357 C   0  0  0  0  0  0  0  0  0  0  0  0
    3.0558    1.3750   -2.2396 S   0  0  0  0  0  0  0  0  0  0  0  0
    2.2235    0.2344   -1.1975 C   0  0  0  0  0  0  0  0  0  0  0  0
    2.8537   -0.5561   -0.2443 C   0  0  0  0  0  0  0  0  0  0  0  0
    4.3042   -0.5338   -0.1414 C   0  0  0  0  0  0  0  0  0  0  0  0
    5.1949   -0.7534   -1.1518 C   0  0  0  0  0  0  0  0  0  0  0  0
    6.5323   -0.5970   -0.7309 C   0  0  0  0  0  0  0  0  0  0  0  0
    7.8694   -0.8395   -1.7854 Cl  0  0  0  0  0  0  0  0  0  0  0  0
    6.6707   -0.2284    0.5760 C   0  0  0  0  0  0  0  0  0  0  0  0
    7.9235   -0.0335    1.3548 C   0  0  0  0  0  0  0  0  0  0  0  0
    8.4446   -1.3779    1.8702 C   0  0  0  0  0  0  0  0  0  0  0  0
    5.1211   -0.0849    1.3238 S   0  0  0  0  0  0  0  0  0  0  0  0
    2.0282   -1.3285    0.5910 C   0  0  0  0  0  0  0  0  0  0  0  0
    0.6153   -1.2789    0.4392 C   0  0  0  0  0  0  0  0  0  0  0  0
   -0.0144   -0.4969   -0.5169 C   0  0  0  0  0  0  0  0  0  0  0  0
   -1.4594   -0.3965   -0.6315 C   0  0  0  0  0  0  0  0  0  0  0  0
   -2.4366    0.0251    0.7447 S   0  0  0  0  0  0  0  0  0  0  0  0
   -3.8773    0.0762   -0.2112 C   0  0  0  0  0  0  0  0  0  0  0  0
   -5.1942    0.4225    0.3891 C   0  0  0  0  0  0  0  0  0  0  0  0
   -5.4297   -0.2986    1.7133 C   0  0  0  0  0  0  0  0  0  0  0  0
   -3.5852   -0.2243   -1.5099 C   0  0  0  0  0  0  0  0  0  0  0  0
   -2.2224   -0.4990   -1.7578 C   0  0  0  0  0  0  0  0  0  0  0  0
   -4.7605   -0.2242   -2.7692 Cl  0  0  0  0  0  0  0  0  0  0  0  0
    0.8158    0.2758   -1.3476 C   0  0  0  0  0  0  0  0  0  0  0  0
    0.4568    1.2560   -2.3009 C   0  0  0  0  0  0  0  0  0  0  0  0
   -1.0392    1.8606   -2.8826 S   0  0  0  0  0  0  0  0  0  0  0  0
   -0.2399   -2.3217    1.5563 S   0  0  0  0  0  0  0  0  0  0  0  0
    1.2738   -2.8333    2.2378 C   0  0  0  0  0  0  0  0  0  0  0  0
    1.6046   -3.7028    3.2608 C   0  0  0  0  0  0  0  0  0  0  0  0
    2.9827   -3.7718    3.4671 C   0  0  0  0  0  0  0  0  0  0  0  0
    3.8579   -2.7472    2.3400 S   0  0  0  0  0  0  0  0  0  0  0  0
    2.3810   -2.2273    1.6311 C   0  0  0  0  0  0  0  0  0  0  0  0
    3.5333   -4.5467    4.5015 C   0  0  0  0  0  0  0  0  0  0  0  0
    4.8284   -4.6689    4.9306 C   0  0  0  0  0  0  0  0  0  0  0  0
    5.9935   -3.9854    4.3553 C   0  0  0  0  0  0  0  0  0  0  0  0
    6.0218   -3.2669    3.3720 O   0  0  0  0  0  0  0  0  0  0  0  0
    7.1401   -4.3398    5.2098 C   0  0  0  0  0  0  0  0  0  0  0  0
    8.4555   -3.9268    5.1071 C   0  0  0  0  0  0  0  0  0  0  0  0
    9.3660   -4.3832    6.0465 C   0  0  0  0  0  0  0  0  0  0  0  0
    8.9298   -5.2351    7.0506 C   0  0  0  0  0  0  0  0  0  0  0  0
    9.8229   -5.6641    7.9548 F   0  0  0  0  0  0  0  0  0  0  0  0
    7.6154   -5.6669    7.1708 C   0  0  0  0  0  0  0  0  0  0  0  0
    6.7094   -5.2073    6.2297 C   0  0  0  0  0  0  0  0  0  0  0  0
    5.2749   -5.4522    6.0688 C   0  0  0  0  0  0  0  0  0  0  0  0
    4.5240   -6.2798    6.8594 C   0  0  0  0  0  0  0  0  0  0  0  0
    3.1440   -6.5385    6.7114 C   0  0  0  0  0  0  0  0  0  0  0  0
    2.0291   -6.8087    6.6623 N   0  0  0  0  0  0  0  0  0  0  0  0
    5.0370   -7.0132    7.9519 C   0  0  0  0  0  0  0  0  0  0  0  0
    5.3847   -7.6357    8.8509 N   0  0  0  0  0  0  0  0  0  0  0  0
   -0.4489    4.4908   -5.4121 H   0  0  0  0  0  0  0  0  0  0  0  0
   -5.4493    5.2713   -7.0744 H   0  0  0  0  0  0  0  0  0  0  0  0
   -5.8367    3.0555   -2.5312 H   0  0  0  0  0  0  0  0  0  0  0  0
   -8.6795    2.5189   -4.4156 H   0  0  0  0  0  0  0  0  0  0  0  0
   -9.6707    4.0649   -2.7320 H   0  0  0  0  0  0  0  0  0  0  0  0
   -8.0055    6.0672   -2.4982 H   0  0  0  0  0  0  0  0  0  0  0  0
   -7.8278    7.2799   -4.8554 H   0  0  0  0  0  0  0  0  0  0  0  0
   -9.3860    6.0266   -6.5404 H   0  0  0  0  0  0  0  0  0  0  0  0
  -10.9103    5.7077   -4.3993 H   0  0  0  0  0  0  0  0  0  0  0  0
  -10.7427    4.1256   -5.2007 H   0  0  0  0  0  0  0  0  0  0  0  0
   -8.5289    3.6954   -6.7106 H   0  0  0  0  0  0  0  0  0  0  0  0
    1.8440    3.6626   -4.1855 H   0  0  0  0  0  0  0  0  0  0  0  0
    4.9154   -1.0455   -2.1474 H   0  0  0  0  0  0  0  0  0  0  0  0
    7.7254    0.6298    2.1982 H   0  0  0  0  0  0  0  0  0  0  0  0
    8.6762    0.4311    0.7135 H   0  0  0  0  0  0  0  0  0  0  0  0
    8.7140   -2.0206    1.0357 H   0  0  0  0  0  0  0  0  0  0  0  0
    7.6741   -1.8761    2.4538 H   0  0  0  0  0  0  0  0  0  0  0  0
    9.3255   -1.2217    2.4888 H   0  0  0  0  0  0  0  0  0  0  0  0
   -5.2372    1.5044    0.5517 H   0  0  0  0  0  0  0  0  0  0  0  0
   -5.9760    0.1602   -0.3273 H   0  0  0  0  0  0  0  0  0  0  0  0
   -6.4062   -0.0371    2.1118 H   0  0  0  0  0  0  0  0  0  0  0  0
   -4.6711   -0.0139    2.4387 H   0  0  0  0  0  0  0  0  0  0  0  0
   -5.3873   -1.3767    1.5738 H   0  0  0  0  0  0  0  0  0  0  0  0
   -1.8445   -0.7970   -2.7186 H   0  0  0  0  0  0  0  0  0  0  0  0
    0.8953   -4.2570    3.8482 H   0  0  0  0  0  0  0  0  0  0  0  0
    2.7830   -5.0999    5.0536 H   0  0  0  0  0  0  0  0  0  0  0  0
    8.7561   -3.2641    4.3109 H   0  0  0  0  0  0  0  0  0  0  0  0
   10.4034   -4.0905    6.0156 H   0  0  0  0  0  0  0  0  0  0  0  0
    7.3473   -6.3288    7.9773 H   0  0  0  0  0  0  0  0  0  0  0  0
  1  2  2  0  0  0  0
  2  3  1  0  0  0  0
  3  4  2  0  0  0  0
  3  5  1  0  0  0  0
  5  6  2  0  0  0  0
  6  7  1  0  0  0  0
  7  8  2  0  0  0  0
  8  9  1  0  0  0  0
  9 10  2  0  0  0  0
 10 11  1  0  0  0  0
 11 12  2  0  0  0  0
 12 13  1  0  0  0  0
 13 14  3  0  0  0  0
 12 15  1  0  0  0  0
 15 16  3  0  0  0  0
  8 17  1  0  0  0  0
 17 18  1  0  0  0  0
 18 19  1  0  0  0  0
 19 20  2  0  0  0  0
 20 21  1  0  0  0  0
 21 22  1  0  0  0  0
 21 23  1  0  0  0  0
  1 24  1  0  0  0  0
 24 25  2  0  0  0  0
 25 26  1  0  0  0  0
 26 27  1  0  0  0  0
 27 28  1  0  0  0  0
 28 29  2  0  0  0  0
 29 30  1  0  0  0  0
 30 31  2  0  0  0  0
 31 32  1  0  0  0  0
 32 33  1  0  0  0  0
 32 34  2  0  0  0  0
 34 35  1  0  0  0  0
 35 36  1  0  0  0  0
 34 37  1  0  0  0  0
 29 38  1  0  0  0  0
 38 39  2  0  0  0  0
 39 40  1  0  0  0  0
 40 41  1  0  0  0  0
 41 42  1  0  0  0  0
 42 43  1  0  0  0  0
 43 44  1  0  0  0  0
 44 45  1  0  0  0  0
 43 46  2  0  0  0  0
 46 47  1  0  0  0  0
 46 48  1  0  0  0  0
 40 49  2  0  0  0  0
 49 50  1  0  0  0  0
 50 51  1  0  0  0  0
 39 52  1  0  0  0  0
 52 53  1  0  0  0  0
 53 54  1  0  0  0  0
 54 55  2  0  0  0  0
 55 56  1  0  0  0  0
 56 57  1  0  0  0  0
 55 58  1  0  0  0  0
 58 59  2  0  0  0  0
 59 60  1  0  0  0  0
 60 61  2  0  0  0  0
 60 62  1  0  0  0  0
 62 63  2  0  0  0  0
 63 64  1  0  0  0  0
 64 65  2  0  0  0  0
 65 66  1  0  0  0  0
 65 67  1  0  0  0  0
 67 68  2  0  0  0  0
 68 69  1  0  0  0  0
 69 70  2  0  0  0  0
 70 71  1  0  0  0  0
 71 72  3  0  0  0  0
 70 73  1  0  0  0  0
 73 74  3  0  0  0  0
 11  2  1  0  0  0  0
 23 17  1  0  0  0  0
 51 24  1  0  0  0  0
 57 53  2  0  0  0  0
 69 59  1  0  0  0  0
 10  5  1  0  0  0  0
 22 18  1  0  0  0  0
 50 26  2  0  0  0  0
 68 62  1  0  0  0  0
 23  7  1  0  0  0  0
 49 28  1  0  0  0  0
 37 30  1  0  0  0  0
 57 38  1  0  0  0  0
 47 41  2  0  0  0  0
  1 75  1  0  0  0  0
  6 76  1  0  0  0  0
  9 77  1  0  0  0  0
 17 78  1  0  0  0  0
 18 79  1  0  0  0  0
 19 80  1  0  0  0  0
 20 81  1  0  0  0  0
 21 82  1  0  0  0  0
 22 83  1  0  0  0  0
 22 84  1  0  0  0  0
 23 85  1  0  0  0  0
 25 86  1  0  0  0  0
 31 87  1  0  0  0  0
 35 88  1  0  0  0  0
 35 89  1  0  0  0  0
 36 90  1  0  0  0  0
 36 91  1  0  0  0  0
 36 92  1  0  0  0  0
 44 93  1  0  0  0  0
 44 94  1  0  0  0  0
 45 95  1  0  0  0  0
 45 96  1  0  0  0  0
 45 97  1  0  0  0  0
 47 98  1  0  0  0  0
 54 99  1  0  0  0  0
 58100  1  0  0  0  0
 63101  1  0  0  0  0
 64102  1  0  0  0  0
 67103  1  0  0  0  0
M  END
