163

C         -6.90620        0.80200       -2.14720
C         -7.22010        1.46090       -3.30770
C         -6.31760        2.29080       -4.11490
O         -5.18210        2.63780       -3.84060
C         -7.05430        2.62420       -5.34600
C         -6.57780        3.34360       -6.43900
C         -7.48200        3.46230       -7.46700
C         -8.76860        2.91030       -7.40970
C         -9.25470        2.20820       -6.33230
C         -8.34900        2.07140       -5.27680
C         -8.49430        1.38310       -3.99530
C         -9.64870        0.79950       -3.53770
C         -9.81500        0.16690       -2.28840
N        -10.04130       -0.36060       -1.29240
C        -10.86570        0.76660       -4.25000
N        -11.89070        0.69320       -4.76280
C         -9.12250        3.38840       -8.79530
C         -9.09890        2.34830       -9.94280
C         -8.11720        1.27840       -9.53370
C         -6.90030        1.80310       -9.58810
C         -7.03730        3.23760      -10.03510
C         -8.25070        3.11470      -10.97040
C         -7.68970        4.00560       -8.85860
C         -5.71000        0.73760       -1.42000
C         -5.55620       -0.08280       -0.28910
C         -6.62190       -0.91570        0.34620
C         -7.50350       -0.06720        1.26630
C         -4.26420       -0.00030        0.21110
S         -3.44690       -0.81460        1.52170
C         -1.98860        0.00930        1.08750
C         -0.63300       -0.02480        1.53870
C         -0.01600       -0.79510        2.52080
C          1.34500       -0.65840        2.66350
C          2.26930       -1.40850        3.60760
C          2.10790       -1.02180        5.06850
C          2.77700       -1.76460        6.03420
C          2.69000       -1.42040        7.36850
C          1.93290       -0.32840        7.77450
C          1.86830        0.06630        9.22160
C          2.97580        1.06890        9.55220
C          1.27660        0.41610        6.80420
C          1.36460        0.07960        5.46490
C          2.07670       -2.89890        3.40540
C          1.09320       -3.57140        4.12040
C          0.88010       -4.92100        3.91890
C          1.63930       -5.63440        2.99990
C          1.37270       -7.09190        2.75730
C          0.25050       -7.26490        1.73160
C          2.61260       -4.95520        2.28070
C          2.82830       -3.60300        2.47620
C          3.60950       -0.89310        3.15650
C          3.45530        0.06810        2.17140
C          2.07570        0.22390        1.83250
C          1.45560        1.01190        0.86630
C          0.09350        0.88300        0.73070
C         -0.82120        1.57540       -0.26410
C         -1.04680        3.04950        0.03470
C         -1.74850        3.81680       -0.88790
C         -2.01310        5.14790       -0.63360
C         -1.58550        5.74810        0.54450
C         -1.90850        7.18530        0.83630
C         -3.24370        7.29370        1.57560
C         -0.89470        4.97350        1.46570
C         -0.63020        3.63770        1.21930
C         -0.29190        1.37500       -1.66970
C          0.63880        2.26410       -2.19240
C          1.14620        2.07990       -3.46400
C          0.73910        1.00680       -4.24610
C          1.31690        0.79350       -5.61550
C          2.59460       -0.04400       -5.53280
C         -0.17880        0.11290       -3.71250
C         -0.68630        0.28990       -2.43850
C         -2.12310        0.87370        0.01490
C         -3.42040        0.87690       -0.49580
S         -4.23190        1.61550       -1.82030
S          4.94060        0.75030        1.61470
C          5.81630       -0.28930        2.70680
C          7.17780       -0.51980        2.92420
C          8.27680        0.31100        2.35380
C          8.01030        1.80910        2.48990
C          7.35730       -1.54730        3.85210
S          5.82770       -2.13450        4.51860
C          4.95040       -1.09820        3.46730
C          8.52620       -2.14570        4.35110
C          9.69820       -2.36430        3.66830
C          9.80920       -2.43080        2.19820
O          8.95820       -2.19350        1.36700
C         11.16170       -2.97630        1.93320
C         11.74870       -3.24590        0.71340
C         13.03210       -3.76870        0.71900
F         13.64230       -4.03970       -0.44200
C         13.69430       -4.01590        1.92130
F         14.93120       -4.52630        1.89610
C         13.10270       -3.74880        3.14730
C         11.82090       -3.22210        3.14880
C         10.93780       -2.83170        4.24680
C         11.26510       -2.83240        5.57800
C         12.49640       -3.29220        6.08870
N         13.47530       -3.66080        6.56130
C         10.43140       -2.34600        6.60730
N          9.82030       -1.94470        7.49270
H         -7.69470        0.19460       -1.72370
H         -5.57810        3.74930       -6.44200
H        -10.24660        1.78920       -6.30630
H         -9.97300        4.06340       -8.86520
H        -10.07960        2.00360      -10.25940
H         -8.40410        0.29770       -9.20200
H         -5.96720        1.34870       -9.31010
H         -6.14080        3.70310      -10.43650
H         -8.03710        2.52730      -11.86220
H         -8.67790        4.07500      -11.25590
H         -7.60420        5.08480       -8.96910
H         -7.24600       -1.39630       -0.40880
H         -6.13850       -1.69810        0.93560
H         -8.26250       -0.69240        1.72770
H         -6.90340        0.39220        2.04850
H         -8.00310        0.71770        0.70400
H         -0.58750       -1.48110        3.12670
H          3.36140       -2.62350        5.73700
H          3.21510       -2.01060        8.10550
H          0.89780        0.51690        9.43980
H          1.98450       -0.81790        9.85120
H          2.86840        1.96560        8.94580
H          3.95200        0.63410        9.34990
H          2.93190        1.35150       10.60130
H          0.68520        1.27160        7.09820
H          0.84570        0.67630        4.72890
H          0.50070       -3.03780        4.84960
H          0.11520       -5.43010        4.48790
H          1.08190       -7.57500        3.69240
H          2.27730       -7.57850        2.38780
H          0.05210       -8.32000        1.55890
H          0.52800       -6.80360        0.78640
H         -0.66290       -6.79290        2.08650
H          3.21330       -5.48930        1.55840
H          3.58970       -3.09740        1.90000
H          2.03060        1.67880        0.24260
H         -2.08480        3.36950       -1.81180
H         -2.55910        5.72870       -1.36270
H         -1.12030        7.62540        1.45060
H         -1.96870        7.74740       -0.09770
H         -3.20020        6.75050        2.51710
H         -3.47950        8.33450        1.78540
H         -4.04430        6.87000        0.97350
H         -0.55610        5.41940        2.39030
H         -0.09260        3.05640        1.95430
H          0.95530        3.11520       -1.60660
H          1.86400        2.78520       -3.85830
H          1.54820        1.75750       -6.07320
H          0.59010        0.28040       -6.24820
H          3.33610        0.45700       -4.91450
H          3.01470       -0.19700       -6.52420
H          2.38220       -1.01520       -5.09120
H         -0.50610       -0.73150       -4.30230
H         -1.39820       -0.42090       -2.04470
H          8.39800        0.05070        1.29810
H          9.21040        0.06350        2.86210
H          8.87820        2.36500        2.14460
H          7.82590        2.06910        3.53020
H          7.15280        2.11480        1.89720
H          8.44790       -2.53690        5.35910
H         11.23260       -3.05680       -0.21420
H         13.65250       -3.96270        4.04920
