
  xtb     02022218023D
 energy: -178.410877645036 gnorm: 0.000213518302 xtb: 6.4.1 (unknown)
107120  0     0  0            999 V2000
    0.6552    1.3247   -5.4152 C   0  0  0  0  0  0  0  0  0  0  0  0
    0.5355    2.6855   -5.5618 C   0  0  0  0  0  0  0  0  0  0  0  0
    0.2139    3.6471   -4.5061 C   0  0  0  0  0  0  0  0  0  0  0  0
   -0.0907    3.4106   -3.3478 O   0  0  0  0  0  0  0  0  0  0  0  0
    0.3254    4.9840   -5.1130 C   0  0  0  0  0  0  0  0  0  0  0  0
    0.1508    6.2103   -4.4759 C   0  0  0  0  0  0  0  0  0  0  0  0
    0.3495    7.2968   -5.2933 C   0  0  0  0  0  0  0  0  0  0  0  0
    0.6918    7.1721   -6.6459 C   0  0  0  0  0  0  0  0  0  0  0  0
    0.8564    5.9676   -7.2886 C   0  0  0  0  0  0  0  0  0  0  0  0
    0.6630    4.8478   -6.4741 C   0  0  0  0  0  0  0  0  0  0  0  0
    0.7652    3.4221   -6.7877 C   0  0  0  0  0  0  0  0  0  0  0  0
    1.0199    2.9038   -8.0332 C   0  0  0  0  0  0  0  0  0  0  0  0
    1.2289    3.6776   -9.1933 C   0  0  0  0  0  0  0  0  0  0  0  0
    1.4106    4.2371  -10.1798 N   0  0  0  0  0  0  0  0  0  0  0  0
    1.0989    1.5338   -8.3565 C   0  0  0  0  0  0  0  0  0  0  0  0
    1.1786    0.4420   -8.7076 N   0  0  0  0  0  0  0  0  0  0  0  0
    0.7585    8.6655   -6.8493 C   0  0  0  0  0  0  0  0  0  0  0  0
    2.1692    9.2896   -6.9014 C   0  0  0  0  0  0  0  0  0  0  0  0
    1.9270   10.7555   -6.6229 C   0  0  0  0  0  0  0  0  0  0  0  0
    1.6004   10.8744   -5.3423 C   0  0  0  0  0  0  0  0  0  0  0  0
    1.6166    9.4908   -4.7338 C   0  0  0  0  0  0  0  0  0  0  0  0
    2.7514    8.8576   -5.5492 C   0  0  0  0  0  0  0  0  0  0  0  0
    0.3746    8.8044   -5.3411 C   0  0  0  0  0  0  0  0  0  0  0  0
    0.5284    0.5114   -4.2855 C   0  0  0  0  0  0  0  0  0  0  0  0
    0.7908   -0.8700   -4.3021 C   0  0  0  0  0  0  0  0  0  0  0  0
    1.2282   -1.6603   -5.4922 C   0  0  0  0  0  0  0  0  0  0  0  0
    2.7440   -1.5643   -5.6847 C   0  0  0  0  0  0  0  0  0  0  0  0
    0.6565   -1.4274   -3.0380 C   0  0  0  0  0  0  0  0  0  0  0  0
    0.2637   -0.5109   -2.0467 C   0  0  0  0  0  0  0  0  0  0  0  0
    0.0758    1.0817   -2.6771 S   0  0  0  0  0  0  0  0  0  0  0  0
    0.1655   -1.1317   -0.7991 C   0  0  0  0  0  0  0  0  0  0  0  0
    0.4866   -2.4914   -0.8486 C   0  0  0  0  0  0  0  0  0  0  0  0
    0.9043   -3.0544   -2.4286 S   0  0  0  0  0  0  0  0  0  0  0  0
    0.3558   -2.9922    0.4537 C   0  0  0  0  0  0  0  0  0  0  0  0
    0.5251   -4.3206    0.9197 C   0  0  0  0  0  0  0  0  0  0  0  0
    0.8924   -5.3030    0.0877 N   0  0  0  0  0  0  0  0  0  0  0  0
    1.0077   -6.5169    0.5834 C   0  0  0  0  0  0  0  0  0  0  0  0
    1.4220   -7.5972   -0.3601 C   0  0  0  0  0  0  0  0  0  0  0  0
    0.7483   -6.7810    1.9520 C   0  0  0  0  0  0  0  0  0  0  0  0
    0.8708   -8.1548    2.5237 C   0  0  0  0  0  0  0  0  0  0  0  0
    0.3914   -5.8201    2.7777 N   0  0  0  0  0  0  0  0  0  0  0  0
    0.2781   -4.5813    2.2827 C   0  0  0  0  0  0  0  0  0  0  0  0
   -0.0594   -3.4880    3.1198 C   0  0  0  0  0  0  0  0  0  0  0  0
   -0.2710   -3.4738    4.5065 C   0  0  0  0  0  0  0  0  0  0  0  0
   -0.3041   -4.5822    5.8324 S   0  0  0  0  0  0  0  0  0  0  0  0
   -0.6120   -3.2407    6.9098 C   0  0  0  0  0  0  0  0  0  0  0  0
   -0.7934   -3.1775    8.3033 C   0  0  0  0  0  0  0  0  0  0  0  0
   -0.7666   -4.4053    9.1539 C   0  0  0  0  0  0  0  0  0  0  0  0
   -2.1713   -4.9883    9.3173 C   0  0  0  0  0  0  0  0  0  0  0  0
   -1.0173   -1.8807    8.7203 C   0  0  0  0  0  0  0  0  0  0  0  0
   -0.9865   -0.7342    7.3772 S   0  0  0  0  0  0  0  0  0  0  0  0
   -0.6845   -2.0108    6.2545 C   0  0  0  0  0  0  0  0  0  0  0  0
   -0.4896   -2.1452    4.8740 C   0  0  0  0  0  0  0  0  0  0  0  0
   -0.4490   -1.3397    3.7682 N   0  0  0  0  0  0  0  0  0  0  0  0
   -0.3554    0.0913    3.9398 C   0  0  0  0  0  0  0  0  0  0  0  0
    1.0748    0.5866    3.7342 C   0  0  0  0  0  0  0  0  0  0  0  0
   -0.1802   -2.1430    2.6690 C   0  0  0  0  0  0  0  0  0  0  0  0
   -0.0335   -1.8975    1.2812 C   0  0  0  0  0  0  0  0  0  0  0  0
   -0.1454   -0.7698    0.4858 N   0  0  0  0  0  0  0  0  0  0  0  0
   -0.8185    0.4883    0.7156 C   0  0  0  0  0  0  0  0  0  0  0  0
   -2.3131    0.2825    0.9536 C   0  0  0  0  0  0  0  0  0  0  0  0
   -1.2551   -1.3418   10.0168 C   0  0  0  0  0  0  0  0  0  0  0  0
   -1.3834   -0.0023   10.3283 C   0  0  0  0  0  0  0  0  0  0  0  0
   -1.6211    0.2404   11.6806 C   0  0  0  0  0  0  0  0  0  0  0  0
   -1.6834   -0.9136   12.4265 C   0  0  0  0  0  0  0  0  0  0  0  0
   -1.9007   -1.0284   13.7977 C   0  0  0  0  0  0  0  0  0  0  0  0
   -2.0809   -1.1167   14.9289 N   0  0  0  0  0  0  0  0  0  0  0  0
   -1.4430   -2.3245   11.4381 S   0  0  0  0  0  0  0  0  0  0  0  0
    0.9271    0.7763   -6.3066 H   0  0  0  0  0  0  0  0  0  0  0  0
   -0.1133    6.2591   -3.4310 H   0  0  0  0  0  0  0  0  0  0  0  0
    1.1171    5.8917   -8.3307 H   0  0  0  0  0  0  0  0  0  0  0  0
    0.0841    9.0745   -7.5991 H   0  0  0  0  0  0  0  0  0  0  0  0
    2.7408    9.0484   -7.7934 H   0  0  0  0  0  0  0  0  0  0  0  0
    1.9624   11.5226   -7.3740 H   0  0  0  0  0  0  0  0  0  0  0  0
    1.3085   11.7606   -4.8099 H   0  0  0  0  0  0  0  0  0  0  0  0
    1.6852    9.4333   -3.6506 H   0  0  0  0  0  0  0  0  0  0  0  0
    3.7138    9.3250   -5.3473 H   0  0  0  0  0  0  0  0  0  0  0  0
    2.8379    7.7795   -5.4269 H   0  0  0  0  0  0  0  0  0  0  0  0
   -0.5572    9.3052   -5.0849 H   0  0  0  0  0  0  0  0  0  0  0  0
    0.9573   -2.7046   -5.3243 H   0  0  0  0  0  0  0  0  0  0  0  0
    0.7247   -1.3174   -6.3973 H   0  0  0  0  0  0  0  0  0  0  0  0
    3.2608   -1.9412   -4.8051 H   0  0  0  0  0  0  0  0  0  0  0  0
    3.0439   -2.1538   -6.5465 H   0  0  0  0  0  0  0  0  0  0  0  0
    3.0469   -0.5330   -5.8504 H   0  0  0  0  0  0  0  0  0  0  0  0
    2.3510   -8.0578   -0.0269 H   0  0  0  0  0  0  0  0  0  0  0  0
    0.6600   -8.3737   -0.4084 H   0  0  0  0  0  0  0  0  0  0  0  0
    1.5653   -7.1705   -1.3486 H   0  0  0  0  0  0  0  0  0  0  0  0
    0.1939   -8.8405    2.0160 H   0  0  0  0  0  0  0  0  0  0  0  0
    0.6260   -8.1232    3.5815 H   0  0  0  0  0  0  0  0  0  0  0  0
    1.8856   -8.5298    2.3987 H   0  0  0  0  0  0  0  0  0  0  0  0
   -0.1289   -5.1433    8.6624 H   0  0  0  0  0  0  0  0  0  0  0  0
   -0.3412   -4.1826   10.1340 H   0  0  0  0  0  0  0  0  0  0  0  0
   -2.1337   -5.8844    9.9305 H   0  0  0  0  0  0  0  0  0  0  0  0
   -2.5834   -5.2480    8.3450 H   0  0  0  0  0  0  0  0  0  0  0  0
   -2.8340   -4.2704    9.7948 H   0  0  0  0  0  0  0  0  0  0  0  0
   -0.6643    0.3017    4.9670 H   0  0  0  0  0  0  0  0  0  0  0  0
   -1.0580    0.6025    3.2828 H   0  0  0  0  0  0  0  0  0  0  0  0
    1.7307    0.1442    4.4804 H   0  0  0  0  0  0  0  0  0  0  0  0
    1.4475    0.3106    2.7502 H   0  0  0  0  0  0  0  0  0  0  0  0
    1.1134    1.6678    3.8368 H   0  0  0  0  0  0  0  0  0  0  0  0
   -0.6778    1.0863   -0.1881 H   0  0  0  0  0  0  0  0  0  0  0  0
   -0.3498    1.0316    1.5352 H   0  0  0  0  0  0  0  0  0  0  0  0
   -2.7937    1.2369    1.1507 H   0  0  0  0  0  0  0  0  0  0  0  0
   -2.4900   -0.3848    1.7948 H   0  0  0  0  0  0  0  0  0  0  0  0
   -2.7705   -0.1584    0.0710 H   0  0  0  0  0  0  0  0  0  0  0  0
   -1.3026    0.7739    9.5878 H   0  0  0  0  0  0  0  0  0  0  0  0
   -1.7446    1.2189   12.1092 H   0  0  0  0  0  0  0  0  0  0  0  0
  1  2  2  0  0  0  0
  2  3  1  0  0  0  0
  3  4  2  0  0  0  0
  3  5  1  0  0  0  0
  5  6  2  0  0  0  0
  6  7  1  0  0  0  0
  7  8  2  0  0  0  0
  8  9  1  0  0  0  0
  9 10  2  0  0  0  0
 10 11  1  0  0  0  0
 11 12  2  0  0  0  0
 12 13  1  0  0  0  0
 13 14  3  0  0  0  0
 12 15  1  0  0  0  0
 15 16  3  0  0  0  0
  8 17  1  0  0  0  0
 17 18  1  0  0  0  0
 18 19  1  0  0  0  0
 19 20  2  0  0  0  0
 20 21  1  0  0  0  0
 21 22  1  0  0  0  0
 21 23  1  0  0  0  0
  1 24  1  0  0  0  0
 24 25  2  0  0  0  0
 25 26  1  0  0  0  0
 26 27  1  0  0  0  0
 25 28  1  0  0  0  0
 28 29  2  0  0  0  0
 29 30  1  0  0  0  0
 29 31  1  0  0  0  0
 31 32  2  0  0  0  0
 32 33  1  0  0  0  0
 32 34  1  0  0  0  0
 34 35  2  0  0  0  0
 35 36  1  0  0  0  0
 36 37  2  0  0  0  0
 37 38  1  0  0  0  0
 37 39  1  0  0  0  0
 39 40  1  0  0  0  0
 39 41  2  0  0  0  0
 41 42  1  0  0  0  0
 42 43  2  0  0  0  0
 43 44  1  0  0  0  0
 44 45  1  0  0  0  0
 45 46  1  0  0  0  0
 46 47  1  0  0  0  0
 47 48  1  0  0  0  0
 48 49  1  0  0  0  0
 47 50  2  0  0  0  0
 50 51  1  0  0  0  0
 51 52  1  0  0  0  0
 52 53  1  0  0  0  0
 53 54  1  0  0  0  0
 54 55  1  0  0  0  0
 55 56  1  0  0  0  0
 54 57  1  0  0  0  0
 57 58  2  0  0  0  0
 58 59  1  0  0  0  0
 59 60  1  0  0  0  0
 60 61  1  0  0  0  0
 50 62  1  0  0  0  0
 62 63  2  0  0  0  0
 63 64  1  0  0  0  0
 64 65  2  0  0  0  0
 65 66  1  0  0  0  0
 66 67  3  0  0  0  0
 65 68  1  0  0  0  0
 11  2  1  0  0  0  0
 23 17  1  0  0  0  0
 30 24  1  0  0  0  0
 59 31  1  0  0  0  0
 68 62  1  0  0  0  0
 10  5  1  0  0  0  0
 22 18  1  0  0  0  0
 33 28  1  0  0  0  0
 58 34  1  0  0  0  0
 23  7  1  0  0  0  0
 42 35  1  0  0  0  0
 57 43  1  0  0  0  0
 53 44  2  0  0  0  0
 52 46  2  0  0  0  0
  1 69  1  0  0  0  0
  6 70  1  0  0  0  0
  9 71  1  0  0  0  0
 17 72  1  0  0  0  0
 18 73  1  0  0  0  0
 19 74  1  0  0  0  0
 20 75  1  0  0  0  0
 21 76  1  0  0  0  0
 22 77  1  0  0  0  0
 22 78  1  0  0  0  0
 23 79  1  0  0  0  0
 26 80  1  0  0  0  0
 26 81  1  0  0  0  0
 27 82  1  0  0  0  0
 27 83  1  0  0  0  0
 27 84  1  0  0  0  0
 38 85  1  0  0  0  0
 38 86  1  0  0  0  0
 38 87  1  0  0  0  0
 40 88  1  0  0  0  0
 40 89  1  0  0  0  0
 40 90  1  0  0  0  0
 48 91  1  0  0  0  0
 48 92  1  0  0  0  0
 49 93  1  0  0  0  0
 49 94  1  0  0  0  0
 49 95  1  0  0  0  0
 55 96  1  0  0  0  0
 55 97  1  0  0  0  0
 56 98  1  0  0  0  0
 56 99  1  0  0  0  0
 56100  1  0  0  0  0
 60101  1  0  0  0  0
 60102  1  0  0  0  0
 61103  1  0  0  0  0
 61104  1  0  0  0  0
 61105  1  0  0  0  0
 63106  1  0  0  0  0
 64107  1  0  0  0  0
M  END
