125

C          0.06420       -4.60680       -5.70450
C         -0.71900       -4.03140       -6.67420
C         -1.50580       -2.80290       -6.54010
O         -1.68910       -2.14120       -5.53110
C         -2.03290       -2.49900       -7.88110
C         -2.78960       -1.39010       -8.25320
C         -3.11400       -1.35790       -9.58820
C         -2.71330       -2.35450      -10.48750
C         -1.96830       -3.45430      -10.13260
C         -1.62910       -3.50870       -8.77730
C         -0.84340       -4.49830       -8.04040
C         -0.35130       -5.66670       -8.56590
C          0.37450       -6.64710       -7.85870
N          0.96500       -7.49640       -7.35710
C         -0.52480       -6.07640       -9.90430
N         -0.62370       -6.47760      -10.97600
C         -3.37820       -1.67660      -11.65990
C         -4.72070       -2.27170      -12.13400
C         -5.34800       -1.15400      -12.93560
C         -5.72880       -0.21090      -12.08360
C         -5.36550       -0.67520      -10.69150
C         -5.56610       -2.18710      -10.85670
C         -3.82630       -0.56580      -10.65650
C          0.29090       -4.24190       -4.37290
C          1.19700       -4.91710       -3.53680
C          1.99550       -6.12510       -3.90400
C          1.16430       -7.39980       -3.73480
C          1.24130       -4.34650       -2.27170
C          0.37630       -3.25080       -2.10650
S         -0.49870       -2.89590       -3.54780
C          0.48940       -2.71090       -0.82260
C          1.44380       -3.37360       -0.04330
S          2.19930       -4.70470       -0.84600
C          1.52320       -2.69120        1.17920
C          2.43540       -2.86520        2.25250
N          3.33080       -3.85970        2.24180
C          4.19310       -3.92360        3.23440
C          5.18030       -5.04280        3.20320
C          4.18230       -2.96690        4.28070
C          5.16460       -3.01970        5.40340
N          3.29800       -1.99200        4.30540
C          2.41120       -1.92560        3.30520
C          1.38900       -0.94140        3.29800
C          1.06050        0.01420        4.27040
S          1.65400        0.59010        5.78480
C          0.28710        1.67840        5.88910
C         -0.08050        2.65840        6.81990
C          0.61360        2.88440        8.12040
C          0.81030        1.58800        8.90470
C         -1.25180        3.30140        6.42960
S         -1.92930        2.62520        4.94610
C         -0.58210        1.56440        4.79130
C         -0.12760        0.62950        3.85940
N         -0.52670        0.11260        2.65470
C         -1.86630        0.35670        2.17190
C         -1.99300        1.71230        1.47850
C          0.40440       -0.83540        2.27470
C          0.55710       -1.64570        1.12550
N         -0.06440       -1.67630       -0.11220
C         -0.71270       -0.61150       -0.84660
C          0.29740        0.45470       -1.26560
C         -1.97310        4.35060        7.03180
C         -1.43430        5.43760        7.66960
C         -0.05800        5.93300        7.43920
O          0.84530        5.37910        6.85130
C         -0.05100        7.31430        7.97440
C          0.96600        8.24290        7.94540
C          0.72540        9.50520        8.49230
C          1.82280       10.50690        8.44540
O          2.92590       10.28140        8.01460
O          1.45010       11.69990        8.92820
C          2.44380       12.71390        8.90440
C         -0.51580        9.80480        9.05200
C         -1.53830        8.86820        9.07950
C         -1.30640        7.61430        8.53450
C         -2.17060        6.44490        8.39760
C         -3.42070        6.29230        8.94010
C         -4.09700        7.29220        9.66730
N         -4.69780        8.07100       10.25950
C         -4.16550        5.09600        8.87380
N         -4.80900        4.14480        8.87610
H          0.62740       -5.47870       -6.00870
H         -3.06840       -0.64100       -7.52840
H         -1.66120       -4.20590      -10.84030
H         -2.72060       -1.40100      -12.48220
H         -4.64280       -3.23970      -12.62100
H         -5.39750       -1.13990      -14.00860
H         -6.15990        0.74840      -12.30260
H         -5.87610       -0.18890       -9.86460
H         -5.17970       -2.77910      -10.02900
H         -6.60820       -2.44690      -11.03510
H         -3.46850        0.45060      -10.81120
H          2.86170       -6.17330       -3.24080
H          2.35490       -6.06130       -4.93210
H          0.81810       -7.49170       -2.70810
H          1.76890       -8.26800       -3.98010
H          0.30090       -7.38730       -4.39540
H          5.00500       -5.64750        2.31820
H          6.19700       -4.65300        3.17920
H          5.07940       -5.66410        4.09200
H          5.07470       -3.96090        5.94390
H          6.18210       -2.94680        5.02220
H          4.97380       -2.19400        6.08280
H          1.58330        3.34710        7.91860
H          0.03100        3.58380        8.72200
H          1.46590        0.90270        8.37550
H          1.25600        1.81170        9.87060
H         -0.14630        1.09740        9.07180
H         -2.16170       -0.46860        1.52250
H         -2.53600        0.34620        3.03960
H         -2.99240        1.82240        1.06660
H         -1.26630        1.82070        0.67850
H         -1.82930        2.51180        2.19590
H         -1.15450       -1.06640       -1.73680
H         -1.51430       -0.16580       -0.26550
H          0.77360        0.89800       -0.39290
H         -0.20160        1.23490       -1.83330
H          1.07010        0.01370       -1.89090
H         -3.04800        4.32050        6.89080
H          1.92680        8.01310        7.51080
H          2.78850       12.88250        7.88200
H          1.97400       13.60920        9.30310
H          3.29840       12.42190        9.51820
H         -0.67930       10.78720        9.46620
H         -2.49200        9.12640        9.51050
