
  xtb     02102219483D
 energy: -197.455420141062 gnorm: 0.000583044634 xtb: 6.4.1 (unknown)
107120  0     0  0            999 V2000
    0.5193    4.8588   -1.3552 C   0  0  0  0  0  0  0  0  0  0  0  0
    1.5205    5.5501   -1.9727 C   0  0  0  0  0  0  0  0  0  0  0  0
    2.8488    5.0622   -2.4205 C   0  0  0  0  0  0  0  0  0  0  0  0
    3.2619    3.9217   -2.4647 O   0  0  0  0  0  0  0  0  0  0  0  0
    3.6092    6.2623   -2.8096 C   0  0  0  0  0  0  0  0  0  0  0  0
    4.9372    6.3015   -3.2299 C   0  0  0  0  0  0  0  0  0  0  0  0
    5.3978    7.5645   -3.5117 C   0  0  0  0  0  0  0  0  0  0  0  0
    4.5971    8.7078   -3.3793 C   0  0  0  0  0  0  0  0  0  0  0  0
    3.2868    8.6828   -2.9667 C   0  0  0  0  0  0  0  0  0  0  0  0
    2.7951    7.4047   -2.6818 C   0  0  0  0  0  0  0  0  0  0  0  0
    1.4751    6.9859   -2.2216 C   0  0  0  0  0  0  0  0  0  0  0  0
    0.3872    7.8102   -2.1029 C   0  0  0  0  0  0  0  0  0  0  0  0
    0.3965    9.1911   -2.3977 C   0  0  0  0  0  0  0  0  0  0  0  0
    0.3182   10.3148   -2.6195 N   0  0  0  0  0  0  0  0  0  0  0  0
   -0.9141    7.4329   -1.7054 C   0  0  0  0  0  0  0  0  0  0  0  0
   -2.0015    7.2306   -1.3948 N   0  0  0  0  0  0  0  0  0  0  0  0
    5.7030    9.6312   -3.8238 C   0  0  0  0  0  0  0  0  0  0  0  0
    5.6449   10.1821   -5.2700 C   0  0  0  0  0  0  0  0  0  0  0  0
    4.8725    9.1727   -6.0828 C   0  0  0  0  0  0  0  0  0  0  0  0
    5.6295    8.0912   -6.2106 C   0  0  0  0  0  0  0  0  0  0  0  0
    6.9276    8.3494   -5.4861 C   0  0  0  0  0  0  0  0  0  0  0  0
    7.0766    9.8601   -5.7275 C   0  0  0  0  0  0  0  0  0  0  0  0
    6.5942    8.3579   -3.9735 C   0  0  0  0  0  0  0  0  0  0  0  0
    0.3825    3.4922   -1.0233 C   0  0  0  0  0  0  0  0  0  0  0  0
    1.1532    2.3727   -1.2781 C   0  0  0  0  0  0  0  0  0  0  0  0
    0.5838    1.2234   -0.7386 C   0  0  0  0  0  0  0  0  0  0  0  0
    1.0510   -0.4496   -0.7672 S   0  0  0  0  0  0  0  0  0  0  0  0
   -0.3929   -0.8764    0.1271 C   0  0  0  0  0  0  0  0  0  0  0  0
   -0.7547   -2.1776    0.4426 C   0  0  0  0  0  0  0  0  0  0  0  0
    0.0504   -3.3307    0.0726 C   0  0  0  0  0  0  0  0  0  0  0  0
   -0.3581   -4.4436   -0.6028 C   0  0  0  0  0  0  0  0  0  0  0  0
    0.6763   -5.3938   -0.7177 C   0  0  0  0  0  0  0  0  0  0  0  0
    0.4945   -6.5825   -1.3196 F   0  0  0  0  0  0  0  0  0  0  0  0
    1.8654   -5.0309   -0.1592 C   0  0  0  0  0  0  0  0  0  0  0  0
    3.1249   -5.8212   -0.0730 C   0  0  0  0  0  0  0  0  0  0  0  0
    3.3732   -6.3157    1.3532 C   0  0  0  0  0  0  0  0  0  0  0  0
    1.7193   -3.4574    0.5436 S   0  0  0  0  0  0  0  0  0  0  0  0
   -1.9593   -2.3514    1.1435 C   0  0  0  0  0  0  0  0  0  0  0  0
   -2.7661   -1.2343    1.4727 C   0  0  0  0  0  0  0  0  0  0  0  0
   -2.4062    0.0695    1.1555 C   0  0  0  0  0  0  0  0  0  0  0  0
   -3.2561    1.1774    1.5610 C   0  0  0  0  0  0  0  0  0  0  0  0
   -2.6445    2.4607    2.5645 S   0  0  0  0  0  0  0  0  0  0  0  0
   -4.1925    3.2288    2.6396 C   0  0  0  0  0  0  0  0  0  0  0  0
   -4.4127    4.4864    3.4054 C   0  0  0  0  0  0  0  0  0  0  0  0
   -4.1757    4.2826    4.9021 C   0  0  0  0  0  0  0  0  0  0  0  0
   -5.0987    2.4953    1.9335 C   0  0  0  0  0  0  0  0  0  0  0  0
   -4.5910    1.3284    1.3276 C   0  0  0  0  0  0  0  0  0  0  0  0
   -6.3876    2.8561    1.8180 F   0  0  0  0  0  0  0  0  0  0  0  0
   -1.1979    0.2459    0.4617 C   0  0  0  0  0  0  0  0  0  0  0  0
   -0.6168    1.4314   -0.0552 C   0  0  0  0  0  0  0  0  0  0  0  0
   -1.0671    3.0857   -0.1022 S   0  0  0  0  0  0  0  0  0  0  0  0
   -4.2107   -1.6720    2.3639 S   0  0  0  0  0  0  0  0  0  0  0  0
   -3.7376   -3.3427    2.3317 C   0  0  0  0  0  0  0  0  0  0  0  0
   -4.2985   -4.5147    2.8483 C   0  0  0  0  0  0  0  0  0  0  0  0
   -3.5400   -5.6214    2.5405 C   0  0  0  0  0  0  0  0  0  0  0  0
   -2.0776   -5.1934    1.6699 S   0  0  0  0  0  0  0  0  0  0  0  0
   -2.5373   -3.5373    1.6567 C   0  0  0  0  0  0  0  0  0  0  0  0
   -3.7973   -6.9787    2.8875 C   0  0  0  0  0  0  0  0  0  0  0  0
   -3.3550   -8.0823    2.2413 C   0  0  0  0  0  0  0  0  0  0  0  0
   -3.3184   -9.4071    2.9435 C   0  0  0  0  0  0  0  0  0  0  0  0
   -3.9042   -9.6831    3.9619 O   0  0  0  0  0  0  0  0  0  0  0  0
   -2.3817  -10.2202    2.1524 C   0  0  0  0  0  0  0  0  0  0  0  0
   -1.8577  -11.4866    2.4359 C   0  0  0  0  0  0  0  0  0  0  0  0
   -2.2620  -12.0871    3.5636 O   0  0  0  0  0  0  0  0  0  0  0  0
   -1.7654  -13.3662    3.8833 C   0  0  0  0  0  0  0  0  0  0  0  0
   -0.9472  -12.0210    1.5152 C   0  0  0  0  0  0  0  0  0  0  0  0
   -0.5760  -11.3145    0.3845 C   0  0  0  0  0  0  0  0  0  0  0  0
   -1.0981  -10.0609    0.0956 C   0  0  0  0  0  0  0  0  0  0  0  0
   -2.0128   -9.5264    0.9846 C   0  0  0  0  0  0  0  0  0  0  0  0
   -2.7521   -8.2690    0.9351 C   0  0  0  0  0  0  0  0  0  0  0  0
   -3.0557   -7.5815   -0.2065 C   0  0  0  0  0  0  0  0  0  0  0  0
   -3.9621   -6.5006   -0.2516 C   0  0  0  0  0  0  0  0  0  0  0  0
   -4.7109   -5.6357   -0.3464 N   0  0  0  0  0  0  0  0  0  0  0  0
   -2.5829   -7.9315   -1.4900 C   0  0  0  0  0  0  0  0  0  0  0  0
   -2.2499   -8.1715   -2.5611 N   0  0  0  0  0  0  0  0  0  0  0  0
   -0.3315    5.4458   -1.0295 H   0  0  0  0  0  0  0  0  0  0  0  0
    5.5185    5.3963   -3.3102 H   0  0  0  0  0  0  0  0  0  0  0  0
    2.6898    9.5731   -2.8632 H   0  0  0  0  0  0  0  0  0  0  0  0
    6.0099   10.3871   -3.1038 H   0  0  0  0  0  0  0  0  0  0  0  0
    5.3140   11.2142   -5.3465 H   0  0  0  0  0  0  0  0  0  0  0  0
    3.8644    9.3230   -6.4220 H   0  0  0  0  0  0  0  0  0  0  0  0
    5.3803    7.1566   -6.6780 H   0  0  0  0  0  0  0  0  0  0  0  0
    7.7653    7.7135   -5.7599 H   0  0  0  0  0  0  0  0  0  0  0  0
    7.2489   10.1041   -6.7745 H   0  0  0  0  0  0  0  0  0  0  0  0
    7.8443   10.3247   -5.1101 H   0  0  0  0  0  0  0  0  0  0  0  0
    7.4845    8.2825   -3.3521 H   0  0  0  0  0  0  0  0  0  0  0  0
    2.0756    2.4035   -1.8274 H   0  0  0  0  0  0  0  0  0  0  0  0
   -1.3357   -4.5743   -1.0298 H   0  0  0  0  0  0  0  0  0  0  0  0
    3.0430   -6.6729   -0.7515 H   0  0  0  0  0  0  0  0  0  0  0  0
    3.9672   -5.2033   -0.3927 H   0  0  0  0  0  0  0  0  0  0  0  0
    4.2921   -6.8944    1.3939 H   0  0  0  0  0  0  0  0  0  0  0  0
    3.4611   -5.4722    2.0343 H   0  0  0  0  0  0  0  0  0  0  0  0
    2.5504   -6.9451    1.6849 H   0  0  0  0  0  0  0  0  0  0  0  0
   -5.4389    4.8165    3.2317 H   0  0  0  0  0  0  0  0  0  0  0  0
   -3.7358    5.2606    3.0345 H   0  0  0  0  0  0  0  0  0  0  0  0
   -4.3455    5.2129    5.4373 H   0  0  0  0  0  0  0  0  0  0  0  0
   -3.1530    3.9579    5.0813 H   0  0  0  0  0  0  0  0  0  0  0  0
   -4.8529    3.5275    5.2943 H   0  0  0  0  0  0  0  0  0  0  0  0
   -5.1861    0.6627    0.7306 H   0  0  0  0  0  0  0  0  0  0  0  0
   -5.2308   -4.5629    3.3797 H   0  0  0  0  0  0  0  0  0  0  0  0
   -4.3487   -7.1483    3.8068 H   0  0  0  0  0  0  0  0  0  0  0  0
   -0.6788  -13.3537    4.0135 H   0  0  0  0  0  0  0  0  0  0  0  0
   -2.2385  -13.6332    4.8263 H   0  0  0  0  0  0  0  0  0  0  0  0
   -2.0354  -14.1033    3.1209 H   0  0  0  0  0  0  0  0  0  0  0  0
   -0.5186  -12.9966    1.6820 H   0  0  0  0  0  0  0  0  0  0  0  0
    0.1394  -11.7553   -0.2932 H   0  0  0  0  0  0  0  0  0  0  0  0
   -0.7834   -9.5228   -0.7832 H   0  0  0  0  0  0  0  0  0  0  0  0
  1  2  2  0  0  0  0
  2  3  1  0  0  0  0
  3  4  2  0  0  0  0
  3  5  1  0  0  0  0
  5  6  2  0  0  0  0
  6  7  1  0  0  0  0
  7  8  2  0  0  0  0
  8  9  1  0  0  0  0
  9 10  2  0  0  0  0
 10 11  1  0  0  0  0
 11 12  2  0  0  0  0
 12 13  1  0  0  0  0
 13 14  3  0  0  0  0
 12 15  1  0  0  0  0
 15 16  3  0  0  0  0
  8 17  1  0  0  0  0
 17 18  1  0  0  0  0
 18 19  1  0  0  0  0
 19 20  2  0  0  0  0
 20 21  1  0  0  0  0
 21 22  1  0  0  0  0
 21 23  1  0  0  0  0
  1 24  1  0  0  0  0
 24 25  2  0  0  0  0
 25 26  1  0  0  0  0
 26 27  1  0  0  0  0
 27 28  1  0  0  0  0
 28 29  2  0  0  0  0
 29 30  1  0  0  0  0
 30 31  2  0  0  0  0
 31 32  1  0  0  0  0
 32 33  1  0  0  0  0
 32 34  2  0  0  0  0
 34 35  1  0  0  0  0
 35 36  1  0  0  0  0
 34 37  1  0  0  0  0
 29 38  1  0  0  0  0
 38 39  2  0  0  0  0
 39 40  1  0  0  0  0
 40 41  1  0  0  0  0
 41 42  1  0  0  0  0
 42 43  1  0  0  0  0
 43 44  1  0  0  0  0
 44 45  1  0  0  0  0
 43 46  2  0  0  0  0
 46 47  1  0  0  0  0
 46 48  1  0  0  0  0
 40 49  2  0  0  0  0
 49 50  1  0  0  0  0
 50 51  1  0  0  0  0
 39 52  1  0  0  0  0
 52 53  1  0  0  0  0
 53 54  1  0  0  0  0
 54 55  2  0  0  0  0
 55 56  1  0  0  0  0
 56 57  1  0  0  0  0
 55 58  1  0  0  0  0
 58 59  2  0  0  0  0
 59 60  1  0  0  0  0
 60 61  2  0  0  0  0
 60 62  1  0  0  0  0
 62 63  2  0  0  0  0
 63 64  1  0  0  0  0
 64 65  1  0  0  0  0
 63 66  1  0  0  0  0
 66 67  2  0  0  0  0
 67 68  1  0  0  0  0
 68 69  2  0  0  0  0
 69 70  1  0  0  0  0
 70 71  2  0  0  0  0
 71 72  1  0  0  0  0
 72 73  3  0  0  0  0
 71 74  1  0  0  0  0
 74 75  3  0  0  0  0
 11  2  1  0  0  0  0
 23 17  1  0  0  0  0
 51 24  1  0  0  0  0
 57 53  2  0  0  0  0
 70 59  1  0  0  0  0
 10  5  1  0  0  0  0
 22 18  1  0  0  0  0
 50 26  2  0  0  0  0
 69 62  1  0  0  0  0
 23  7  1  0  0  0  0
 49 28  1  0  0  0  0
 37 30  1  0  0  0  0
 57 38  1  0  0  0  0
 47 41  2  0  0  0  0
  1 76  1  0  0  0  0
  6 77  1  0  0  0  0
  9 78  1  0  0  0  0
 17 79  1  0  0  0  0
 18 80  1  0  0  0  0
 19 81  1  0  0  0  0
 20 82  1  0  0  0  0
 21 83  1  0  0  0  0
 22 84  1  0  0  0  0
 22 85  1  0  0  0  0
 23 86  1  0  0  0  0
 25 87  1  0  0  0  0
 31 88  1  0  0  0  0
 35 89  1  0  0  0  0
 35 90  1  0  0  0  0
 36 91  1  0  0  0  0
 36 92  1  0  0  0  0
 36 93  1  0  0  0  0
 44 94  1  0  0  0  0
 44 95  1  0  0  0  0
 45 96  1  0  0  0  0
 45 97  1  0  0  0  0
 45 98  1  0  0  0  0
 47 99  1  0  0  0  0
 54100  1  0  0  0  0
 58101  1  0  0  0  0
 65102  1  0  0  0  0
 65103  1  0  0  0  0
 65104  1  0  0  0  0
 66105  1  0  0  0  0
 67106  1  0  0  0  0
 68107  1  0  0  0  0
M  END
