100

C         -1.53540        3.84400       -0.61470
C         -0.65250        4.53360       -1.37510
C          0.44430        3.91930       -2.17560
O          0.73640        2.74770       -2.26340
C          1.20470        5.04990       -2.74050
C          2.31980        4.96750       -3.57300
C          2.84920        6.18530       -3.92420
C          2.31470        7.40050       -3.47280
C          1.21790        7.49730       -2.65180
C          0.65870        6.26690       -2.28550
C         -0.49550        5.97950       -1.44130
C         -1.31360        6.91220       -0.86260
C         -2.45990        6.62920       -0.08870
N         -3.41180        6.49370        0.53930
C         -1.13350        8.30870       -0.95970
N         -1.05030        9.45330       -0.99060
C          3.35100        8.21920       -4.20130
C          4.50050        8.79600       -3.34770
C          5.57400        9.12000       -4.36160
C          6.07790        7.97210       -4.79630
C          5.35410        6.85280       -4.08290
C          5.09780        7.52580       -2.72830
C          3.94340        6.86560       -4.70930
C         -1.74570        2.42060       -0.67790
C         -1.94280        1.67330        0.46480
C         -2.06870        0.27060        0.44160
C         -2.04920       -0.47100       -0.76370
C         -1.94000        0.30080       -1.94800
C         -1.79100        1.71530       -1.90860
N         -1.75690        2.14910       -3.17340
N         -1.85440        1.06250       -3.88720
C         -1.88210        1.10510       -5.32060
C         -3.31760        1.22500       -5.82410
N         -1.96630       -0.06240       -3.23490
C         -2.12310       -1.87730       -0.78400
C         -2.17480       -2.63460        0.36820
C         -2.26560       -1.91910        1.58990
N         -2.44960       -2.34280        2.84480
N         -2.47650       -1.24760        3.55130
C         -2.58330       -1.28430        4.98080
C         -1.21200       -1.54250        5.59820
N         -2.34140       -0.12380        2.90200
C         -2.21240       -0.49770        1.62400
C         -2.16180       -4.07380        0.32460
C         -1.48020       -4.87270        1.17960
C         -0.39060       -4.41910        2.09020
O          0.02180       -3.29370        2.26130
C          0.19260       -5.65110        2.65440
C          1.26880       -5.73130        3.53610
C          1.63180       -7.01480        3.86390
C          0.98330       -8.14150        3.33850
C         -0.07350       -8.07820        2.46340
C         -0.46990       -6.77870        2.12890
C         -1.53670       -6.32570        1.24430
C         -2.47560       -7.12320        0.64760
C         -2.52560       -8.52830        0.76880
N         -2.62480       -9.67080        0.82130
C         -3.54550       -6.66260       -0.14990
N         -4.44830       -6.37760       -0.79970
C          1.87510       -9.10140        4.08500
C          1.29660       -9.78960        5.34580
C          0.23630       -8.86490        5.89050
C          0.84700       -7.79940        6.39140
C          2.33130       -7.98400        6.19410
C          2.43590       -9.51060        6.33920
C          2.59430       -7.84690        4.67370
H         -2.12720        4.36850        0.12500
H          2.69970        4.00990       -3.89340
H          0.82040        8.43950       -2.31390
H          2.96760        8.92840       -4.93230
H          4.20850        9.59450       -2.67120
H          5.80950       10.11580       -4.68840
H          6.81840        7.81750       -5.55910
H          5.84110        5.88140       -4.07610
H          6.02110        7.72710       -2.18760
H          4.41080        6.97960       -2.08460
H          3.95100        6.67000       -5.78000
H         -1.94520        2.15500        1.43130
H         -1.42550        0.18330       -5.68580
H         -1.29120        1.96790       -5.63330
H         -3.90510        0.37530       -5.48520
H         -3.32760        1.24750       -6.91000
H         -3.77210        2.13910       -5.44980
H         -2.07630       -2.36230       -1.74780
H         -2.98090       -0.32070        5.30380
H         -3.27610       -2.08670        5.24340
H         -1.29810       -1.61780        6.67850
H         -0.80110       -2.47010        5.20690
H         -0.53170       -0.73080        5.35330
H         -2.72580       -4.52030       -0.48520
H          1.74950       -4.83810        3.90410
H         -0.55220       -8.95380        2.05790
H          2.46020       -9.78340        3.47140
H          1.00100      -10.82480        5.19920
H         -0.81870       -9.04870        5.80610
H          0.40400       -6.91470        6.81000
H          2.97880       -7.37620        6.82080
H          2.20920       -9.85430        7.34730
H          3.39700       -9.91210        6.02100
H          3.64990       -7.71030        4.44640
