
  xtb     02112207113D
 energy: -264.347854016285 gnorm: 0.000485834638 xtb: 6.4.1 (unknown)
163180  0     0  0            999 V2000
   -6.9062    0.8020   -2.1472 C   0  0  0  0  0  0  0  0  0  0  0  0
   -7.2201    1.4609   -3.3077 C   0  0  0  0  0  0  0  0  0  0  0  0
   -6.3176    2.2908   -4.1149 C   0  0  0  0  0  0  0  0  0  0  0  0
   -5.1821    2.6378   -3.8406 O   0  0  0  0  0  0  0  0  0  0  0  0
   -7.0543    2.6242   -5.3460 C   0  0  0  0  0  0  0  0  0  0  0  0
   -6.5778    3.3436   -6.4390 C   0  0  0  0  0  0  0  0  0  0  0  0
   -7.4820    3.4623   -7.4670 C   0  0  0  0  0  0  0  0  0  0  0  0
   -8.7686    2.9103   -7.4097 C   0  0  0  0  0  0  0  0  0  0  0  0
   -9.2547    2.2082   -6.3323 C   0  0  0  0  0  0  0  0  0  0  0  0
   -8.3490    2.0714   -5.2768 C   0  0  0  0  0  0  0  0  0  0  0  0
   -8.4943    1.3831   -3.9953 C   0  0  0  0  0  0  0  0  0  0  0  0
   -9.6487    0.7995   -3.5377 C   0  0  0  0  0  0  0  0  0  0  0  0
   -9.8150    0.1669   -2.2884 C   0  0  0  0  0  0  0  0  0  0  0  0
  -10.0413   -0.3606   -1.2924 N   0  0  0  0  0  0  0  0  0  0  0  0
  -10.8657    0.7666   -4.2500 C   0  0  0  0  0  0  0  0  0  0  0  0
  -11.8907    0.6932   -4.7628 N   0  0  0  0  0  0  0  0  0  0  0  0
   -9.1225    3.3884   -8.7953 C   0  0  0  0  0  0  0  0  0  0  0  0
   -9.0989    2.3483   -9.9428 C   0  0  0  0  0  0  0  0  0  0  0  0
   -8.1172    1.2784   -9.5337 C   0  0  0  0  0  0  0  0  0  0  0  0
   -6.9003    1.8031   -9.5881 C   0  0  0  0  0  0  0  0  0  0  0  0
   -7.0373    3.2376  -10.0351 C   0  0  0  0  0  0  0  0  0  0  0  0
   -8.2507    3.1147  -10.9704 C   0  0  0  0  0  0  0  0  0  0  0  0
   -7.6897    4.0056   -8.8586 C   0  0  0  0  0  0  0  0  0  0  0  0
   -5.7100    0.7376   -1.4200 C   0  0  0  0  0  0  0  0  0  0  0  0
   -5.5562   -0.0828   -0.2891 C   0  0  0  0  0  0  0  0  0  0  0  0
   -6.6219   -0.9157    0.3462 C   0  0  0  0  0  0  0  0  0  0  0  0
   -7.5035   -0.0672    1.2663 C   0  0  0  0  0  0  0  0  0  0  0  0
   -4.2642   -0.0003    0.2111 C   0  0  0  0  0  0  0  0  0  0  0  0
   -3.4469   -0.8146    1.5217 S   0  0  0  0  0  0  0  0  0  0  0  0
   -1.9886    0.0093    1.0875 C   0  0  0  0  0  0  0  0  0  0  0  0
   -0.6330   -0.0248    1.5387 C   0  0  0  0  0  0  0  0  0  0  0  0
   -0.0160   -0.7951    2.5208 C   0  0  0  0  0  0  0  0  0  0  0  0
    1.3450   -0.6584    2.6635 C   0  0  0  0  0  0  0  0  0  0  0  0
    2.2693   -1.4085    3.6076 C   0  0  0  0  0  0  0  0  0  0  0  0
    2.1079   -1.0218    5.0685 C   0  0  0  0  0  0  0  0  0  0  0  0
    2.7770   -1.7646    6.0342 C   0  0  0  0  0  0  0  0  0  0  0  0
    2.6900   -1.4204    7.3685 C   0  0  0  0  0  0  0  0  0  0  0  0
    1.9329   -0.3284    7.7745 C   0  0  0  0  0  0  0  0  0  0  0  0
    1.8683    0.0663    9.2216 C   0  0  0  0  0  0  0  0  0  0  0  0
    2.9758    1.0689    9.5522 C   0  0  0  0  0  0  0  0  0  0  0  0
    1.2766    0.4161    6.8042 C   0  0  0  0  0  0  0  0  0  0  0  0
    1.3646    0.0796    5.4649 C   0  0  0  0  0  0  0  0  0  0  0  0
    2.0767   -2.8989    3.4054 C   0  0  0  0  0  0  0  0  0  0  0  0
    1.0932   -3.5714    4.1204 C   0  0  0  0  0  0  0  0  0  0  0  0
    0.8801   -4.9210    3.9189 C   0  0  0  0  0  0  0  0  0  0  0  0
    1.6393   -5.6344    2.9999 C   0  0  0  0  0  0  0  0  0  0  0  0
    1.3727   -7.0919    2.7573 C   0  0  0  0  0  0  0  0  0  0  0  0
    0.2505   -7.2649    1.7316 C   0  0  0  0  0  0  0  0  0  0  0  0
    2.6126   -4.9552    2.2807 C   0  0  0  0  0  0  0  0  0  0  0  0
    2.8283   -3.6030    2.4762 C   0  0  0  0  0  0  0  0  0  0  0  0
    3.6095   -0.8931    3.1565 C   0  0  0  0  0  0  0  0  0  0  0  0
    3.4553    0.0681    2.1714 C   0  0  0  0  0  0  0  0  0  0  0  0
    2.0757    0.2239    1.8325 C   0  0  0  0  0  0  0  0  0  0  0  0
    1.4556    1.0119    0.8663 C   0  0  0  0  0  0  0  0  0  0  0  0
    0.0935    0.8830    0.7307 C   0  0  0  0  0  0  0  0  0  0  0  0
   -0.8212    1.5754   -0.2641 C   0  0  0  0  0  0  0  0  0  0  0  0
   -1.0468    3.0495    0.0347 C   0  0  0  0  0  0  0  0  0  0  0  0
   -1.7485    3.8168   -0.8879 C   0  0  0  0  0  0  0  0  0  0  0  0
   -2.0131    5.1479   -0.6336 C   0  0  0  0  0  0  0  0  0  0  0  0
   -1.5855    5.7481    0.5445 C   0  0  0  0  0  0  0  0  0  0  0  0
   -1.9085    7.1853    0.8363 C   0  0  0  0  0  0  0  0  0  0  0  0
   -3.2437    7.2937    1.5756 C   0  0  0  0  0  0  0  0  0  0  0  0
   -0.8947    4.9735    1.4657 C   0  0  0  0  0  0  0  0  0  0  0  0
   -0.6302    3.6377    1.2193 C   0  0  0  0  0  0  0  0  0  0  0  0
   -0.2919    1.3750   -1.6697 C   0  0  0  0  0  0  0  0  0  0  0  0
    0.6388    2.2641   -2.1924 C   0  0  0  0  0  0  0  0  0  0  0  0
    1.1462    2.0799   -3.4640 C   0  0  0  0  0  0  0  0  0  0  0  0
    0.7391    1.0068   -4.2461 C   0  0  0  0  0  0  0  0  0  0  0  0
    1.3169    0.7935   -5.6155 C   0  0  0  0  0  0  0  0  0  0  0  0
    2.5946   -0.0440   -5.5328 C   0  0  0  0  0  0  0  0  0  0  0  0
   -0.1788    0.1129   -3.7125 C   0  0  0  0  0  0  0  0  0  0  0  0
   -0.6863    0.2899   -2.4385 C   0  0  0  0  0  0  0  0  0  0  0  0
   -2.1231    0.8737    0.0149 C   0  0  0  0  0  0  0  0  0  0  0  0
   -3.4204    0.8769   -0.4958 C   0  0  0  0  0  0  0  0  0  0  0  0
   -4.2319    1.6155   -1.8203 S   0  0  0  0  0  0  0  0  0  0  0  0
    4.9406    0.7503    1.6147 S   0  0  0  0  0  0  0  0  0  0  0  0
    5.8163   -0.2893    2.7068 C   0  0  0  0  0  0  0  0  0  0  0  0
    7.1778   -0.5198    2.9242 C   0  0  0  0  0  0  0  0  0  0  0  0
    8.2768    0.3110    2.3538 C   0  0  0  0  0  0  0  0  0  0  0  0
    8.0103    1.8091    2.4899 C   0  0  0  0  0  0  0  0  0  0  0  0
    7.3573   -1.5473    3.8521 C   0  0  0  0  0  0  0  0  0  0  0  0
    5.8277   -2.1345    4.5186 S   0  0  0  0  0  0  0  0  0  0  0  0
    4.9504   -1.0982    3.4673 C   0  0  0  0  0  0  0  0  0  0  0  0
    8.5262   -2.1457    4.3511 C   0  0  0  0  0  0  0  0  0  0  0  0
    9.6982   -2.3643    3.6683 C   0  0  0  0  0  0  0  0  0  0  0  0
    9.8092   -2.4308    2.1982 C   0  0  0  0  0  0  0  0  0  0  0  0
    8.9582   -2.1935    1.3670 O   0  0  0  0  0  0  0  0  0  0  0  0
   11.1617   -2.9763    1.9332 C   0  0  0  0  0  0  0  0  0  0  0  0
   11.7487   -3.2459    0.7134 C   0  0  0  0  0  0  0  0  0  0  0  0
   13.0321   -3.7687    0.7190 C   0  0  0  0  0  0  0  0  0  0  0  0
   13.6423   -4.0397   -0.4420 F   0  0  0  0  0  0  0  0  0  0  0  0
   13.6943   -4.0159    1.9213 C   0  0  0  0  0  0  0  0  0  0  0  0
   14.9312   -4.5263    1.8961 F   0  0  0  0  0  0  0  0  0  0  0  0
   13.1027   -3.7488    3.1473 C   0  0  0  0  0  0  0  0  0  0  0  0
   11.8209   -3.2221    3.1488 C   0  0  0  0  0  0  0  0  0  0  0  0
   10.9378   -2.8317    4.2468 C   0  0  0  0  0  0  0  0  0  0  0  0
   11.2651   -2.8324    5.5780 C   0  0  0  0  0  0  0  0  0  0  0  0
   12.4964   -3.2922    6.0887 C   0  0  0  0  0  0  0  0  0  0  0  0
   13.4753   -3.6608    6.5613 N   0  0  0  0  0  0  0  0  0  0  0  0
   10.4314   -2.3460    6.6073 C   0  0  0  0  0  0  0  0  0  0  0  0
    9.8203   -1.9447    7.4927 N   0  0  0  0  0  0  0  0  0  0  0  0
   -7.6947    0.1946   -1.7237 H   0  0  0  0  0  0  0  0  0  0  0  0
   -5.5781    3.7493   -6.4420 H   0  0  0  0  0  0  0  0  0  0  0  0
  -10.2466    1.7892   -6.3063 H   0  0  0  0  0  0  0  0  0  0  0  0
   -9.9730    4.0634   -8.8652 H   0  0  0  0  0  0  0  0  0  0  0  0
  -10.0796    2.0036  -10.2594 H   0  0  0  0  0  0  0  0  0  0  0  0
   -8.4041    0.2977   -9.2020 H   0  0  0  0  0  0  0  0  0  0  0  0
   -5.9672    1.3487   -9.3101 H   0  0  0  0  0  0  0  0  0  0  0  0
   -6.1408    3.7031  -10.4365 H   0  0  0  0  0  0  0  0  0  0  0  0
   -8.0371    2.5273  -11.8622 H   0  0  0  0  0  0  0  0  0  0  0  0
   -8.6779    4.0750  -11.2559 H   0  0  0  0  0  0  0  0  0  0  0  0
   -7.6042    5.0848   -8.9691 H   0  0  0  0  0  0  0  0  0  0  0  0
   -7.2460   -1.3963   -0.4088 H   0  0  0  0  0  0  0  0  0  0  0  0
   -6.1385   -1.6981    0.9356 H   0  0  0  0  0  0  0  0  0  0  0  0
   -8.2625   -0.6924    1.7277 H   0  0  0  0  0  0  0  0  0  0  0  0
   -6.9034    0.3922    2.0485 H   0  0  0  0  0  0  0  0  0  0  0  0
   -8.0031    0.7177    0.7040 H   0  0  0  0  0  0  0  0  0  0  0  0
   -0.5875   -1.4811    3.1267 H   0  0  0  0  0  0  0  0  0  0  0  0
    3.3614   -2.6235    5.7370 H   0  0  0  0  0  0  0  0  0  0  0  0
    3.2151   -2.0106    8.1055 H   0  0  0  0  0  0  0  0  0  0  0  0
    0.8978    0.5169    9.4398 H   0  0  0  0  0  0  0  0  0  0  0  0
    1.9845   -0.8179    9.8512 H   0  0  0  0  0  0  0  0  0  0  0  0
    2.8684    1.9656    8.9458 H   0  0  0  0  0  0  0  0  0  0  0  0
    3.9520    0.6341    9.3499 H   0  0  0  0  0  0  0  0  0  0  0  0
    2.9319    1.3515   10.6013 H   0  0  0  0  0  0  0  0  0  0  0  0
    0.6852    1.2716    7.0982 H   0  0  0  0  0  0  0  0  0  0  0  0
    0.8457    0.6763    4.7289 H   0  0  0  0  0  0  0  0  0  0  0  0
    0.5007   -3.0378    4.8496 H   0  0  0  0  0  0  0  0  0  0  0  0
    0.1152   -5.4301    4.4879 H   0  0  0  0  0  0  0  0  0  0  0  0
    1.0819   -7.5750    3.6924 H   0  0  0  0  0  0  0  0  0  0  0  0
    2.2773   -7.5785    2.3878 H   0  0  0  0  0  0  0  0  0  0  0  0
    0.0521   -8.3200    1.5589 H   0  0  0  0  0  0  0  0  0  0  0  0
    0.5280   -6.8036    0.7864 H   0  0  0  0  0  0  0  0  0  0  0  0
   -0.6629   -6.7929    2.0865 H   0  0  0  0  0  0  0  0  0  0  0  0
    3.2133   -5.4893    1.5584 H   0  0  0  0  0  0  0  0  0  0  0  0
    3.5897   -3.0974    1.9000 H   0  0  0  0  0  0  0  0  0  0  0  0
    2.0306    1.6788    0.2426 H   0  0  0  0  0  0  0  0  0  0  0  0
   -2.0848    3.3695   -1.8118 H   0  0  0  0  0  0  0  0  0  0  0  0
   -2.5591    5.7287   -1.3627 H   0  0  0  0  0  0  0  0  0  0  0  0
   -1.1203    7.6254    1.4506 H   0  0  0  0  0  0  0  0  0  0  0  0
   -1.9687    7.7474   -0.0977 H   0  0  0  0  0  0  0  0  0  0  0  0
   -3.2002    6.7505    2.5171 H   0  0  0  0  0  0  0  0  0  0  0  0
   -3.4795    8.3345    1.7854 H   0  0  0  0  0  0  0  0  0  0  0  0
   -4.0443    6.8700    0.9735 H   0  0  0  0  0  0  0  0  0  0  0  0
   -0.5561    5.4194    2.3903 H   0  0  0  0  0  0  0  0  0  0  0  0
   -0.0926    3.0564    1.9543 H   0  0  0  0  0  0  0  0  0  0  0  0
    0.9553    3.1152   -1.6066 H   0  0  0  0  0  0  0  0  0  0  0  0
    1.8640    2.7852   -3.8583 H   0  0  0  0  0  0  0  0  0  0  0  0
    1.5482    1.7575   -6.0732 H   0  0  0  0  0  0  0  0  0  0  0  0
    0.5901    0.2804   -6.2482 H   0  0  0  0  0  0  0  0  0  0  0  0
    3.3361    0.4570   -4.9145 H   0  0  0  0  0  0  0  0  0  0  0  0
    3.0147   -0.1970   -6.5242 H   0  0  0  0  0  0  0  0  0  0  0  0
    2.3822   -1.0152   -5.0912 H   0  0  0  0  0  0  0  0  0  0  0  0
   -0.5061   -0.7315   -4.3023 H   0  0  0  0  0  0  0  0  0  0  0  0
   -1.3982   -0.4209   -2.0447 H   0  0  0  0  0  0  0  0  0  0  0  0
    8.3980    0.0507    1.2981 H   0  0  0  0  0  0  0  0  0  0  0  0
    9.2104    0.0635    2.8621 H   0  0  0  0  0  0  0  0  0  0  0  0
    8.8782    2.3650    2.1446 H   0  0  0  0  0  0  0  0  0  0  0  0
    7.8259    2.0691    3.5302 H   0  0  0  0  0  0  0  0  0  0  0  0
    7.1528    2.1148    1.8972 H   0  0  0  0  0  0  0  0  0  0  0  0
    8.4479   -2.5369    5.3591 H   0  0  0  0  0  0  0  0  0  0  0  0
   11.2326   -3.0568   -0.2142 H   0  0  0  0  0  0  0  0  0  0  0  0
   13.6525   -3.9627    4.0492 H   0  0  0  0  0  0  0  0  0  0  0  0
  1  2  2  0  0  0  0
  2  3  1  0  0  0  0
  3  4  2  0  0  0  0
  3  5  1  0  0  0  0
  5  6  2  0  0  0  0
  6  7  1  0  0  0  0
  7  8  2  0  0  0  0
  8  9  1  0  0  0  0
  9 10  2  0  0  0  0
 10 11  1  0  0  0  0
 11 12  2  0  0  0  0
 12 13  1  0  0  0  0
 13 14  3  0  0  0  0
 12 15  1  0  0  0  0
 15 16  3  0  0  0  0
  8 17  1  0  0  0  0
 17 18  1  0  0  0  0
 18 19  1  0  0  0  0
 19 20  2  0  0  0  0
 20 21  1  0  0  0  0
 21 22  1  0  0  0  0
 21 23  1  0  0  0  0
  1 24  1  0  0  0  0
 24 25  2  0  0  0  0
 25 26  1  0  0  0  0
 26 27  1  0  0  0  0
 25 28  1  0  0  0  0
 28 29  1  0  0  0  0
 29 30  1  0  0  0  0
 30 31  1  0  0  0  0
 31 32  2  0  0  0  0
 32 33  1  0  0  0  0
 33 34  1  0  0  0  0
 34 35  1  0  0  0  0
 35 36  2  0  0  0  0
 36 37  1  0  0  0  0
 37 38  2  0  0  0  0
 38 39  1  0  0  0  0
 39 40  1  0  0  0  0
 38 41  1  0  0  0  0
 41 42  2  0  0  0  0
 34 43  1  0  0  0  0
 43 44  2  0  0  0  0
 44 45  1  0  0  0  0
 45 46  2  0  0  0  0
 46 47  1  0  0  0  0
 47 48  1  0  0  0  0
 46 49  1  0  0  0  0
 49 50  2  0  0  0  0
 34 51  1  0  0  0  0
 51 52  2  0  0  0  0
 52 53  1  0  0  0  0
 53 54  1  0  0  0  0
 54 55  2  0  0  0  0
 55 56  1  0  0  0  0
 56 57  1  0  0  0  0
 57 58  2  0  0  0  0
 58 59  1  0  0  0  0
 59 60  2  0  0  0  0
 60 61  1  0  0  0  0
 61 62  1  0  0  0  0
 60 63  1  0  0  0  0
 63 64  2  0  0  0  0
 56 65  1  0  0  0  0
 65 66  2  0  0  0  0
 66 67  1  0  0  0  0
 67 68  2  0  0  0  0
 68 69  1  0  0  0  0
 69 70  1  0  0  0  0
 68 71  1  0  0  0  0
 71 72  2  0  0  0  0
 56 73  1  0  0  0  0
 73 74  1  0  0  0  0
 74 75  1  0  0  0  0
 52 76  1  0  0  0  0
 76 77  1  0  0  0  0
 77 78  1  0  0  0  0
 78 79  1  0  0  0  0
 79 80  1  0  0  0  0
 78 81  2  0  0  0  0
 81 82  1  0  0  0  0
 82 83  1  0  0  0  0
 81 84  1  0  0  0  0
 84 85  2  0  0  0  0
 85 86  1  0  0  0  0
 86 87  2  0  0  0  0
 86 88  1  0  0  0  0
 88 89  2  0  0  0  0
 89 90  1  0  0  0  0
 90 91  1  0  0  0  0
 90 92  2  0  0  0  0
 92 93  1  0  0  0  0
 92 94  1  0  0  0  0
 94 95  2  0  0  0  0
 95 96  1  0  0  0  0
 96 97  2  0  0  0  0
 97 98  1  0  0  0  0
 98 99  3  0  0  0  0
 97100  1  0  0  0  0
100101  3  0  0  0  0
 11  2  1  0  0  0  0
 23 17  1  0  0  0  0
 75 24  1  0  0  0  0
 83 77  2  0  0  0  0
 96 85  1  0  0  0  0
 10  5  1  0  0  0  0
 22 18  1  0  0  0  0
 74 28  2  0  0  0  0
 95 88  1  0  0  0  0
 23  7  1  0  0  0  0
 73 30  2  0  0  0  0
 55 31  1  0  0  0  0
 64 57  1  0  0  0  0
 72 65  1  0  0  0  0
 53 33  2  0  0  0  0
 42 35  1  0  0  0  0
 50 43  1  0  0  0  0
 83 51  1  0  0  0  0
  1102  1  0  0  0  0
  6103  1  0  0  0  0
  9104  1  0  0  0  0
 17105  1  0  0  0  0
 18106  1  0  0  0  0
 19107  1  0  0  0  0
 20108  1  0  0  0  0
 21109  1  0  0  0  0
 22110  1  0  0  0  0
 22111  1  0  0  0  0
 23112  1  0  0  0  0
 26113  1  0  0  0  0
 26114  1  0  0  0  0
 27115  1  0  0  0  0
 27116  1  0  0  0  0
 27117  1  0  0  0  0
 32118  1  0  0  0  0
 36119  1  0  0  0  0
 37120  1  0  0  0  0
 39121  1  0  0  0  0
 39122  1  0  0  0  0
 40123  1  0  0  0  0
 40124  1  0  0  0  0
 40125  1  0  0  0  0
 41126  1  0  0  0  0
 42127  1  0  0  0  0
 44128  1  0  0  0  0
 45129  1  0  0  0  0
 47130  1  0  0  0  0
 47131  1  0  0  0  0
 48132  1  0  0  0  0
 48133  1  0  0  0  0
 48134  1  0  0  0  0
 49135  1  0  0  0  0
 50136  1  0  0  0  0
 54137  1  0  0  0  0
 58138  1  0  0  0  0
 59139  1  0  0  0  0
 61140  1  0  0  0  0
 61141  1  0  0  0  0
 62142  1  0  0  0  0
 62143  1  0  0  0  0
 62144  1  0  0  0  0
 63145  1  0  0  0  0
 64146  1  0  0  0  0
 66147  1  0  0  0  0
 67148  1  0  0  0  0
 69149  1  0  0  0  0
 69150  1  0  0  0  0
 70151  1  0  0  0  0
 70152  1  0  0  0  0
 70153  1  0  0  0  0
 71154  1  0  0  0  0
 72155  1  0  0  0  0
 79156  1  0  0  0  0
 79157  1  0  0  0  0
 80158  1  0  0  0  0
 80159  1  0  0  0  0
 80160  1  0  0  0  0
 84161  1  0  0  0  0
 89162  1  0  0  0  0
 94163  1  0  0  0  0
M  END
