119

C         -4.87010       -0.83690        5.60340
C         -6.06570       -1.28040        5.09420
C         -6.35830       -1.56570        3.68770
O         -5.61570       -1.42650        2.72900
C         -7.74050       -2.06990        3.64350
C         -8.44140       -2.49480        2.51800
C         -9.71710       -2.92980        2.78560
C        -10.25480       -2.94200        4.07920
C         -9.57210       -2.52690        5.19830
C         -8.27230       -2.07850        4.94860
C         -7.25230       -1.57890        5.87090
C         -7.41750       -1.43170        7.22560
C         -8.60340       -1.73780        7.92500
N         -9.52950       -1.96120        8.56630
C         -6.44720       -0.95540        8.13100
N         -5.71920       -0.58050        8.93800
C        -11.57600       -3.49820        3.61070
C        -12.77110       -2.52030        3.49400
C        -12.18410       -1.15210        3.25110
C        -11.67550       -1.14110        2.02620
C        -11.90880       -2.50230        1.41880
C        -13.25060       -2.86520        2.07490
C        -10.97640       -3.48520        2.16920
C         -3.65490       -0.54840        4.97350
C         -2.50710       -0.13990        5.67530
C         -2.42590        0.11490        7.14510
C         -2.93870        1.51740        7.48320
C         -1.43060        0.05130        4.81930
C         -1.72460       -0.19500        3.46700
S         -3.36250       -0.67760        3.23780
C         -0.59460       -0.01280        2.66580
C          0.53800        0.34270        3.40610
S          0.24150        0.50300        5.10150
C          1.61220        0.41040        2.50710
C          2.99570        0.59200        2.76630
N          3.43880        0.83650        4.00520
C          4.73910        0.92810        4.18800
C          5.21030        1.20750        5.57640
C          5.64660        0.76290        3.11120
C          7.12370        0.84600        3.30920
N          5.21960        0.53200        1.88750
C          3.89820        0.45130        1.69050
C          3.36270        0.26560        0.38980
C          4.01780        0.21810       -0.84880
S          5.62600        0.25430       -1.47430
C          4.97600        0.21620       -3.09870
C          5.58050        0.22490       -4.36160
C          7.06190        0.11950       -4.55010
C          7.83420        1.24380       -3.85900
C          4.62650        0.16900       -5.37420
S          2.98600        0.06450       -4.73640
C          3.57360        0.16060       -3.12360
C          3.02940        0.16160       -1.83750
N          1.78890        0.15050       -1.25590
C          0.61950        0.44090       -2.05460
C          0.11270       -0.78850       -2.80650
C          1.96760        0.18780        0.11450
C          1.07990        0.13550        1.21430
N         -0.27570       -0.12030        1.33640
C         -1.15350       -0.89110        0.48300
C         -0.78270       -2.37220        0.51780
C          4.74050        0.07810       -6.77870
C          5.68410        0.56990       -7.63360
C          5.81660       -0.01940       -8.98920
O          5.06330       -0.80230       -9.52110
C          7.09050        0.51880       -9.52110
C          7.73730        0.20150      -10.69780
C          8.94450        0.84090      -10.93990
F          9.61140        0.56220      -12.07250
C          9.49480        1.75580      -10.05450
C          8.82990        2.07410       -8.87970
C          7.61900        1.45440       -8.61290
C          6.68490        1.60160       -7.49720
C          6.62270        2.67880       -6.65130
C          5.54940        2.90780       -5.76760
N          4.68020        3.15810       -5.06060
C          7.57930        3.71280       -6.62340
N          8.34120        4.56790       -6.54580
H         -4.83750       -0.69450        6.67480
H         -7.98600       -2.47150        1.54020
H        -10.00140       -2.54860        6.18570
H        -11.86560       -4.45800        4.03400
H        -13.49570       -2.59530        4.30020
H        -12.14920       -0.37550        3.99260
H        -11.13030       -0.35360        1.53970
H        -11.84930       -2.56150        0.33510
H        -13.52460       -3.91220        1.95200
H        -14.06870       -2.22920        1.74040
H        -10.87410       -4.43730        1.65160
H         -3.00040       -0.62440        7.70530
H         -1.37950        0.03540        7.44650
H         -2.85760        1.69070        8.55240
H         -2.35360        2.27020        6.96000
H         -3.98190        1.62550        7.19620
H          5.86020        0.40700        5.92680
H          5.77640        2.13740        5.60560
H          4.35010        1.28820        6.23470
H          7.62070        0.68160        2.35760
H          7.40070        1.82550        3.69650
H          7.45490        0.09540        4.02540
H          7.30110        0.09300       -5.61350
H          7.38200       -0.83330       -4.11590
H          7.73180        1.16820       -2.78010
H          8.88950        1.17470       -4.11150
H          7.46950        2.22170       -4.16200
H         -0.14610        0.87630       -1.41110
H          0.90330        1.20480       -2.78720
H         -0.07350       -1.62020       -2.13310
H         -0.80720       -0.54470       -3.33060
H          0.85000       -1.10400       -3.54000
H         -1.13390       -0.52000       -0.53680
H         -2.16660       -0.75840        0.87080
H         -1.45900       -2.93860       -0.11640
H          0.23880       -2.52090        0.17220
H         -0.86060       -2.75420        1.53290
H          3.96930       -0.51520       -7.26430
H          7.32490       -0.50840      -11.39670
H         10.44170        2.21370      -10.29330
H          9.26410        2.78220       -8.19260
