
  xtb     02022218193D
 energy: -204.974834938198 gnorm: 0.000247101064 xtb: 6.4.1 (unknown)
119133  0     0  0            999 V2000
   -4.8701   -0.8369    5.6034 C   0  0  0  0  0  0  0  0  0  0  0  0
   -6.0657   -1.2804    5.0942 C   0  0  0  0  0  0  0  0  0  0  0  0
   -6.3583   -1.5657    3.6877 C   0  0  0  0  0  0  0  0  0  0  0  0
   -5.6157   -1.4265    2.7290 O   0  0  0  0  0  0  0  0  0  0  0  0
   -7.7405   -2.0699    3.6435 C   0  0  0  0  0  0  0  0  0  0  0  0
   -8.4414   -2.4948    2.5180 C   0  0  0  0  0  0  0  0  0  0  0  0
   -9.7171   -2.9298    2.7856 C   0  0  0  0  0  0  0  0  0  0  0  0
  -10.2548   -2.9420    4.0792 C   0  0  0  0  0  0  0  0  0  0  0  0
   -9.5721   -2.5269    5.1983 C   0  0  0  0  0  0  0  0  0  0  0  0
   -8.2723   -2.0785    4.9486 C   0  0  0  0  0  0  0  0  0  0  0  0
   -7.2523   -1.5789    5.8709 C   0  0  0  0  0  0  0  0  0  0  0  0
   -7.4175   -1.4317    7.2256 C   0  0  0  0  0  0  0  0  0  0  0  0
   -8.6034   -1.7378    7.9250 C   0  0  0  0  0  0  0  0  0  0  0  0
   -9.5295   -1.9612    8.5663 N   0  0  0  0  0  0  0  0  0  0  0  0
   -6.4472   -0.9554    8.1310 C   0  0  0  0  0  0  0  0  0  0  0  0
   -5.7192   -0.5805    8.9380 N   0  0  0  0  0  0  0  0  0  0  0  0
  -11.5760   -3.4982    3.6107 C   0  0  0  0  0  0  0  0  0  0  0  0
  -12.7711   -2.5203    3.4940 C   0  0  0  0  0  0  0  0  0  0  0  0
  -12.1841   -1.1521    3.2511 C   0  0  0  0  0  0  0  0  0  0  0  0
  -11.6755   -1.1411    2.0262 C   0  0  0  0  0  0  0  0  0  0  0  0
  -11.9088   -2.5023    1.4188 C   0  0  0  0  0  0  0  0  0  0  0  0
  -13.2506   -2.8652    2.0749 C   0  0  0  0  0  0  0  0  0  0  0  0
  -10.9764   -3.4852    2.1692 C   0  0  0  0  0  0  0  0  0  0  0  0
   -3.6549   -0.5484    4.9735 C   0  0  0  0  0  0  0  0  0  0  0  0
   -2.5071   -0.1399    5.6753 C   0  0  0  0  0  0  0  0  0  0  0  0
   -2.4259    0.1149    7.1451 C   0  0  0  0  0  0  0  0  0  0  0  0
   -2.9387    1.5174    7.4832 C   0  0  0  0  0  0  0  0  0  0  0  0
   -1.4306    0.0513    4.8193 C   0  0  0  0  0  0  0  0  0  0  0  0
   -1.7246   -0.1950    3.4670 C   0  0  0  0  0  0  0  0  0  0  0  0
   -3.3625   -0.6776    3.2378 S   0  0  0  0  0  0  0  0  0  0  0  0
   -0.5946   -0.0128    2.6658 C   0  0  0  0  0  0  0  0  0  0  0  0
    0.5380    0.3427    3.4061 C   0  0  0  0  0  0  0  0  0  0  0  0
    0.2415    0.5030    5.1015 S   0  0  0  0  0  0  0  0  0  0  0  0
    1.6122    0.4104    2.5071 C   0  0  0  0  0  0  0  0  0  0  0  0
    2.9957    0.5920    2.7663 C   0  0  0  0  0  0  0  0  0  0  0  0
    3.4388    0.8365    4.0052 N   0  0  0  0  0  0  0  0  0  0  0  0
    4.7391    0.9281    4.1880 C   0  0  0  0  0  0  0  0  0  0  0  0
    5.2103    1.2075    5.5764 C   0  0  0  0  0  0  0  0  0  0  0  0
    5.6466    0.7629    3.1112 C   0  0  0  0  0  0  0  0  0  0  0  0
    7.1237    0.8460    3.3092 C   0  0  0  0  0  0  0  0  0  0  0  0
    5.2196    0.5320    1.8875 N   0  0  0  0  0  0  0  0  0  0  0  0
    3.8982    0.4513    1.6905 C   0  0  0  0  0  0  0  0  0  0  0  0
    3.3627    0.2656    0.3898 C   0  0  0  0  0  0  0  0  0  0  0  0
    4.0178    0.2181   -0.8488 C   0  0  0  0  0  0  0  0  0  0  0  0
    5.6260    0.2543   -1.4743 S   0  0  0  0  0  0  0  0  0  0  0  0
    4.9760    0.2162   -3.0987 C   0  0  0  0  0  0  0  0  0  0  0  0
    5.5805    0.2249   -4.3616 C   0  0  0  0  0  0  0  0  0  0  0  0
    7.0619    0.1195   -4.5501 C   0  0  0  0  0  0  0  0  0  0  0  0
    7.8342    1.2438   -3.8590 C   0  0  0  0  0  0  0  0  0  0  0  0
    4.6265    0.1690   -5.3742 C   0  0  0  0  0  0  0  0  0  0  0  0
    2.9860    0.0645   -4.7364 S   0  0  0  0  0  0  0  0  0  0  0  0
    3.5736    0.1606   -3.1236 C   0  0  0  0  0  0  0  0  0  0  0  0
    3.0294    0.1616   -1.8375 C   0  0  0  0  0  0  0  0  0  0  0  0
    1.7889    0.1505   -1.2559 N   0  0  0  0  0  0  0  0  0  0  0  0
    0.6195    0.4409   -2.0546 C   0  0  0  0  0  0  0  0  0  0  0  0
    0.1127   -0.7885   -2.8065 C   0  0  0  0  0  0  0  0  0  0  0  0
    1.9676    0.1878    0.1145 C   0  0  0  0  0  0  0  0  0  0  0  0
    1.0799    0.1355    1.2143 C   0  0  0  0  0  0  0  0  0  0  0  0
   -0.2757   -0.1203    1.3364 N   0  0  0  0  0  0  0  0  0  0  0  0
   -1.1535   -0.8911    0.4830 C   0  0  0  0  0  0  0  0  0  0  0  0
   -0.7827   -2.3722    0.5178 C   0  0  0  0  0  0  0  0  0  0  0  0
    4.7405    0.0781   -6.7787 C   0  0  0  0  0  0  0  0  0  0  0  0
    5.6841    0.5699   -7.6336 C   0  0  0  0  0  0  0  0  0  0  0  0
    5.8166   -0.0194   -8.9892 C   0  0  0  0  0  0  0  0  0  0  0  0
    5.0633   -0.8023   -9.5211 O   0  0  0  0  0  0  0  0  0  0  0  0
    7.0905    0.5188   -9.5211 C   0  0  0  0  0  0  0  0  0  0  0  0
    7.7373    0.2015  -10.6978 C   0  0  0  0  0  0  0  0  0  0  0  0
    8.9445    0.8409  -10.9399 C   0  0  0  0  0  0  0  0  0  0  0  0
    9.6114    0.5622  -12.0725 F   0  0  0  0  0  0  0  0  0  0  0  0
    9.4948    1.7558  -10.0545 C   0  0  0  0  0  0  0  0  0  0  0  0
    8.8299    2.0741   -8.8797 C   0  0  0  0  0  0  0  0  0  0  0  0
    7.6190    1.4544   -8.6129 C   0  0  0  0  0  0  0  0  0  0  0  0
    6.6849    1.6016   -7.4972 C   0  0  0  0  0  0  0  0  0  0  0  0
    6.6227    2.6788   -6.6513 C   0  0  0  0  0  0  0  0  0  0  0  0
    5.5494    2.9078   -5.7676 C   0  0  0  0  0  0  0  0  0  0  0  0
    4.6802    3.1581   -5.0606 N   0  0  0  0  0  0  0  0  0  0  0  0
    7.5793    3.7128   -6.6234 C   0  0  0  0  0  0  0  0  0  0  0  0
    8.3412    4.5679   -6.5458 N   0  0  0  0  0  0  0  0  0  0  0  0
   -4.8375   -0.6945    6.6748 H   0  0  0  0  0  0  0  0  0  0  0  0
   -7.9860   -2.4715    1.5402 H   0  0  0  0  0  0  0  0  0  0  0  0
  -10.0014   -2.5486    6.1857 H   0  0  0  0  0  0  0  0  0  0  0  0
  -11.8656   -4.4580    4.0340 H   0  0  0  0  0  0  0  0  0  0  0  0
  -13.4957   -2.5953    4.3002 H   0  0  0  0  0  0  0  0  0  0  0  0
  -12.1492   -0.3755    3.9926 H   0  0  0  0  0  0  0  0  0  0  0  0
  -11.1303   -0.3536    1.5397 H   0  0  0  0  0  0  0  0  0  0  0  0
  -11.8493   -2.5615    0.3351 H   0  0  0  0  0  0  0  0  0  0  0  0
  -13.5246   -3.9122    1.9520 H   0  0  0  0  0  0  0  0  0  0  0  0
  -14.0687   -2.2292    1.7404 H   0  0  0  0  0  0  0  0  0  0  0  0
  -10.8741   -4.4373    1.6516 H   0  0  0  0  0  0  0  0  0  0  0  0
   -3.0004   -0.6244    7.7053 H   0  0  0  0  0  0  0  0  0  0  0  0
   -1.3795    0.0354    7.4465 H   0  0  0  0  0  0  0  0  0  0  0  0
   -2.8576    1.6907    8.5524 H   0  0  0  0  0  0  0  0  0  0  0  0
   -2.3536    2.2702    6.9600 H   0  0  0  0  0  0  0  0  0  0  0  0
   -3.9819    1.6255    7.1962 H   0  0  0  0  0  0  0  0  0  0  0  0
    5.8602    0.4070    5.9268 H   0  0  0  0  0  0  0  0  0  0  0  0
    5.7764    2.1374    5.6056 H   0  0  0  0  0  0  0  0  0  0  0  0
    4.3501    1.2882    6.2347 H   0  0  0  0  0  0  0  0  0  0  0  0
    7.6207    0.6816    2.3576 H   0  0  0  0  0  0  0  0  0  0  0  0
    7.4007    1.8255    3.6965 H   0  0  0  0  0  0  0  0  0  0  0  0
    7.4549    0.0954    4.0254 H   0  0  0  0  0  0  0  0  0  0  0  0
    7.3011    0.0930   -5.6135 H   0  0  0  0  0  0  0  0  0  0  0  0
    7.3820   -0.8333   -4.1159 H   0  0  0  0  0  0  0  0  0  0  0  0
    7.7318    1.1682   -2.7801 H   0  0  0  0  0  0  0  0  0  0  0  0
    8.8895    1.1747   -4.1115 H   0  0  0  0  0  0  0  0  0  0  0  0
    7.4695    2.2217   -4.1620 H   0  0  0  0  0  0  0  0  0  0  0  0
   -0.1461    0.8763   -1.4111 H   0  0  0  0  0  0  0  0  0  0  0  0
    0.9033    1.2048   -2.7872 H   0  0  0  0  0  0  0  0  0  0  0  0
   -0.0735   -1.6202   -2.1331 H   0  0  0  0  0  0  0  0  0  0  0  0
   -0.8072   -0.5447   -3.3306 H   0  0  0  0  0  0  0  0  0  0  0  0
    0.8500   -1.1040   -3.5400 H   0  0  0  0  0  0  0  0  0  0  0  0
   -1.1339   -0.5200   -0.5368 H   0  0  0  0  0  0  0  0  0  0  0  0
   -2.1666   -0.7584    0.8708 H   0  0  0  0  0  0  0  0  0  0  0  0
   -1.4590   -2.9386   -0.1164 H   0  0  0  0  0  0  0  0  0  0  0  0
    0.2388   -2.5209    0.1722 H   0  0  0  0  0  0  0  0  0  0  0  0
   -0.8606   -2.7542    1.5329 H   0  0  0  0  0  0  0  0  0  0  0  0
    3.9693   -0.5152   -7.2643 H   0  0  0  0  0  0  0  0  0  0  0  0
    7.3249   -0.5084  -11.3967 H   0  0  0  0  0  0  0  0  0  0  0  0
   10.4417    2.2137  -10.2933 H   0  0  0  0  0  0  0  0  0  0  0  0
    9.2641    2.7822   -8.1926 H   0  0  0  0  0  0  0  0  0  0  0  0
  1  2  2  0  0  0  0
  2  3  1  0  0  0  0
  3  4  2  0  0  0  0
  3  5  1  0  0  0  0
  5  6  2  0  0  0  0
  6  7  1  0  0  0  0
  7  8  2  0  0  0  0
  8  9  1  0  0  0  0
  9 10  2  0  0  0  0
 10 11  1  0  0  0  0
 11 12  2  0  0  0  0
 12 13  1  0  0  0  0
 13 14  3  0  0  0  0
 12 15  1  0  0  0  0
 15 16  3  0  0  0  0
  8 17  1  0  0  0  0
 17 18  1  0  0  0  0
 18 19  1  0  0  0  0
 19 20  2  0  0  0  0
 20 21  1  0  0  0  0
 21 22  1  0  0  0  0
 21 23  1  0  0  0  0
  1 24  1  0  0  0  0
 24 25  2  0  0  0  0
 25 26  1  0  0  0  0
 26 27  1  0  0  0  0
 25 28  1  0  0  0  0
 28 29  2  0  0  0  0
 29 30  1  0  0  0  0
 29 31  1  0  0  0  0
 31 32  2  0  0  0  0
 32 33  1  0  0  0  0
 32 34  1  0  0  0  0
 34 35  2  0  0  0  0
 35 36  1  0  0  0  0
 36 37  2  0  0  0  0
 37 38  1  0  0  0  0
 37 39  1  0  0  0  0
 39 40  1  0  0  0  0
 39 41  2  0  0  0  0
 41 42  1  0  0  0  0
 42 43  2  0  0  0  0
 43 44  1  0  0  0  0
 44 45  1  0  0  0  0
 45 46  1  0  0  0  0
 46 47  1  0  0  0  0
 47 48  1  0  0  0  0
 48 49  1  0  0  0  0
 47 50  2  0  0  0  0
 50 51  1  0  0  0  0
 51 52  1  0  0  0  0
 52 53  1  0  0  0  0
 53 54  1  0  0  0  0
 54 55  1  0  0  0  0
 55 56  1  0  0  0  0
 54 57  1  0  0  0  0
 57 58  2  0  0  0  0
 58 59  1  0  0  0  0
 59 60  1  0  0  0  0
 60 61  1  0  0  0  0
 50 62  1  0  0  0  0
 62 63  2  0  0  0  0
 63 64  1  0  0  0  0
 64 65  2  0  0  0  0
 64 66  1  0  0  0  0
 66 67  2  0  0  0  0
 67 68  1  0  0  0  0
 68 69  1  0  0  0  0
 68 70  2  0  0  0  0
 70 71  1  0  0  0  0
 71 72  2  0  0  0  0
 72 73  1  0  0  0  0
 73 74  2  0  0  0  0
 74 75  1  0  0  0  0
 75 76  3  0  0  0  0
 74 77  1  0  0  0  0
 77 78  3  0  0  0  0
 11  2  1  0  0  0  0
 23 17  1  0  0  0  0
 30 24  1  0  0  0  0
 59 31  1  0  0  0  0
 73 63  1  0  0  0  0
 10  5  1  0  0  0  0
 22 18  1  0  0  0  0
 33 28  1  0  0  0  0
 58 34  1  0  0  0  0
 72 66  1  0  0  0  0
 23  7  1  0  0  0  0
 42 35  1  0  0  0  0
 57 43  1  0  0  0  0
 53 44  2  0  0  0  0
 52 46  2  0  0  0  0
  1 79  1  0  0  0  0
  6 80  1  0  0  0  0
  9 81  1  0  0  0  0
 17 82  1  0  0  0  0
 18 83  1  0  0  0  0
 19 84  1  0  0  0  0
 20 85  1  0  0  0  0
 21 86  1  0  0  0  0
 22 87  1  0  0  0  0
 22 88  1  0  0  0  0
 23 89  1  0  0  0  0
 26 90  1  0  0  0  0
 26 91  1  0  0  0  0
 27 92  1  0  0  0  0
 27 93  1  0  0  0  0
 27 94  1  0  0  0  0
 38 95  1  0  0  0  0
 38 96  1  0  0  0  0
 38 97  1  0  0  0  0
 40 98  1  0  0  0  0
 40 99  1  0  0  0  0
 40100  1  0  0  0  0
 48101  1  0  0  0  0
 48102  1  0  0  0  0
 49103  1  0  0  0  0
 49104  1  0  0  0  0
 49105  1  0  0  0  0
 55106  1  0  0  0  0
 55107  1  0  0  0  0
 56108  1  0  0  0  0
 56109  1  0  0  0  0
 56110  1  0  0  0  0
 60111  1  0  0  0  0
 60112  1  0  0  0  0
 61113  1  0  0  0  0
 61114  1  0  0  0  0
 61115  1  0  0  0  0
 62116  1  0  0  0  0
 67117  1  0  0  0  0
 70118  1  0  0  0  0
 71119  1  0  0  0  0
M  END
