
  xtb     02102223443D
 energy: -206.062607641688 gnorm: 0.000367801972 xtb: 6.4.1 (unknown)
103116  0     0  0            999 V2000
    1.4982   -3.4780    3.9387 C   0  0  0  0  0  0  0  0  0  0  0  0
    0.8090   -4.4767    4.5591 C   0  0  0  0  0  0  0  0  0  0  0  0
   -0.6023   -4.8932    4.3570 C   0  0  0  0  0  0  0  0  0  0  0  0
   -1.3462   -4.6304    3.4357 O   0  0  0  0  0  0  0  0  0  0  0  0
   -0.9470   -5.7120    5.5321 C   0  0  0  0  0  0  0  0  0  0  0  0
   -2.2044   -6.2275    5.8426 C   0  0  0  0  0  0  0  0  0  0  0  0
   -2.2427   -6.9355    7.0189 C   0  0  0  0  0  0  0  0  0  0  0  0
   -1.1134   -7.1188    7.8300 C   0  0  0  0  0  0  0  0  0  0  0  0
    0.1320   -6.6186    7.5347 C   0  0  0  0  0  0  0  0  0  0  0  0
    0.1938   -5.8954    6.3384 C   0  0  0  0  0  0  0  0  0  0  0  0
    1.3194   -5.2157    5.7076 C   0  0  0  0  0  0  0  0  0  0  0  0
    2.6288   -5.3184    6.0940 C   0  0  0  0  0  0  0  0  0  0  0  0
    3.7307   -4.7400    5.4264 C   0  0  0  0  0  0  0  0  0  0  0  0
    4.6827   -4.3257    4.9357 N   0  0  0  0  0  0  0  0  0  0  0  0
    3.0737   -6.0717    7.2019 C   0  0  0  0  0  0  0  0  0  0  0  0
    3.5064   -6.6586    8.0883 N   0  0  0  0  0  0  0  0  0  0  0  0
   -1.8805   -7.9172    8.8542 C   0  0  0  0  0  0  0  0  0  0  0  0
   -1.6844   -9.4479    8.8258 C   0  0  0  0  0  0  0  0  0  0  0  0
   -2.8826   -9.9788    9.5793 C   0  0  0  0  0  0  0  0  0  0  0  0
   -3.9513   -9.8053    8.8122 C   0  0  0  0  0  0  0  0  0  0  0  0
   -3.4937   -9.1541    7.5270 C   0  0  0  0  0  0  0  0  0  0  0  0
   -2.1038   -9.7887    7.3899 C   0  0  0  0  0  0  0  0  0  0  0  0
   -3.1385   -7.7129    7.9501 C   0  0  0  0  0  0  0  0  0  0  0  0
    1.1393   -2.6292    2.8654 C   0  0  0  0  0  0  0  0  0  0  0  0
    0.0939   -2.6461    1.9620 C   0  0  0  0  0  0  0  0  0  0  0  0
    0.1502   -1.5614    1.0903 C   0  0  0  0  0  0  0  0  0  0  0  0
   -0.8564   -1.0522   -0.2304 S   0  0  0  0  0  0  0  0  0  0  0  0
    0.1747    0.3398   -0.4899 C   0  0  0  0  0  0  0  0  0  0  0  0
   -0.0111    1.2751   -1.4986 C   0  0  0  0  0  0  0  0  0  0  0  0
   -1.0847    1.1835   -2.4718 C   0  0  0  0  0  0  0  0  0  0  0  0
   -0.9684    1.2567   -3.8300 C   0  0  0  0  0  0  0  0  0  0  0  0
   -2.2146    1.1701   -4.4837 C   0  0  0  0  0  0  0  0  0  0  0  0
   -2.3682    1.2504   -6.1906 Cl  0  0  0  0  0  0  0  0  0  0  0  0
   -3.2822    1.0410   -3.6422 C   0  0  0  0  0  0  0  0  0  0  0  0
   -4.7194    0.8863   -3.9962 C   0  0  0  0  0  0  0  0  0  0  0  0
   -5.0698   -0.5874   -4.2187 C   0  0  0  0  0  0  0  0  0  0  0  0
   -2.7468    0.9958   -2.0000 S   0  0  0  0  0  0  0  0  0  0  0  0
    0.9094    2.3362   -1.5573 C   0  0  0  0  0  0  0  0  0  0  0  0
    2.0081    2.3914   -0.6627 C   0  0  0  0  0  0  0  0  0  0  0  0
    2.2042    1.4474    0.3341 C   0  0  0  0  0  0  0  0  0  0  0  0
    3.3148    1.5352    1.2685 C   0  0  0  0  0  0  0  0  0  0  0  0
    4.9589    1.5983    0.7074 S   0  0  0  0  0  0  0  0  0  0  0  0
    5.5716    1.6678    2.3228 C   0  0  0  0  0  0  0  0  0  0  0  0
    7.0352    1.6683    2.5925 C   0  0  0  0  0  0  0  0  0  0  0  0
    7.5902    0.2415    2.5854 C   0  0  0  0  0  0  0  0  0  0  0  0
    4.5418    1.6469    3.2180 C   0  0  0  0  0  0  0  0  0  0  0  0
    3.2600    1.5743    2.6299 C   0  0  0  0  0  0  0  0  0  0  0  0
    4.7694    1.7011    4.9219 Cl  0  0  0  0  0  0  0  0  0  0  0  0
    1.2622    0.4070    0.4204 C   0  0  0  0  0  0  0  0  0  0  0  0
    1.2255   -0.6970    1.3070 C   0  0  0  0  0  0  0  0  0  0  0  0
    2.2121   -1.2536    2.5966 S   0  0  0  0  0  0  0  0  0  0  0  0
    3.0069    3.8163   -0.8898 S   0  0  0  0  0  0  0  0  0  0  0  0
    1.9254    4.3835   -2.1297 C   0  0  0  0  0  0  0  0  0  0  0  0
    1.8531    5.5399   -2.8869 C   0  0  0  0  0  0  0  0  0  0  0  0
    0.7276    5.5587   -3.7133 C   0  0  0  0  0  0  0  0  0  0  0  0
   -0.2314    4.0963   -3.5381 S   0  0  0  0  0  0  0  0  0  0  0  0
    0.8751    3.4915   -2.3758 C   0  0  0  0  0  0  0  0  0  0  0  0
    0.4271    6.6454   -4.5510 C   0  0  0  0  0  0  0  0  0  0  0  0
   -0.6216    6.8333   -5.4131 C   0  0  0  0  0  0  0  0  0  0  0  0
   -1.6864    5.8681   -5.7022 C   0  0  0  0  0  0  0  0  0  0  0  0
   -1.8941    4.8023   -5.1571 O   0  0  0  0  0  0  0  0  0  0  0  0
   -2.4583    6.4381   -6.8252 C   0  0  0  0  0  0  0  0  0  0  0  0
   -3.4964    5.8584   -7.5333 C   0  0  0  0  0  0  0  0  0  0  0  0
   -4.1578    4.3577   -7.0706 Cl  0  0  0  0  0  0  0  0  0  0  0  0
   -3.9856    6.5361   -8.6594 C   0  0  0  0  0  0  0  0  0  0  0  0
   -5.2915    5.8823   -9.5470 Cl  0  0  0  0  0  0  0  0  0  0  0  0
   -3.3785    7.7185   -9.0807 C   0  0  0  0  0  0  0  0  0  0  0  0
   -3.9278    8.4743  -10.5128 Cl  0  0  0  0  0  0  0  0  0  0  0  0
   -2.3158    8.2937   -8.3629 C   0  0  0  0  0  0  0  0  0  0  0  0
   -1.5081    9.6416   -9.0482 Cl  0  0  0  0  0  0  0  0  0  0  0  0
   -1.9044    7.6841   -7.1842 C   0  0  0  0  0  0  0  0  0  0  0  0
   -0.8827    8.0308   -6.1978 C   0  0  0  0  0  0  0  0  0  0  0  0
   -0.4259    9.2887   -5.9082 C   0  0  0  0  0  0  0  0  0  0  0  0
   -0.9714   10.4983   -6.3937 C   0  0  0  0  0  0  0  0  0  0  0  0
   -1.4063   11.5318   -6.6360 N   0  0  0  0  0  0  0  0  0  0  0  0
    0.5578    9.5826   -4.9369 C   0  0  0  0  0  0  0  0  0  0  0  0
    1.3595    9.9068   -4.1819 N   0  0  0  0  0  0  0  0  0  0  0  0
    2.4692   -3.2342    4.3552 H   0  0  0  0  0  0  0  0  0  0  0  0
   -3.0483   -6.0557    5.1931 H   0  0  0  0  0  0  0  0  0  0  0  0
    0.9872   -6.7566    8.1748 H   0  0  0  0  0  0  0  0  0  0  0  0
   -1.8905   -7.5082    9.8626 H   0  0  0  0  0  0  0  0  0  0  0  0
   -0.7071   -9.7875    9.1572 H   0  0  0  0  0  0  0  0  0  0  0  0
   -2.8390  -10.3624   10.5817 H   0  0  0  0  0  0  0  0  0  0  0  0
   -4.9787  -10.0145    9.0458 H   0  0  0  0  0  0  0  0  0  0  0  0
   -4.1648   -9.2265    6.6755 H   0  0  0  0  0  0  0  0  0  0  0  0
   -1.4799   -9.3309    6.6244 H   0  0  0  0  0  0  0  0  0  0  0  0
   -2.1572  -10.8629    7.2212 H   0  0  0  0  0  0  0  0  0  0  0  0
   -3.9883   -7.1666    8.3551 H   0  0  0  0  0  0  0  0  0  0  0  0
   -0.6665   -3.4041    1.9505 H   0  0  0  0  0  0  0  0  0  0  0  0
   -0.0316    1.3385   -4.3495 H   0  0  0  0  0  0  0  0  0  0  0  0
   -5.3391    1.2923   -3.1950 H   0  0  0  0  0  0  0  0  0  0  0  0
   -4.9178    1.4497   -4.9104 H   0  0  0  0  0  0  0  0  0  0  0  0
   -4.4693   -0.9991   -5.0261 H   0  0  0  0  0  0  0  0  0  0  0  0
   -4.8782   -1.1620   -3.3153 H   0  0  0  0  0  0  0  0  0  0  0  0
   -6.1199   -0.6868   -4.4801 H   0  0  0  0  0  0  0  0  0  0  0  0
    7.5472    2.2620    1.8329 H   0  0  0  0  0  0  0  0  0  0  0  0
    7.2111    2.1243    3.5688 H   0  0  0  0  0  0  0  0  0  0  0  0
    7.0924   -0.3617    3.3405 H   0  0  0  0  0  0  0  0  0  0  0  0
    7.4322   -0.2204    1.6136 H   0  0  0  0  0  0  0  0  0  0  0  0
    8.6560    0.2543    2.7968 H   0  0  0  0  0  0  0  0  0  0  0  0
    2.3472    1.5834    3.1962 H   0  0  0  0  0  0  0  0  0  0  0  0
    2.5604    6.3481   -2.8439 H   0  0  0  0  0  0  0  0  0  0  0  0
    1.1644    7.4374   -4.4987 H   0  0  0  0  0  0  0  0  0  0  0  0
  1  2  2  0  0  0  0
  2  3  1  0  0  0  0
  3  4  2  0  0  0  0
  3  5  1  0  0  0  0
  5  6  2  0  0  0  0
  6  7  1  0  0  0  0
  7  8  2  0  0  0  0
  8  9  1  0  0  0  0
  9 10  2  0  0  0  0
 10 11  1  0  0  0  0
 11 12  2  0  0  0  0
 12 13  1  0  0  0  0
 13 14  3  0  0  0  0
 12 15  1  0  0  0  0
 15 16  3  0  0  0  0
  8 17  1  0  0  0  0
 17 18  1  0  0  0  0
 18 19  1  0  0  0  0
 19 20  2  0  0  0  0
 20 21  1  0  0  0  0
 21 22  1  0  0  0  0
 21 23  1  0  0  0  0
  1 24  1  0  0  0  0
 24 25  2  0  0  0  0
 25 26  1  0  0  0  0
 26 27  1  0  0  0  0
 27 28  1  0  0  0  0
 28 29  2  0  0  0  0
 29 30  1  0  0  0  0
 30 31  2  0  0  0  0
 31 32  1  0  0  0  0
 32 33  1  0  0  0  0
 32 34  2  0  0  0  0
 34 35  1  0  0  0  0
 35 36  1  0  0  0  0
 34 37  1  0  0  0  0
 29 38  1  0  0  0  0
 38 39  2  0  0  0  0
 39 40  1  0  0  0  0
 40 41  1  0  0  0  0
 41 42  1  0  0  0  0
 42 43  1  0  0  0  0
 43 44  1  0  0  0  0
 44 45  1  0  0  0  0
 43 46  2  0  0  0  0
 46 47  1  0  0  0  0
 46 48  1  0  0  0  0
 40 49  2  0  0  0  0
 49 50  1  0  0  0  0
 50 51  1  0  0  0  0
 39 52  1  0  0  0  0
 52 53  1  0  0  0  0
 53 54  1  0  0  0  0
 54 55  2  0  0  0  0
 55 56  1  0  0  0  0
 56 57  1  0  0  0  0
 55 58  1  0  0  0  0
 58 59  2  0  0  0  0
 59 60  1  0  0  0  0
 60 61  2  0  0  0  0
 60 62  1  0  0  0  0
 62 63  2  0  0  0  0
 63 64  1  0  0  0  0
 63 65  1  0  0  0  0
 65 66  1  0  0  0  0
 65 67  2  0  0  0  0
 67 68  1  0  0  0  0
 67 69  1  0  0  0  0
 69 70  1  0  0  0  0
 69 71  2  0  0  0  0
 71 72  1  0  0  0  0
 72 73  2  0  0  0  0
 73 74  1  0  0  0  0
 74 75  3  0  0  0  0
 73 76  1  0  0  0  0
 76 77  3  0  0  0  0
 11  2  1  0  0  0  0
 23 17  1  0  0  0  0
 51 24  1  0  0  0  0
 57 53  2  0  0  0  0
 72 59  1  0  0  0  0
 10  5  1  0  0  0  0
 22 18  1  0  0  0  0
 50 26  2  0  0  0  0
 71 62  1  0  0  0  0
 23  7  1  0  0  0  0
 49 28  1  0  0  0  0
 37 30  1  0  0  0  0
 57 38  1  0  0  0  0
 47 41  2  0  0  0  0
  1 78  1  0  0  0  0
  6 79  1  0  0  0  0
  9 80  1  0  0  0  0
 17 81  1  0  0  0  0
 18 82  1  0  0  0  0
 19 83  1  0  0  0  0
 20 84  1  0  0  0  0
 21 85  1  0  0  0  0
 22 86  1  0  0  0  0
 22 87  1  0  0  0  0
 23 88  1  0  0  0  0
 25 89  1  0  0  0  0
 31 90  1  0  0  0  0
 35 91  1  0  0  0  0
 35 92  1  0  0  0  0
 36 93  1  0  0  0  0
 36 94  1  0  0  0  0
 36 95  1  0  0  0  0
 44 96  1  0  0  0  0
 44 97  1  0  0  0  0
 45 98  1  0  0  0  0
 45 99  1  0  0  0  0
 45100  1  0  0  0  0
 47101  1  0  0  0  0
 54102  1  0  0  0  0
 58103  1  0  0  0  0
M  END
