
  xtb     02112200313D
 energy: -201.562936563784 gnorm: 0.000443522399 xtb: 6.4.1 (unknown)
113127  0     0  0            999 V2000
   -2.9851   -0.1629   -5.5722 C   0  0  0  0  0  0  0  0  0  0  0  0
   -2.7379   -1.4842   -5.8448 C   0  0  0  0  0  0  0  0  0  0  0  0
   -1.9827   -2.4177   -5.0046 C   0  0  0  0  0  0  0  0  0  0  0  0
   -1.4095   -2.1754   -3.9546 O   0  0  0  0  0  0  0  0  0  0  0  0
   -2.0440   -3.7254   -5.6760 C   0  0  0  0  0  0  0  0  0  0  0  0
   -1.4837   -4.9212   -5.2340 C   0  0  0  0  0  0  0  0  0  0  0  0
   -1.7120   -5.9875   -6.0699 C   0  0  0  0  0  0  0  0  0  0  0  0
   -2.4498   -5.8735   -7.2556 C   0  0  0  0  0  0  0  0  0  0  0  0
   -3.0076   -4.6990   -7.7026 C   0  0  0  0  0  0  0  0  0  0  0  0
   -2.7813   -3.5989   -6.8708 C   0  0  0  0  0  0  0  0  0  0  0  0
   -3.2085   -2.2073   -7.0107 C   0  0  0  0  0  0  0  0  0  0  0  0
   -3.9167   -1.7005   -8.0708 C   0  0  0  0  0  0  0  0  0  0  0  0
   -4.3346   -2.4548   -9.1874 C   0  0  0  0  0  0  0  0  0  0  0  0
   -4.7071   -2.9971  -10.1286 N   0  0  0  0  0  0  0  0  0  0  0  0
   -4.3312   -0.3612   -8.2238 C   0  0  0  0  0  0  0  0  0  0  0  0
   -4.7068    0.7060   -8.4276 N   0  0  0  0  0  0  0  0  0  0  0  0
   -2.2785   -7.3326   -7.5964 C   0  0  0  0  0  0  0  0  0  0  0  0
   -1.2439   -7.7004   -8.6883 C   0  0  0  0  0  0  0  0  0  0  0  0
   -0.2131   -6.5988   -8.6890 C   0  0  0  0  0  0  0  0  0  0  0  0
    0.4904   -6.7024   -7.5694 C   0  0  0  0  0  0  0  0  0  0  0  0
   -0.0515   -7.8762   -6.7916 C   0  0  0  0  0  0  0  0  0  0  0  0
   -0.4647   -8.7997   -7.9486 C   0  0  0  0  0  0  0  0  0  0  0  0
   -1.4518   -7.4581   -6.2778 C   0  0  0  0  0  0  0  0  0  0  0  0
   -2.6150    0.6341   -4.4819 C   0  0  0  0  0  0  0  0  0  0  0  0
   -3.0189    1.9722   -4.3429 C   0  0  0  0  0  0  0  0  0  0  0  0
   -3.9025    2.7211   -5.2864 C   0  0  0  0  0  0  0  0  0  0  0  0
   -5.3775    2.4170   -5.0101 C   0  0  0  0  0  0  0  0  0  0  0  0
   -2.5435    2.5252   -3.1601 C   0  0  0  0  0  0  0  0  0  0  0  0
   -2.7491    4.1070   -2.4291 S   0  0  0  0  0  0  0  0  0  0  0  0
   -1.7880    3.5775   -1.0943 C   0  0  0  0  0  0  0  0  0  0  0  0
   -1.3399    4.0569    0.1439 C   0  0  0  0  0  0  0  0  0  0  0  0
   -1.6337    5.2904    0.7819 C   0  0  0  0  0  0  0  0  0  0  0  0
   -1.1559    5.4858    2.0994 C   0  0  0  0  0  0  0  0  0  0  0  0
   -1.4467    6.5970    2.7846 N   0  0  0  0  0  0  0  0  0  0  0  0
   -2.1841    7.4952    2.1676 C   0  0  0  0  0  0  0  0  0  0  0  0
   -2.6409    7.3105    0.8574 C   0  0  0  0  0  0  0  0  0  0  0  0
   -2.3742    6.2211    0.1699 N   0  0  0  0  0  0  0  0  0  0  0  0
   -0.3316    4.4775    2.6642 C   0  0  0  0  0  0  0  0  0  0  0  0
    0.3274    4.4696    3.8997 C   0  0  0  0  0  0  0  0  0  0  0  0
    0.4714    5.4613    5.3062 S   0  0  0  0  0  0  0  0  0  0  0  0
    1.5837    4.2829    5.9805 C   0  0  0  0  0  0  0  0  0  0  0  0
    2.2726    4.2308    7.1813 C   0  0  0  0  0  0  0  0  0  0  0  0
    2.1235    5.2678    8.2453 C   0  0  0  0  0  0  0  0  0  0  0  0
    1.0737    4.8400    9.2751 C   0  0  0  0  0  0  0  0  0  0  0  0
    3.0570    3.0627    7.2755 C   0  0  0  0  0  0  0  0  0  0  0  0
    2.9150    2.0519    5.8326 S   0  0  0  0  0  0  0  0  0  0  0  0
    1.8184    3.1809    5.1344 C   0  0  0  0  0  0  0  0  0  0  0  0
    1.0902    3.2959    3.9495 C   0  0  0  0  0  0  0  0  0  0  0  0
    0.9041    2.5686    2.8035 N   0  0  0  0  0  0  0  0  0  0  0  0
    0.0273    3.2686    1.9964 C   0  0  0  0  0  0  0  0  0  0  0  0
   -0.5685    3.0130    0.7362 C   0  0  0  0  0  0  0  0  0  0  0  0
   -0.5763    1.9274   -0.1199 N   0  0  0  0  0  0  0  0  0  0  0  0
   -1.3245    2.2628   -1.2154 C   0  0  0  0  0  0  0  0  0  0  0  0
   -1.7604    1.6467   -2.3930 C   0  0  0  0  0  0  0  0  0  0  0  0
   -1.6202    0.0944   -3.1291 S   0  0  0  0  0  0  0  0  0  0  0  0
   -0.2291    0.5422    0.1037 C   0  0  0  0  0  0  0  0  0  0  0  0
   -1.1107   -0.0854    1.1808 C   0  0  0  0  0  0  0  0  0  0  0  0
    1.8116    1.4852    2.4969 C   0  0  0  0  0  0  0  0  0  0  0  0
    2.8133    1.8878    1.4172 C   0  0  0  0  0  0  0  0  0  0  0  0
    3.8391    2.7621    8.3882 C   0  0  0  0  0  0  0  0  0  0  0  0
    4.6527    1.6819    8.6592 C   0  0  0  0  0  0  0  0  0  0  0  0
    4.9036    0.5484    7.7735 C   0  0  0  0  0  0  0  0  0  0  0  0
    4.4475    0.3419    6.6619 O   0  0  0  0  0  0  0  0  0  0  0  0
    5.8498   -0.3289    8.4941 C   0  0  0  0  0  0  0  0  0  0  0  0
    6.3988   -1.5242    8.0827 C   0  0  0  0  0  0  0  0  0  0  0  0
    7.2780   -2.1715    8.9415 C   0  0  0  0  0  0  0  0  0  0  0  0
    8.0520   -3.8120    8.4069 Br  0  0  0  0  0  0  0  0  0  0  0  0
    7.5871   -1.6152   10.1827 C   0  0  0  0  0  0  0  0  0  0  0  0
    8.7872   -2.5013   11.3462 Br  0  0  0  0  0  0  0  0  0  0  0  0
    7.0298   -0.4086   10.5939 C   0  0  0  0  0  0  0  0  0  0  0  0
    6.1531    0.2413    9.7422 C   0  0  0  0  0  0  0  0  0  0  0  0
    5.4139    1.4984    9.8757 C   0  0  0  0  0  0  0  0  0  0  0  0
    5.4596    2.3204   10.9740 C   0  0  0  0  0  0  0  0  0  0  0  0
    4.7457    3.5259   11.1338 C   0  0  0  0  0  0  0  0  0  0  0  0
    4.1998    4.5149   11.3449 N   0  0  0  0  0  0  0  0  0  0  0  0
    6.2421    2.0633   12.1192 C   0  0  0  0  0  0  0  0  0  0  0  0
    6.8558    1.9124   13.0775 N   0  0  0  0  0  0  0  0  0  0  0  0
   -3.5803    0.3678   -6.3023 H   0  0  0  0  0  0  0  0  0  0  0  0
   -0.9278   -4.9647   -4.3104 H   0  0  0  0  0  0  0  0  0  0  0  0
   -3.5731   -4.6317   -8.6167 H   0  0  0  0  0  0  0  0  0  0  0  0
   -3.1953   -7.9127   -7.6801 H   0  0  0  0  0  0  0  0  0  0  0  0
   -1.6761   -7.9541   -9.6523 H   0  0  0  0  0  0  0  0  0  0  0  0
   -0.1421   -5.8463   -9.4523 H   0  0  0  0  0  0  0  0  0  0  0  0
    1.2671   -6.0529   -7.2101 H   0  0  0  0  0  0  0  0  0  0  0  0
    0.6035   -8.2905   -6.0296 H   0  0  0  0  0  0  0  0  0  0  0  0
    0.3870   -9.1680   -8.5183 H   0  0  0  0  0  0  0  0  0  0  0  0
   -1.0871   -9.6365   -7.6348 H   0  0  0  0  0  0  0  0  0  0  0  0
   -1.8250   -8.1247   -5.5027 H   0  0  0  0  0  0  0  0  0  0  0  0
   -3.7266    3.7888   -5.1413 H   0  0  0  0  0  0  0  0  0  0  0  0
   -3.6696    2.4738   -6.3232 H   0  0  0  0  0  0  0  0  0  0  0  0
   -5.5863    1.3591   -5.1509 H   0  0  0  0  0  0  0  0  0  0  0  0
   -6.0039    2.9848   -5.6920 H   0  0  0  0  0  0  0  0  0  0  0  0
   -5.6348    2.6894   -3.9891 H   0  0  0  0  0  0  0  0  0  0  0  0
   -2.4182    8.3893    2.7284 H   0  0  0  0  0  0  0  0  0  0  0  0
   -3.2379    8.0591    0.3553 H   0  0  0  0  0  0  0  0  0  0  0  0
    1.7996    6.1968    7.7723 H   0  0  0  0  0  0  0  0  0  0  0  0
    3.0720    5.4533    8.7511 H   0  0  0  0  0  0  0  0  0  0  0  0
    1.3675    3.9143    9.7642 H   0  0  0  0  0  0  0  0  0  0  0  0
    0.9686    5.6102   10.0335 H   0  0  0  0  0  0  0  0  0  0  0  0
    0.1109    4.6889    8.7927 H   0  0  0  0  0  0  0  0  0  0  0  0
    0.8299    0.4468    0.3410 H   0  0  0  0  0  0  0  0  0  0  0  0
   -0.3959    0.0226   -0.8429 H   0  0  0  0  0  0  0  0  0  0  0  0
   -2.1506   -0.0667    0.8636 H   0  0  0  0  0  0  0  0  0  0  0  0
   -1.0331    0.4556    2.1214 H   0  0  0  0  0  0  0  0  0  0  0  0
   -0.8186   -1.1194    1.3418 H   0  0  0  0  0  0  0  0  0  0  0  0
    1.2585    0.5883    2.2203 H   0  0  0  0  0  0  0  0  0  0  0  0
    2.3501    1.2593    3.4204 H   0  0  0  0  0  0  0  0  0  0  0  0
    3.4675    1.0510    1.1888 H   0  0  0  0  0  0  0  0  0  0  0  0
    2.3081    2.2009    0.5060 H   0  0  0  0  0  0  0  0  0  0  0  0
    3.4235    2.7167    1.7681 H   0  0  0  0  0  0  0  0  0  0  0  0
    3.7876    3.5142    9.1634 H   0  0  0  0  0  0  0  0  0  0  0  0
    6.1518   -1.9430    7.1196 H   0  0  0  0  0  0  0  0  0  0  0  0
    7.2936   -0.0124   11.5609 H   0  0  0  0  0  0  0  0  0  0  0  0
  1  2  2  0  0  0  0
  2  3  1  0  0  0  0
  3  4  2  0  0  0  0
  3  5  1  0  0  0  0
  5  6  2  0  0  0  0
  6  7  1  0  0  0  0
  7  8  2  0  0  0  0
  8  9  1  0  0  0  0
  9 10  2  0  0  0  0
 10 11  1  0  0  0  0
 11 12  2  0  0  0  0
 12 13  1  0  0  0  0
 13 14  3  0  0  0  0
 12 15  1  0  0  0  0
 15 16  3  0  0  0  0
  8 17  1  0  0  0  0
 17 18  1  0  0  0  0
 18 19  1  0  0  0  0
 19 20  2  0  0  0  0
 20 21  1  0  0  0  0
 21 22  1  0  0  0  0
 21 23  1  0  0  0  0
  1 24  1  0  0  0  0
 24 25  2  0  0  0  0
 25 26  1  0  0  0  0
 26 27  1  0  0  0  0
 25 28  1  0  0  0  0
 28 29  1  0  0  0  0
 29 30  1  0  0  0  0
 30 31  1  0  0  0  0
 31 32  2  0  0  0  0
 32 33  1  0  0  0  0
 33 34  1  0  0  0  0
 34 35  2  0  0  0  0
 35 36  1  0  0  0  0
 36 37  2  0  0  0  0
 33 38  2  0  0  0  0
 38 39  1  0  0  0  0
 39 40  1  0  0  0  0
 40 41  1  0  0  0  0
 41 42  1  0  0  0  0
 42 43  1  0  0  0  0
 43 44  1  0  0  0  0
 42 45  2  0  0  0  0
 45 46  1  0  0  0  0
 46 47  1  0  0  0  0
 47 48  1  0  0  0  0
 48 49  1  0  0  0  0
 49 50  1  0  0  0  0
 50 51  2  0  0  0  0
 51 52  1  0  0  0  0
 52 53  1  0  0  0  0
 53 54  1  0  0  0  0
 54 55  1  0  0  0  0
 52 56  1  0  0  0  0
 56 57  1  0  0  0  0
 49 58  1  0  0  0  0
 58 59  1  0  0  0  0
 45 60  1  0  0  0  0
 60 61  2  0  0  0  0
 61 62  1  0  0  0  0
 62 63  2  0  0  0  0
 62 64  1  0  0  0  0
 64 65  2  0  0  0  0
 65 66  1  0  0  0  0
 66 67  1  0  0  0  0
 66 68  2  0  0  0  0
 68 69  1  0  0  0  0
 68 70  1  0  0  0  0
 70 71  2  0  0  0  0
 71 72  1  0  0  0  0
 72 73  2  0  0  0  0
 73 74  1  0  0  0  0
 74 75  3  0  0  0  0
 73 76  1  0  0  0  0
 76 77  3  0  0  0  0
 11  2  1  0  0  0  0
 23 17  1  0  0  0  0
 55 24  1  0  0  0  0
 72 61  1  0  0  0  0
 10  5  1  0  0  0  0
 22 18  1  0  0  0  0
 54 28  2  0  0  0  0
 71 64  1  0  0  0  0
 23  7  1  0  0  0  0
 53 30  2  0  0  0  0
 51 31  1  0  0  0  0
 37 32  1  0  0  0  0
 50 38  1  0  0  0  0
 48 39  2  0  0  0  0
 47 41  2  0  0  0  0
  1 78  1  0  0  0  0
  6 79  1  0  0  0  0
  9 80  1  0  0  0  0
 17 81  1  0  0  0  0
 18 82  1  0  0  0  0
 19 83  1  0  0  0  0
 20 84  1  0  0  0  0
 21 85  1  0  0  0  0
 22 86  1  0  0  0  0
 22 87  1  0  0  0  0
 23 88  1  0  0  0  0
 26 89  1  0  0  0  0
 26 90  1  0  0  0  0
 27 91  1  0  0  0  0
 27 92  1  0  0  0  0
 27 93  1  0  0  0  0
 35 94  1  0  0  0  0
 36 95  1  0  0  0  0
 43 96  1  0  0  0  0
 43 97  1  0  0  0  0
 44 98  1  0  0  0  0
 44 99  1  0  0  0  0
 44100  1  0  0  0  0
 56101  1  0  0  0  0
 56102  1  0  0  0  0
 57103  1  0  0  0  0
 57104  1  0  0  0  0
 57105  1  0  0  0  0
 58106  1  0  0  0  0
 58107  1  0  0  0  0
 59108  1  0  0  0  0
 59109  1  0  0  0  0
 59110  1  0  0  0  0
 60111  1  0  0  0  0
 65112  1  0  0  0  0
 70113  1  0  0  0  0
M  END
