
  xtb     02022221203D
 energy: -261.259958039737 gnorm: 0.000209839400 xtb: 6.4.1 (unknown)
164184  0     0  0            999 V2000
    8.4052   -2.4060   -2.7243 C   0  0  0  0  0  0  0  0  0  0  0  0
    8.6892   -3.6722   -3.1613 C   0  0  0  0  0  0  0  0  0  0  0  0
    7.7041   -4.6891   -3.5457 C   0  0  0  0  0  0  0  0  0  0  0  0
    6.4996   -4.5428   -3.6676 O   0  0  0  0  0  0  0  0  0  0  0  0
    8.4554   -5.9347   -3.7627 C   0  0  0  0  0  0  0  0  0  0  0  0
    7.9316   -7.1860   -4.0783 C   0  0  0  0  0  0  0  0  0  0  0  0
    8.8780   -8.1760   -4.1873 C   0  0  0  0  0  0  0  0  0  0  0  0
   10.2464   -7.9372   -4.0020 C   0  0  0  0  0  0  0  0  0  0  0  0
   10.7767   -6.7052   -3.6999 C   0  0  0  0  0  0  0  0  0  0  0  0
    9.8306   -5.6838   -3.5790 C   0  0  0  0  0  0  0  0  0  0  0  0
   10.0082   -4.2696   -3.2522 C   0  0  0  0  0  0  0  0  0  0  0  0
   11.2148   -3.6391   -3.0908 C   0  0  0  0  0  0  0  0  0  0  0  0
   11.3971   -2.2692   -2.8078 C   0  0  0  0  0  0  0  0  0  0  0  0
   11.6381   -1.1684   -2.5834 N   0  0  0  0  0  0  0  0  0  0  0  0
   12.4699   -4.2724   -3.2089 C   0  0  0  0  0  0  0  0  0  0  0  0
   13.5265   -4.7150   -3.2882 N   0  0  0  0  0  0  0  0  0  0  0  0
   10.6122   -9.3806   -4.2398 C   0  0  0  0  0  0  0  0  0  0  0  0
   10.9472  -10.2520   -3.0038 C   0  0  0  0  0  0  0  0  0  0  0  0
   10.2096   -9.6443   -1.8366 C   0  0  0  0  0  0  0  0  0  0  0  0
    8.9148   -9.8707   -2.0134 C   0  0  0  0  0  0  0  0  0  0  0  0
    8.7535  -10.6360   -3.3036 C   0  0  0  0  0  0  0  0  0  0  0  0
   10.0477  -11.4650   -3.2903 C   0  0  0  0  0  0  0  0  0  0  0  0
    9.0879   -9.6467   -4.4477 C   0  0  0  0  0  0  0  0  0  0  0  0
    7.1714   -1.7668   -2.5206 C   0  0  0  0  0  0  0  0  0  0  0  0
    7.1003   -0.4962   -1.9462 C   0  0  0  0  0  0  0  0  0  0  0  0
    5.7984   -0.0729   -1.7671 C   0  0  0  0  0  0  0  0  0  0  0  0
    5.0810    1.3524   -1.0635 S   0  0  0  0  0  0  0  0  0  0  0  0
    3.5156    0.6799   -1.3696 C   0  0  0  0  0  0  0  0  0  0  0  0
    2.1737    1.0705   -1.0725 C   0  0  0  0  0  0  0  0  0  0  0  0
    1.6748    2.1904   -0.4121 C   0  0  0  0  0  0  0  0  0  0  0  0
    0.3201    2.2308   -0.1804 C   0  0  0  0  0  0  0  0  0  0  0  0
   -0.4765    3.2903    0.5607 C   0  0  0  0  0  0  0  0  0  0  0  0
   -0.3446    4.6075   -0.1829 C   0  0  0  0  0  0  0  0  0  0  0  0
    0.7456    5.4313    0.0680 C   0  0  0  0  0  0  0  0  0  0  0  0
    0.8879    6.6199   -0.6233 C   0  0  0  0  0  0  0  0  0  0  0  0
   -0.0513    6.9952   -1.5674 C   0  0  0  0  0  0  0  0  0  0  0  0
   -1.1437    6.1813   -1.8331 C   0  0  0  0  0  0  0  0  0  0  0  0
   -2.1455    6.5573   -2.8866 C   0  0  0  0  0  0  0  0  0  0  0  0
   -1.7331    5.9835   -4.2436 C   0  0  0  0  0  0  0  0  0  0  0  0
   -1.2739    4.9858   -1.1391 C   0  0  0  0  0  0  0  0  0  0  0  0
   -0.1124    3.4449    2.0268 C   0  0  0  0  0  0  0  0  0  0  0  0
    0.6353    2.4955    2.7074 C   0  0  0  0  0  0  0  0  0  0  0  0
    0.8867    2.6584    4.0590 C   0  0  0  0  0  0  0  0  0  0  0  0
    0.3860    3.7536    4.7390 C   0  0  0  0  0  0  0  0  0  0  0  0
   -0.3798    4.7029    4.0748 C   0  0  0  0  0  0  0  0  0  0  0  0
   -0.9072    5.9170    4.7823 C   0  0  0  0  0  0  0  0  0  0  0  0
    0.0217    7.1111    4.5548 C   0  0  0  0  0  0  0  0  0  0  0  0
   -0.6187    4.5363    2.7191 C   0  0  0  0  0  0  0  0  0  0  0  0
   -1.8573    2.6946    0.5065 C   0  0  0  0  0  0  0  0  0  0  0  0
   -1.8456    1.4948   -0.1858 C   0  0  0  0  0  0  0  0  0  0  0  0
   -0.5231    1.1883   -0.6338 C   0  0  0  0  0  0  0  0  0  0  0  0
   -0.0288    0.0874   -1.3283 C   0  0  0  0  0  0  0  0  0  0  0  0
    1.3306    0.0289   -1.5277 C   0  0  0  0  0  0  0  0  0  0  0  0
    2.1388   -1.0701   -2.1984 C   0  0  0  0  0  0  0  0  0  0  0  0
    1.7234   -1.1220   -3.6596 C   0  0  0  0  0  0  0  0  0  0  0  0
    0.5943   -1.8431   -4.0283 C   0  0  0  0  0  0  0  0  0  0  0  0
    0.1833   -1.8591   -5.3480 C   0  0  0  0  0  0  0  0  0  0  0  0
    0.8894   -1.1571   -6.3087 C   0  0  0  0  0  0  0  0  0  0  0  0
    2.0175   -0.4296   -5.9569 C   0  0  0  0  0  0  0  0  0  0  0  0
    2.7682    0.3739   -6.9797 C   0  0  0  0  0  0  0  0  0  0  0  0
    2.2359    1.8075   -7.0273 C   0  0  0  0  0  0  0  0  0  0  0  0
    2.4190   -0.4149   -4.6278 C   0  0  0  0  0  0  0  0  0  0  0  0
    2.0190   -2.4280   -1.5303 C   0  0  0  0  0  0  0  0  0  0  0  0
    1.5602   -2.5530   -0.2271 C   0  0  0  0  0  0  0  0  0  0  0  0
    1.4845   -3.8037    0.3609 C   0  0  0  0  0  0  0  0  0  0  0  0
    1.8648   -4.9302   -0.3435 C   0  0  0  0  0  0  0  0  0  0  0  0
    2.3422   -4.8203   -1.6440 C   0  0  0  0  0  0  0  0  0  0  0  0
    2.7812   -6.0419   -2.3977 C   0  0  0  0  0  0  0  0  0  0  0  0
    4.2435   -6.3717   -2.0948 C   0  0  0  0  0  0  0  0  0  0  0  0
    2.4280   -3.5619   -2.2206 C   0  0  0  0  0  0  0  0  0  0  0  0
    3.5381   -0.5550   -1.9964 C   0  0  0  0  0  0  0  0  0  0  0  0
    4.8386   -1.0032   -2.2206 C   0  0  0  0  0  0  0  0  0  0  0  0
    5.5724   -2.4198   -2.8674 S   0  0  0  0  0  0  0  0  0  0  0  0
   -3.3744    0.6862   -0.2333 S   0  0  0  0  0  0  0  0  0  0  0  0
   -4.0581    1.9661    0.7303 C   0  0  0  0  0  0  0  0  0  0  0  0
   -5.3150    2.1740    1.2789 C   0  0  0  0  0  0  0  0  0  0  0  0
   -5.3675    3.3393    2.0268 C   0  0  0  0  0  0  0  0  0  0  0  0
   -3.8181    4.1985    2.0075 S   0  0  0  0  0  0  0  0  0  0  0  0
   -3.1145    2.9690    1.0383 C   0  0  0  0  0  0  0  0  0  0  0  0
   -6.3856    3.9396    2.7920 C   0  0  0  0  0  0  0  0  0  0  0  0
   -7.6273    3.4970    3.1575 C   0  0  0  0  0  0  0  0  0  0  0  0
   -8.2488    2.1740    2.9200 C   0  0  0  0  0  0  0  0  0  0  0  0
   -7.8862    1.2823    2.1789 O   0  0  0  0  0  0  0  0  0  0  0  0
   -9.4397    2.1271    3.7882 C   0  0  0  0  0  0  0  0  0  0  0  0
  -10.2954    1.0412    3.9637 C   0  0  0  0  0  0  0  0  0  0  0  0
  -11.3122    1.2705    4.8584 C   0  0  0  0  0  0  0  0  0  0  0  0
  -11.4683    2.4913    5.5293 C   0  0  0  0  0  0  0  0  0  0  0  0
  -10.6386    3.5732    5.3564 C   0  0  0  0  0  0  0  0  0  0  0  0
   -9.5958    3.3608    4.4484 C   0  0  0  0  0  0  0  0  0  0  0  0
   -8.5288    4.2561    4.0108 C   0  0  0  0  0  0  0  0  0  0  0  0
   -8.4481    5.5911    4.3116 C   0  0  0  0  0  0  0  0  0  0  0  0
   -7.4813    6.4954    3.8218 C   0  0  0  0  0  0  0  0  0  0  0  0
   -6.7529    7.3078    3.4621 N   0  0  0  0  0  0  0  0  0  0  0  0
   -9.3643    6.2790    5.1351 C   0  0  0  0  0  0  0  0  0  0  0  0
  -10.0629    6.9055    5.7968 N   0  0  0  0  0  0  0  0  0  0  0  0
  -12.6795    2.0104    6.2890 C   0  0  0  0  0  0  0  0  0  0  0  0
  -12.4553    1.6166    7.7646 C   0  0  0  0  0  0  0  0  0  0  0  0
  -13.6534    0.7561    8.0951 C   0  0  0  0  0  0  0  0  0  0  0  0
  -13.5091   -0.3986    7.4576 C   0  0  0  0  0  0  0  0  0  0  0  0
  -12.2108   -0.3382    6.6858 C   0  0  0  0  0  0  0  0  0  0  0  0
  -11.3786    0.5310    7.6374 C   0  0  0  0  0  0  0  0  0  0  0  0
  -12.5077    0.6508    5.5385 C   0  0  0  0  0  0  0  0  0  0  0  0
    9.2484   -1.7870   -2.4418 H   0  0  0  0  0  0  0  0  0  0  0  0
    6.8700   -7.3236   -4.2117 H   0  0  0  0  0  0  0  0  0  0  0  0
   11.8319   -6.5412   -3.5597 H   0  0  0  0  0  0  0  0  0  0  0  0
   11.2826   -9.5715   -5.0753 H   0  0  0  0  0  0  0  0  0  0  0  0
   12.0077  -10.4377   -2.8571 H   0  0  0  0  0  0  0  0  0  0  0  0
   10.6854   -9.0805   -1.0556 H   0  0  0  0  0  0  0  0  0  0  0  0
    8.0925   -9.5328   -1.4101 H   0  0  0  0  0  0  0  0  0  0  0  0
    7.8167  -11.1726   -3.4298 H   0  0  0  0  0  0  0  0  0  0  0  0
   10.0673  -12.2024   -2.4892 H   0  0  0  0  0  0  0  0  0  0  0  0
   10.2627  -11.9495   -4.2418 H   0  0  0  0  0  0  0  0  0  0  0  0
    8.7623  -10.0112   -5.4201 H   0  0  0  0  0  0  0  0  0  0  0  0
    7.9741    0.0646   -1.6671 H   0  0  0  0  0  0  0  0  0  0  0  0
    2.3372    2.9720   -0.0739 H   0  0  0  0  0  0  0  0  0  0  0  0
    1.4718    5.1507    0.8166 H   0  0  0  0  0  0  0  0  0  0  0  0
    1.7348    7.2590   -0.4209 H   0  0  0  0  0  0  0  0  0  0  0  0
    0.0617    7.9287   -2.0995 H   0  0  0  0  0  0  0  0  0  0  0  0
   -2.2140    7.6442   -2.9609 H   0  0  0  0  0  0  0  0  0  0  0  0
   -3.1303    6.1708   -2.6162 H   0  0  0  0  0  0  0  0  0  0  0  0
   -0.7585    6.3678   -4.5363 H   0  0  0  0  0  0  0  0  0  0  0  0
   -1.6707    4.8985   -4.1933 H   0  0  0  0  0  0  0  0  0  0  0  0
   -2.4577    6.2554   -5.0075 H   0  0  0  0  0  0  0  0  0  0  0  0
   -2.1212    4.3478   -1.3480 H   0  0  0  0  0  0  0  0  0  0  0  0
    1.0227    1.6320    2.1872 H   0  0  0  0  0  0  0  0  0  0  0  0
    1.4758    1.9207    4.5841 H   0  0  0  0  0  0  0  0  0  0  0  0
    0.5856    3.8700    5.7946 H   0  0  0  0  0  0  0  0  0  0  0  0
   -0.9870    5.7189    5.8528 H   0  0  0  0  0  0  0  0  0  0  0  0
   -1.9018    6.1595    4.4023 H   0  0  0  0  0  0  0  0  0  0  0  0
    0.1048    7.3276    3.4920 H   0  0  0  0  0  0  0  0  0  0  0  0
   -0.3637    7.9933    5.0600 H   0  0  0  0  0  0  0  0  0  0  0  0
    1.0162    6.8961    4.9402 H   0  0  0  0  0  0  0  0  0  0  0  0
   -1.2073    5.2738    2.1916 H   0  0  0  0  0  0  0  0  0  0  0  0
   -0.6910   -0.6959   -1.6623 H   0  0  0  0  0  0  0  0  0  0  0  0
    0.0475   -2.4053   -3.2859 H   0  0  0  0  0  0  0  0  0  0  0  0
   -0.6932   -2.4247   -5.6287 H   0  0  0  0  0  0  0  0  0  0  0  0
    0.5649   -1.1764   -7.3392 H   0  0  0  0  0  0  0  0  0  0  0  0
    2.6585   -0.0841   -7.9646 H   0  0  0  0  0  0  0  0  0  0  0  0
    3.8307    0.3928   -6.7283 H   0  0  0  0  0  0  0  0  0  0  0  0
    1.1801    1.8101   -7.2889 H   0  0  0  0  0  0  0  0  0  0  0  0
    2.3477    2.2858   -6.0566 H   0  0  0  0  0  0  0  0  0  0  0  0
    2.7789    2.3908   -7.7672 H   0  0  0  0  0  0  0  0  0  0  0  0
    3.2946    0.1561   -4.3536 H   0  0  0  0  0  0  0  0  0  0  0  0
    1.2556   -1.6786    0.3289 H   0  0  0  0  0  0  0  0  0  0  0  0
    1.1195   -3.8965    1.3735 H   0  0  0  0  0  0  0  0  0  0  0  0
    1.7898   -5.9050    0.1171 H   0  0  0  0  0  0  0  0  0  0  0  0
    2.6676   -5.8753   -3.4703 H   0  0  0  0  0  0  0  0  0  0  0  0
    2.1532   -6.8896   -2.1125 H   0  0  0  0  0  0  0  0  0  0  0  0
    4.8905   -5.5798   -2.4628 H   0  0  0  0  0  0  0  0  0  0  0  0
    4.5261   -7.3048   -2.5777 H   0  0  0  0  0  0  0  0  0  0  0  0
    4.3957   -6.4772   -1.0225 H   0  0  0  0  0  0  0  0  0  0  0  0
    2.8060   -3.4658   -3.2283 H   0  0  0  0  0  0  0  0  0  0  0  0
   -6.1557    1.5153    1.1641 H   0  0  0  0  0  0  0  0  0  0  0  0
   -6.0915    4.9043    3.1900 H   0  0  0  0  0  0  0  0  0  0  0  0
  -10.1367    0.1194    3.4262 H   0  0  0  0  0  0  0  0  0  0  0  0
  -10.7736    4.5046    5.8800 H   0  0  0  0  0  0  0  0  0  0  0  0
  -13.5940    2.5798    6.1350 H   0  0  0  0  0  0  0  0  0  0  0  0
  -12.2515    2.4495    8.4319 H   0  0  0  0  0  0  0  0  0  0  0  0
  -14.4820    1.0861    8.6937 H   0  0  0  0  0  0  0  0  0  0  0  0
  -14.1932   -1.2260    7.4173 H   0  0  0  0  0  0  0  0  0  0  0  0
  -11.7841   -1.2868    6.3708 H   0  0  0  0  0  0  0  0  0  0  0  0
  -10.4408    0.8831    7.2116 H   0  0  0  0  0  0  0  0  0  0  0  0
  -11.1833    0.0324    8.5854 H   0  0  0  0  0  0  0  0  0  0  0  0
  -13.3074    0.3139    4.8816 H   0  0  0  0  0  0  0  0  0  0  0  0
  1  2  2  0  0  0  0
  2  3  1  0  0  0  0
  3  4  2  0  0  0  0
  3  5  1  0  0  0  0
  5  6  2  0  0  0  0
  6  7  1  0  0  0  0
  7  8  2  0  0  0  0
  8  9  1  0  0  0  0
  9 10  2  0  0  0  0
 10 11  1  0  0  0  0
 11 12  2  0  0  0  0
 12 13  1  0  0  0  0
 13 14  3  0  0  0  0
 12 15  1  0  0  0  0
 15 16  3  0  0  0  0
  8 17  1  0  0  0  0
 17 18  1  0  0  0  0
 18 19  1  0  0  0  0
 19 20  2  0  0  0  0
 20 21  1  0  0  0  0
 21 22  1  0  0  0  0
 21 23  1  0  0  0  0
  1 24  1  0  0  0  0
 24 25  2  0  0  0  0
 25 26  1  0  0  0  0
 26 27  1  0  0  0  0
 27 28  1  0  0  0  0
 28 29  1  0  0  0  0
 29 30  2  0  0  0  0
 30 31  1  0  0  0  0
 31 32  1  0  0  0  0
 32 33  1  0  0  0  0
 33 34  2  0  0  0  0
 34 35  1  0  0  0  0
 35 36  2  0  0  0  0
 36 37  1  0  0  0  0
 37 38  1  0  0  0  0
 38 39  1  0  0  0  0
 37 40  2  0  0  0  0
 32 41  1  0  0  0  0
 41 42  2  0  0  0  0
 42 43  1  0  0  0  0
 43 44  2  0  0  0  0
 44 45  1  0  0  0  0
 45 46  1  0  0  0  0
 46 47  1  0  0  0  0
 45 48  2  0  0  0  0
 32 49  1  0  0  0  0
 49 50  2  0  0  0  0
 50 51  1  0  0  0  0
 51 52  1  0  0  0  0
 52 53  2  0  0  0  0
 53 54  1  0  0  0  0
 54 55  1  0  0  0  0
 55 56  2  0  0  0  0
 56 57  1  0  0  0  0
 57 58  2  0  0  0  0
 58 59  1  0  0  0  0
 59 60  1  0  0  0  0
 60 61  1  0  0  0  0
 59 62  2  0  0  0  0
 54 63  1  0  0  0  0
 63 64  2  0  0  0  0
 64 65  1  0  0  0  0
 65 66  2  0  0  0  0
 66 67  1  0  0  0  0
 67 68  1  0  0  0  0
 68 69  1  0  0  0  0
 67 70  2  0  0  0  0
 54 71  1  0  0  0  0
 71 72  1  0  0  0  0
 72 73  1  0  0  0  0
 50 74  1  0  0  0  0
 74 75  1  0  0  0  0
 75 76  1  0  0  0  0
 76 77  2  0  0  0  0
 77 78  1  0  0  0  0
 78 79  1  0  0  0  0
 77 80  1  0  0  0  0
 80 81  2  0  0  0  0
 81 82  1  0  0  0  0
 82 83  2  0  0  0  0
 82 84  1  0  0  0  0
 84 85  2  0  0  0  0
 85 86  1  0  0  0  0
 86 87  2  0  0  0  0
 87 88  1  0  0  0  0
 88 89  2  0  0  0  0
 89 90  1  0  0  0  0
 90 91  2  0  0  0  0
 91 92  1  0  0  0  0
 92 93  3  0  0  0  0
 91 94  1  0  0  0  0
 94 95  3  0  0  0  0
 87 96  1  0  0  0  0
 96 97  1  0  0  0  0
 97 98  1  0  0  0  0
 98 99  2  0  0  0  0
 99100  1  0  0  0  0
100101  1  0  0  0  0
100102  1  0  0  0  0
 11  2  1  0  0  0  0
 23 17  1  0  0  0  0
 73 24  1  0  0  0  0
 79 75  2  0  0  0  0
 90 81  1  0  0  0  0
102 96  1  0  0  0  0
 10  5  1  0  0  0  0
 22 18  1  0  0  0  0
 72 26  2  0  0  0  0
 89 84  1  0  0  0  0
101 97  1  0  0  0  0
 23  7  1  0  0  0  0
 71 28  2  0  0  0  0
102 86  1  0  0  0  0
 53 29  1  0  0  0  0
 62 55  1  0  0  0  0
 70 63  1  0  0  0  0
 51 31  2  0  0  0  0
 40 33  1  0  0  0  0
 48 41  1  0  0  0  0
 79 49  1  0  0  0  0
  1103  1  0  0  0  0
  6104  1  0  0  0  0
  9105  1  0  0  0  0
 17106  1  0  0  0  0
 18107  1  0  0  0  0
 19108  1  0  0  0  0
 20109  1  0  0  0  0
 21110  1  0  0  0  0
 22111  1  0  0  0  0
 22112  1  0  0  0  0
 23113  1  0  0  0  0
 25114  1  0  0  0  0
 30115  1  0  0  0  0
 34116  1  0  0  0  0
 35117  1  0  0  0  0
 36118  1  0  0  0  0
 38119  1  0  0  0  0
 38120  1  0  0  0  0
 39121  1  0  0  0  0
 39122  1  0  0  0  0
 39123  1  0  0  0  0
 40124  1  0  0  0  0
 42125  1  0  0  0  0
 43126  1  0  0  0  0
 44127  1  0  0  0  0
 46128  1  0  0  0  0
 46129  1  0  0  0  0
 47130  1  0  0  0  0
 47131  1  0  0  0  0
 47132  1  0  0  0  0
 48133  1  0  0  0  0
 52134  1  0  0  0  0
 56135  1  0  0  0  0
 57136  1  0  0  0  0
 58137  1  0  0  0  0
 60138  1  0  0  0  0
 60139  1  0  0  0  0
 61140  1  0  0  0  0
 61141  1  0  0  0  0
 61142  1  0  0  0  0
 62143  1  0  0  0  0
 64144  1  0  0  0  0
 65145  1  0  0  0  0
 66146  1  0  0  0  0
 68147  1  0  0  0  0
 68148  1  0  0  0  0
 69149  1  0  0  0  0
 69150  1  0  0  0  0
 69151  1  0  0  0  0
 70152  1  0  0  0  0
 76153  1  0  0  0  0
 80154  1  0  0  0  0
 85155  1  0  0  0  0
 88156  1  0  0  0  0
 96157  1  0  0  0  0
 97158  1  0  0  0  0
 98159  1  0  0  0  0
 99160  1  0  0  0  0
100161  1  0  0  0  0
101162  1  0  0  0  0
101163  1  0  0  0  0
102164  1  0  0  0  0
M  END
