171

C          5.95020       -2.96730       -2.71050
C          6.15690       -2.83580       -4.05680
C          5.18320       -2.33590       -5.03780
O          3.99140       -2.14550       -4.87150
C          5.93640       -2.09890       -6.28010
C          5.45160       -1.53640       -7.45910
C          6.40280       -1.38750       -8.43910
C          7.73870       -1.77260       -8.26170
C          8.22750       -2.33840       -7.10790
C          7.27530       -2.49990       -6.09660
C          7.41970       -3.03630       -4.74460
C          8.53900       -3.65270       -4.24990
C          9.73250       -3.84150       -4.97820
N         10.73270       -4.03060       -5.50910
C          8.65890       -4.22020       -2.96360
N          8.83510       -4.71130       -1.94020
C          8.13530       -1.32440       -9.64640
C          8.31770       -2.43290      -10.70440
C          8.22240       -1.69510      -12.02050
C          6.95720       -1.33270      -12.18930
C          6.17570       -1.81950      -10.99020
C          6.94240       -3.11230      -10.68260
C          6.64490       -0.89750       -9.84480
C          4.81090       -2.68570       -1.93680
C          4.85350       -2.68840       -0.54190
C          3.65680       -2.28510        0.01910
S          3.13290       -1.97710        1.65480
C          1.60670       -1.44260        1.03550
C          0.43800       -0.84420        1.59990
C          0.12630       -0.52060        2.91720
C         -1.06970        0.11920        3.13850
C         -1.64920        0.57940        4.46480
C         -0.95100        1.76770        5.09770
C         -1.23620        2.08640        6.42130
C         -0.85250        3.30500        6.94320
C         -0.18380        4.23210        6.15220
C          0.03540        5.62410        6.68860
O         -1.18620        6.22600        7.08460
C         -2.06410        6.44410        6.02990
O         -3.26240        6.88600        6.57800
C         -4.21010        7.23530        5.60230
C          0.16040        3.88460        4.85360
C         -0.21990        2.66190        4.32850
C         -1.74260       -0.63130        5.36380
C         -0.64070       -1.01080        6.12030
C         -0.65960       -2.19430        6.83100
C         -1.77410       -3.02380        6.79400
C         -1.71180       -4.37240        7.46150
O         -0.77820       -5.23530        6.82180
C         -1.17320       -5.69690        5.56850
O         -1.19640       -4.73310        4.56050
C          0.07800       -4.26000        4.18220
C         -2.88620       -2.62340        6.06890
C         -2.87060       -1.43800        5.35740
C         -2.95890        1.16780        4.00800
C         -3.07910        1.08930        2.63090
C         -1.95170        0.40870        2.06970
C         -1.64580        0.07000        0.75400
C         -0.43720       -0.54690        0.52810
C          0.14380       -1.02800       -0.79110
C          0.38270        0.04220       -1.83680
C          0.40680        1.39290       -1.51940
C          0.71130        2.33180       -2.48840
C          1.00950        1.93880       -3.78700
C          1.35770        2.97710       -4.82110
O          1.67500        2.36640       -6.04530
C          2.11050        3.27010       -7.02580
O          2.36370        2.61110       -8.20940
C          3.41500        1.66820       -8.12170
C          0.98860        0.58850       -4.10230
C          0.67900       -0.34930       -3.13670
C         -0.77010       -2.12880       -1.30540
C         -1.86390       -1.80410       -2.09750
C         -2.72350       -2.78970       -2.54580
C         -2.51920       -4.11750       -2.19620
C         -3.44120       -5.20580       -2.68520
O         -2.74230       -6.35750       -3.14440
C         -1.99940       -6.14610       -4.28790
O         -2.83560       -5.81300       -5.36790
C         -2.13050       -5.63250       -6.56690
C         -1.43460       -4.43790       -1.38970
C         -0.56880       -3.45520       -0.94830
C          1.48690       -1.53780       -0.33980
C          2.65820       -2.00200       -0.93670
S          3.22750       -2.21720       -2.54600
S         -4.45150        1.93280        1.99500
C         -4.85040        2.46610        3.60630
C         -5.80340        3.33720        4.11740
C         -5.67140        3.50120        5.48740
S         -4.35690        2.51700        6.14380
C         -3.96290        1.95090        4.57310
C         -6.37230        4.28050        6.42900
C         -7.22720        5.33480        6.26300
C         -7.50630        6.09310        5.01360
O         -7.17330        5.82340        3.87590
C         -8.24190        7.28190        5.44810
C         -8.45640        7.23080        6.86300
C         -9.13900        8.30930        7.33080
S         -9.52340        9.39780        6.04610
C         -8.75560        8.38840        4.84520
C         -8.71870        8.76050        3.41340
C         -7.87330        6.01100        7.38010
C         -7.98880        5.58910        8.67880
C         -7.52080        4.36900        9.20410
N         -7.19220        3.38320        9.69390
C         -8.66150        6.37270        9.63940
N         -9.20930        6.99660       10.43170
H          6.80050       -3.27360       -2.11260
H          4.41660       -1.24890       -7.55270
H          9.25960       -2.62090       -6.98490
H          8.90770       -0.55930       -9.69380
H          9.19090       -3.06240      -10.55750
H          9.06700       -1.47240      -12.64570
H          6.53360       -0.74660      -12.98360
H          5.09740       -1.89090      -11.10470
H          6.68560       -3.56410       -9.72620
H          6.83660       -3.85160      -11.47460
H          6.42280        0.15270      -10.02520
H          5.73650       -2.95000        0.01280
H          0.80740       -0.75460        3.72050
H         -1.78880        1.38780        7.03200
H         -1.11650        3.57100        7.95520
H          0.54070        6.25020        5.93760
H          0.63670        5.60430        7.60100
H         -2.22880        5.51090        5.44540
H         -1.64990        7.20760        5.33050
H         -5.08870        7.58360        6.14060
H         -4.47870        6.37580        4.97490
H         -3.83780        8.03840        4.95420
H          0.69930        4.58730        4.23390
H          0.01910        2.42010        3.30300
H          0.23490       -0.37790        6.14810
H          0.20490       -2.49510        7.40530
H         -1.34430       -4.28280        8.48740
H         -2.70380       -4.84460        7.46990
H         -0.46190       -6.50240        5.32700
H         -2.19850       -6.09690        5.60180
H          0.68280       -5.07120        3.76050
H         -0.09440       -3.49410        3.42850
H          0.60720       -3.82420        5.03440
H         -3.76320       -3.25290        6.03830
H         -3.73480       -1.14990        4.77680
H         -2.32940        0.29790       -0.04900
H          0.18910        1.71540       -0.51170
H          0.72410        3.38140       -2.23040
H          2.21630        3.57490       -4.46680
H          0.51000        3.67150       -4.95410
H          1.32860        4.01420       -7.24800
H          3.01740        3.80170       -6.65670
H          3.49560        1.21390       -9.10660
H          4.35940        2.16160       -7.86100
H          3.19110        0.90580       -7.37230
H          1.22320        0.27750       -5.10630
H          0.66730       -1.39710       -3.39670
H         -2.03230       -0.77630       -2.38400
H         -3.56110       -2.52440       -3.17440
H         -4.09350       -4.82720       -3.47970
H         -4.05980       -5.57450       -1.86140
H         -1.24810       -5.33910       -4.14500
H         -1.47030       -7.09230       -4.48570
H         -2.86830       -5.36760       -7.32080
H         -1.61310       -6.55240       -6.86540
H         -1.39130       -4.82680       -6.47360
H         -1.26990       -5.47010       -1.11850
H          0.26860       -3.72690       -0.32260
H         -6.54640        3.84570        3.53290
H         -6.14340        4.01210        7.45420
H         -9.44120        8.55070        8.33000
H         -9.72820        8.86730        3.01740
H         -8.19480        7.98580        2.85810
H         -8.20540        9.71180        3.27630
