113

C         -2.36170       -0.65100       -5.75820
C         -1.13590       -0.38010       -6.28100
C         -1.01130        0.32230       -7.58570
O         -1.88440        0.48130       -8.40900
C          0.37600        0.82740       -7.62100
C          0.94820        1.65980       -8.58030
C          2.26060        1.98310       -8.33140
C          2.95630        1.52600       -7.20340
C          2.40870        0.69940       -6.25180
C          1.07900        0.34840       -6.49460
C          0.19820       -0.54050       -5.74450
C          0.60460       -1.53830       -4.89650
C          1.92540       -1.70440       -4.43900
N          2.97620       -1.87050       -4.00660
C         -0.25660       -2.56370       -4.45330
N         -0.91650       -3.44130       -4.11730
C          4.22260        2.24590       -7.59360
C          5.37000        1.40200       -8.20110
C          4.72210        0.20060       -8.84390
C          4.06510        0.62120       -9.91660
C          4.25710        2.11430      -10.01880
C          5.67900        2.24370       -9.44940
C          3.45130        2.74550       -8.85580
C         -2.70190       -0.91620       -4.41190
C         -3.84440       -1.55640       -3.95360
C         -4.86900       -2.18990       -4.83230
C         -4.37290       -3.54700       -5.33690
C         -3.85660       -1.64280       -2.55620
S         -4.96850       -2.38440       -1.42860
C         -3.93900       -1.89330       -0.13230
C         -3.84850       -2.02930        1.26020
C         -4.72140       -2.72530        2.13540
C         -4.36980       -2.79360        3.50320
N         -5.12610       -3.46200        4.38140
C         -6.20690       -4.04220        3.90650
C         -6.56010       -3.96680        2.55370
N         -5.82880       -3.31760        1.67410
C         -3.19840       -2.11150        3.92140
C         -2.67800       -1.98720        5.21520
S         -3.03100       -2.52160        6.81900
C         -1.63840       -1.61760        7.38840
C         -1.09750       -1.43540        8.65140
C         -1.64470       -2.10720        9.86760
C         -0.90240       -3.41810       10.14270
C          0.03910       -0.60250        8.61030
S          0.39760       -0.05330        6.96940
C         -0.94700       -0.94250        6.36380
C         -1.54770       -1.16710        5.12350
N         -1.33850       -0.80550        3.81940
C         -2.34210       -1.36760        3.05330
C         -2.64950       -1.37280        1.66790
N         -2.03980       -0.85130        0.53860
C         -2.80760       -1.18330       -0.54400
C         -2.75760       -1.03930       -1.93290
S         -1.68050       -0.35220       -3.08980
C         -0.70860       -0.33780        0.30870
C          0.33780       -1.44770        0.38450
C         -0.35500        0.21080        3.52450
C         -1.01040        1.57420        3.31310
C          0.78010       -0.27410        9.74420
C          1.90290        0.51060        9.89890
C          2.59180        1.24140        8.83810
O          2.31000        1.27980        7.65350
C          3.71500        1.94650        9.49200
C          3.70870        1.65250       10.86780
C          4.67590        2.19980       11.69480
C          5.63270        3.03590       11.13680
C          5.63160        3.32520        9.78150
Br         6.95860        4.47580        9.08300
C          4.66580        2.78040        8.92800
Cl         4.66120        3.13340        7.25310
C          2.58480        0.75720       11.14910
C          2.27010        0.26270       12.39090
C          1.19530       -0.60060       12.68700
N          0.34450       -1.30200       13.01130
C          2.99210        0.55370       13.56690
N          3.53070        0.74780       14.56200
H         -3.19180       -0.58000       -6.45470
H          0.37940        1.99760       -9.43240
H          2.94680        0.35510       -5.38350
H          4.58300        2.99240       -6.88860
H          6.19020        1.19720       -7.51840
H          4.75950       -0.79100       -8.43250
H          3.44340        0.05060      -10.58140
H          4.06530        2.55730      -10.99250
H          5.96350        3.27000       -9.22150
H          6.43200        1.78660      -10.08950
H          3.31560        3.81810       -8.98070
H         -5.08630       -1.54180       -5.68400
H         -5.78530       -2.32820       -4.25530
H         -3.45830       -3.42740       -5.91280
H         -4.16250       -4.20610       -4.49880
H         -5.12800       -4.01000       -5.96660
H         -6.81330       -4.58190        4.62050
H         -7.45370       -4.44310        2.17500
H         -2.69910       -2.32680        9.68870
H         -1.57290       -1.46010       10.74270
H         -0.98880       -4.08740        9.29000
H         -1.32890       -3.90510       11.01460
H          0.15160       -3.23180       10.33440
H         -0.48910        0.47740        0.99490
H         -0.70880        0.08360       -0.70010
H          1.33110       -1.03510        0.23050
H          0.14980       -2.18770       -0.39020
H          0.30760       -1.95130        1.34860
H          0.30730        0.26580        4.39190
H          0.25510       -0.08630        2.67310
H         -1.50340        1.89190        4.22880
H         -0.25670        2.31290        3.05470
H         -1.75720        1.53600        2.52250
H          0.39570       -0.72250       10.64990
H          4.70450        1.99530       12.75170
H          6.39370        3.47280       11.76490
