126

C          6.03210       -3.94310        1.05670
C          7.38110       -4.02240        0.84400
C          8.24370       -2.87840        0.46970
O          7.93530       -1.70610        0.40050
C          9.53680       -3.46900        0.07340
C         10.66260       -2.78240       -0.37640
C         11.73050       -3.59390       -0.67560
C         11.68030       -4.98870       -0.55010
C         10.57300       -5.67980       -0.11940
C          9.47750       -4.87120        0.20010
C          8.15380       -5.23760        0.69440
C          7.74490       -6.49840        1.04690
C          6.49480       -6.80150        1.62570
N          5.50900       -7.12100        2.12110
C          8.53040       -7.66120        0.91200
N          9.11210       -8.64730        0.82310
C         13.10400       -5.16220       -1.01790
C         14.15860       -5.44640        0.07270
C         15.46940       -5.09240       -0.59190
C         15.51790       -3.77170       -0.71080
C         14.24050       -3.21080       -0.12850
C         13.99170       -4.22920        0.99150
C         13.16010       -3.60700       -1.15710
C          5.30070       -2.78520        1.39610
C          5.63240       -1.70200        2.20300
C          6.89510       -1.59200        2.98870
C          6.65490       -1.22530        4.45150
C          4.56980       -0.78900        2.27960
S          4.39070        0.76220        3.07140
C          2.79240        0.88200        2.43590
C          1.69400        1.75080        2.49550
C          1.56060        2.95440        3.23340
C          0.30520        3.60580        3.21220
N          0.09170        4.72160        3.91880
C          1.10690        5.17930        4.61900
C          2.35300        4.54120        4.63010
N          2.58180        3.43920        3.94900
C         -0.71380        3.05360        2.39480
C         -2.00450        3.54410        2.15730
S         -3.01130        4.85340        2.66130
C         -4.26210        4.25650        1.58620
C         -5.54620        4.70680        1.30980
C         -6.11730        5.94280        1.92440
C         -5.93000        7.14760        0.99820
C         -6.18270        3.89060        0.35960
S         -5.15250        2.55940       -0.17060
C         -3.89420        3.09960        0.87760
C         -2.59840        2.69700        1.21670
N         -1.73280        1.68750        0.88580
C         -0.56240        1.87970        1.59810
C          0.65890        1.16620        1.70950
N          1.12890       -0.03290        1.19990
C          2.41030       -0.20920        1.65170
C          3.42540       -1.16750        1.56190
S          3.64000       -2.69960        0.80460
C          0.43150       -1.14450        0.59580
C         -0.53290       -1.80110        1.58150
C         -2.01820        0.86890       -0.27070
C         -1.18080        1.29700       -1.47400
C         -7.48800        4.12260       -0.08650
C         -8.25950        3.45410       -1.00390
C         -7.85770        2.28320       -1.78660
O         -6.78980        1.69310       -1.74760
C         -9.00370        1.94440       -2.64630
C         -9.08110        0.90480       -3.56930
C        -10.28430        0.83190       -4.22920
C        -11.33140        1.73190       -3.99230
C        -11.26650        2.76330       -3.08550
C        -10.05330        2.85180       -2.39770
C         -9.61890        3.79770       -1.37000
C        -10.38690        4.81170       -0.85430
C        -11.71460        5.08700       -1.24280
N        -12.79620        5.37440       -1.50060
C         -9.98730        5.72950        0.13880
N         -9.74700        6.51570        0.94250
C        -12.23880        1.06420       -4.99480
C        -13.36480        0.15100       -4.45040
C        -12.89190       -0.36070       -3.11240
C        -11.90120       -1.21460       -3.33280
C        -11.68650       -1.29590       -4.82400
C        -13.12880       -1.09680       -5.31640
C        -11.07300        0.05920       -5.25640
H          5.43590       -4.83620        0.90720
H         10.65630       -1.70730       -0.46520
H         10.54400       -6.75370       -0.04050
H         13.23980       -5.77080       -1.90990
H         14.08970       -6.43090        0.52700
H         16.17790       -5.81820       -0.94570
H         16.27480       -3.17390       -1.18390
H         14.24740       -2.15850        0.14280
H         14.75890       -4.18800        1.76290
H         13.00830       -4.15170        1.45170
H         13.33290       -3.17800       -2.14250
H          7.53100       -0.83780        2.51610
H          7.42660       -2.54460        2.93950
H          5.96360       -1.92840        4.91120
H          7.59670       -1.26430        4.99320
H          6.24800       -0.22300        4.54740
H          0.92810        6.08120        5.18790
H          3.18260        4.93000        5.20430
H         -5.59130        6.13000        2.86250
H         -7.17830        5.81850        2.14610
H         -6.44400        6.99040        0.05280
H         -6.33730        8.03870        1.46700
H         -4.87350        7.30900        0.79720
H          1.19520       -1.87000        0.30440
H         -0.07480       -0.82760       -0.31500
H          0.02010       -2.21040        2.42360
H         -1.06850       -2.61130        1.09420
H         -1.25230       -1.08150        1.96650
H         -1.88120       -0.18610       -0.03740
H         -3.07650        1.01370       -0.50110
H         -0.11690        1.25590       -1.24970
H         -1.39000        0.64990       -2.32130
H         -1.42880        2.31870       -1.75140
H         -7.94980        4.98030        0.38260
H         -8.24780        0.23700       -3.72290
H        -12.08210        3.44630       -2.91820
H        -12.57210        1.68530       -5.82380
H        -14.35600        0.59570       -4.47120
H        -13.27580       -0.01610       -2.17010
H        -11.29150       -1.72600       -2.61100
H        -11.15030       -2.16980       -5.18490
H        -13.19940       -0.90260       -6.38580
H        -13.78330       -1.92500       -5.04880
H        -10.64720        0.02110       -6.25730
