112

C          3.90560        4.16040       -2.91660
C          4.16150        4.93520       -1.81450
C          3.55790        4.78440       -0.48720
O          2.82880        3.88590       -0.10050
C          4.00250        5.94320        0.30420
C          3.63440        6.25790        1.60970
C          4.19440        7.42010        2.08310
C          5.06380        8.20740        1.31660
C          5.44040        7.90380        0.02960
C          4.87610        6.72900       -0.47480
C          5.02380        6.10030       -1.78660
C          5.86520        6.52940       -2.78190
C          6.70630        7.65750       -2.68630
N          7.41600        8.56030       -2.68470
C          6.04180        5.90540       -4.03420
N          6.24590        5.45740       -5.07290
C          5.23270        9.22950        2.41270
C          4.46220       10.56610        2.27700
C          3.24660       10.27620        1.43190
C          2.41990        9.53160        2.15400
C          3.06120        9.30510        3.50070
C          3.81390       10.63470        3.66900
C          4.26100        8.35390        3.26520
C          3.09900        3.02640       -3.07330
C          2.89340        2.40430       -4.31620
C          3.43670        2.87210       -5.62690
C          2.57360        3.99540       -6.20780
C          2.05920        1.29990       -4.19630
S          1.42660        0.16010       -5.36980
C          0.60580       -0.65890       -4.08840
C         -0.21900       -1.78200       -3.90370
C         -0.63800       -2.79610       -4.80580
C         -1.36060       -3.90490       -4.28590
N         -1.70170       -4.93290       -5.07050
C         -1.35850       -4.85520       -6.33810
C         -0.67850       -3.74770       -6.85720
N         -0.31700       -2.73320       -6.10260
C         -1.75730       -3.86960       -2.92230
C         -2.57110       -4.73490       -2.17020
S         -3.38280       -6.24860       -2.35670
C         -3.98030       -6.10310       -0.71860
C         -4.78180       -6.93100        0.06940
C         -5.30970       -8.24800       -0.39630
C         -4.36530       -9.38340        0.00650
C         -4.96380       -6.39490        1.34280
S         -4.15000       -4.84150        1.53740
C         -3.55950       -4.92650       -0.07960
C         -2.75680       -4.14450       -0.91290
N         -2.07810       -2.95160       -0.84810
C         -1.43440       -2.79020       -2.05940
C         -0.52380       -1.81860       -2.51660
N          0.13840       -0.79750       -1.86700
C          0.81380       -0.08390       -2.82750
C          1.64220        1.04010       -2.87990
S          2.24710        2.20530       -1.76440
C          0.60480       -0.79170       -0.49410
C          2.06400       -1.23720       -0.40510
C         -2.52080       -1.89900        0.04550
C         -3.98980       -1.55080       -0.19120
C         -5.67930       -6.98080        2.40050
C         -5.82020       -6.52440        3.67270
S         -5.14460       -5.06230        4.35420
C         -5.84520       -5.42810        5.91990
C         -5.64810       -4.56330        6.96750
C         -4.87980       -3.39960        6.75720
N         -4.25420       -2.45260        6.58900
C         -6.13520       -4.70450        8.27740
N         -6.49850       -4.75730        9.36600
N         -6.54940       -6.58700        5.89590
C         -7.20630       -7.18940        7.04130
C         -6.22350       -7.97320        7.90290
C         -6.57850       -7.25720        4.67650
O         -7.16730       -8.30210        4.50800
H          4.38290        4.47260       -3.83530
H          2.96330        5.62160        2.16530
H          6.10870        8.52220       -0.54580
H          6.24710        9.37060        2.78000
H          5.07290       11.40940        1.96620
H          3.14160       10.58500        0.40830
H          1.48590        9.09360        1.85390
H          2.39530        9.00150        4.30420
H          3.14450       11.48640        3.78020
H          4.53540       10.62470        4.48480
H          4.63910        7.92660        4.19190
H          3.43200        2.02690       -6.31790
H          4.46540        3.22100       -5.52170
H          1.55370        3.64910       -6.35770
H          2.55360        4.85240       -5.53820
H          2.97820        4.31400       -7.16430
H         -1.63550       -5.69420       -6.96130
H         -0.41720       -3.68250       -7.90440
H         -6.30080       -8.42870        0.02230
H         -5.39360       -8.22010       -1.48430
H         -4.26250       -9.43070        1.08810
H         -4.75410      -10.33410       -0.34810
H         -3.38140       -9.22660       -0.42900
H          0.00140       -1.48100        0.09290
H          0.50370        0.22220       -0.09510
H          2.71640       -0.54390       -0.92760
H          2.18300       -2.22780       -0.83950
H          2.36640       -1.27330        0.63750
H         -2.38010       -2.23130        1.07900
H         -1.92680       -1.00580       -0.13650
H         -4.63460       -2.39780        0.02450
H         -4.27390       -0.72910        0.46000
H         -4.14280       -1.24810       -1.22500
H         -6.17620       -7.92180        2.19770
H         -7.95720       -7.86840        6.62750
H         -7.70200       -6.41130        7.62390
H         -6.75850       -8.43330        8.72810
H         -5.45640       -7.32160        8.31460
H         -5.74920       -8.75490        7.31370
