
  xtb     02022213363D
 energy: -220.065713907128 gnorm: 0.000525583788 xtb: 6.4.1 (unknown)
127143  0     0  0            999 V2000
   -1.4845    5.6872   -2.3753 C   0  0  0  0  0  0  0  0  0  0  0  0
   -0.7734    6.7812   -1.9672 C   0  0  0  0  0  0  0  0  0  0  0  0
    0.5424    6.7232   -1.2897 C   0  0  0  0  0  0  0  0  0  0  0  0
    1.2571    5.7560   -1.1257 O   0  0  0  0  0  0  0  0  0  0  0  0
    0.7520    8.0661   -0.7179 C   0  0  0  0  0  0  0  0  0  0  0  0
    1.8229    8.4733    0.0743 C   0  0  0  0  0  0  0  0  0  0  0  0
    1.7311    9.7720    0.5136 C   0  0  0  0  0  0  0  0  0  0  0  0
    0.6501   10.6052    0.1959 C   0  0  0  0  0  0  0  0  0  0  0  0
   -0.4132   10.2164   -0.5842 C   0  0  0  0  0  0  0  0  0  0  0  0
   -0.3361    8.8988   -1.0462 C   0  0  0  0  0  0  0  0  0  0  0  0
   -1.2666    8.1370   -1.8730 C   0  0  0  0  0  0  0  0  0  0  0  0
   -2.3591    8.6357   -2.5351 C   0  0  0  0  0  0  0  0  0  0  0  0
   -3.1535    7.8801   -3.4221 C   0  0  0  0  0  0  0  0  0  0  0  0
   -3.8192    7.3262   -4.1768 N   0  0  0  0  0  0  0  0  0  0  0  0
   -2.7990    9.9719   -2.4550 C   0  0  0  0  0  0  0  0  0  0  0  0
   -3.2088   11.0443   -2.4270 N   0  0  0  0  0  0  0  0  0  0  0  0
    1.2076   11.7631    0.9865 C   0  0  0  0  0  0  0  0  0  0  0  0
    1.8740   12.8962    0.1782 C   0  0  0  0  0  0  0  0  0  0  0  0
    2.7252   13.6156    1.1995 C   0  0  0  0  0  0  0  0  0  0  0  0
    3.7495   12.8270    1.4988 C   0  0  0  0  0  0  0  0  0  0  0  0
    3.6077   11.5610    0.6850 C   0  0  0  0  0  0  0  0  0  0  0  0
    2.9649   12.1335   -0.5847 C   0  0  0  0  0  0  0  0  0  0  0  0
    2.4136   10.8342    1.3388 C   0  0  0  0  0  0  0  0  0  0  0  0
   -0.9468    4.3978   -2.5876 C   0  0  0  0  0  0  0  0  0  0  0  0
    0.2975    4.0238   -3.0864 C   0  0  0  0  0  0  0  0  0  0  0  0
    1.2404    4.9590   -3.6908 C   0  0  0  0  0  0  0  0  0  0  0  0
    0.7906    5.9692   -4.5390 C   0  0  0  0  0  0  0  0  0  0  0  0
    1.6889    6.8789   -5.0602 C   0  0  0  0  0  0  0  0  0  0  0  0
    3.0322    6.8023   -4.7299 C   0  0  0  0  0  0  0  0  0  0  0  0
    3.4977    5.7931   -3.8978 C   0  0  0  0  0  0  0  0  0  0  0  0
    4.9354    5.7419   -3.4697 C   0  0  0  0  0  0  0  0  0  0  0  0
    5.0942    6.4561   -2.1255 C   0  0  0  0  0  0  0  0  0  0  0  0
    2.5961    4.8662   -3.3962 C   0  0  0  0  0  0  0  0  0  0  0  0
    0.4847    2.6366   -2.9952 C   0  0  0  0  0  0  0  0  0  0  0  0
    1.8395    1.5973   -3.3695 S   0  0  0  0  0  0  0  0  0  0  0  0
    0.9492    0.2511   -2.7474 C   0  0  0  0  0  0  0  0  0  0  0  0
    1.1630   -1.0934   -2.4080 C   0  0  0  0  0  0  0  0  0  0  0  0
    2.3352   -1.8838   -2.4157 C   0  0  0  0  0  0  0  0  0  0  0  0
    2.3347   -3.1359   -1.7107 C   0  0  0  0  0  0  0  0  0  0  0  0
    3.5225   -3.7188   -1.7178 N   0  0  0  0  0  0  0  0  0  0  0  0
    4.5504   -2.7834   -2.5478 S   0  0  0  0  0  0  0  0  0  0  0  0
    3.5215   -1.5912   -2.9233 N   0  0  0  0  0  0  0  0  0  0  0  0
    1.1278   -3.6028   -1.1430 C   0  0  0  0  0  0  0  0  0  0  0  0
    0.8143   -4.7536   -0.4024 C   0  0  0  0  0  0  0  0  0  0  0  0
    1.6158   -6.0998    0.3318 S   0  0  0  0  0  0  0  0  0  0  0  0
    0.0751   -6.6254    0.9843 C   0  0  0  0  0  0  0  0  0  0  0  0
   -0.2961   -7.6872    1.8069 C   0  0  0  0  0  0  0  0  0  0  0  0
    0.6322   -8.6897    2.3222 C   0  0  0  0  0  0  0  0  0  0  0  0
    1.8521   -8.2885    2.8628 C   0  0  0  0  0  0  0  0  0  0  0  0
    2.7198   -9.2318    3.3777 C   0  0  0  0  0  0  0  0  0  0  0  0
    2.3867  -10.5744    3.3542 C   0  0  0  0  0  0  0  0  0  0  0  0
    1.1842  -10.9964    2.8002 C   0  0  0  0  0  0  0  0  0  0  0  0
    0.8474  -12.4568    2.7305 C   0  0  0  0  0  0  0  0  0  0  0  0
    1.4661  -13.0931    1.4846 C   0  0  0  0  0  0  0  0  0  0  0  0
    0.3198  -10.0471    2.2792 C   0  0  0  0  0  0  0  0  0  0  0  0
   -1.6755   -7.6581    2.0930 C   0  0  0  0  0  0  0  0  0  0  0  0
   -2.5013   -6.3422    1.2619 S   0  0  0  0  0  0  0  0  0  0  0  0
   -0.9997   -5.8029    0.6098 C   0  0  0  0  0  0  0  0  0  0  0  0
   -0.5677   -4.7334   -0.1772 C   0  0  0  0  0  0  0  0  0  0  0  0
   -1.1222   -3.6150   -0.7475 N   0  0  0  0  0  0  0  0  0  0  0  0
   -0.0895   -2.8813   -1.3011 C   0  0  0  0  0  0  0  0  0  0  0  0
   -0.0418   -1.5609   -1.8117 C   0  0  0  0  0  0  0  0  0  0  0  0
   -0.9463   -0.5184   -1.7676 N   0  0  0  0  0  0  0  0  0  0  0  0
   -0.3439    0.5794   -2.3210 C   0  0  0  0  0  0  0  0  0  0  0  0
   -0.6112    1.9446   -2.4622 C   0  0  0  0  0  0  0  0  0  0  0  0
   -1.9207    3.0105   -2.1110 S   0  0  0  0  0  0  0  0  0  0  0  0
   -2.1596   -0.3661   -0.9957 C   0  0  0  0  0  0  0  0  0  0  0  0
   -3.3914   -0.2211   -1.8887 C   0  0  0  0  0  0  0  0  0  0  0  0
   -2.5147   -3.6332   -1.1446 C   0  0  0  0  0  0  0  0  0  0  0  0
   -2.8055   -4.7976   -2.0910 C   0  0  0  0  0  0  0  0  0  0  0  0
   -2.2662   -8.4935    3.0481 C   0  0  0  0  0  0  0  0  0  0  0  0
   -3.5700   -8.5966    3.4610 C   0  0  0  0  0  0  0  0  0  0  0  0
   -4.7287   -7.8599    2.9239 C   0  0  0  0  0  0  0  0  0  0  0  0
   -4.7298   -7.0269    2.0346 O   0  0  0  0  0  0  0  0  0  0  0  0
   -5.8879   -8.3395    3.6881 C   0  0  0  0  0  0  0  0  0  0  0  0
   -7.2731   -8.1137    3.7444 C   0  0  0  0  0  0  0  0  0  0  0  0
   -7.8531   -8.8852    4.7078 C   0  0  0  0  0  0  0  0  0  0  0  0
   -6.7397   -9.8936    5.5606 S   0  0  0  0  0  0  0  0  0  0  0  0
   -5.4530   -9.2780    4.6115 C   0  0  0  0  0  0  0  0  0  0  0  0
   -4.0308   -9.4808    4.5186 C   0  0  0  0  0  0  0  0  0  0  0  0
   -3.3175  -10.3487    5.3083 C   0  0  0  0  0  0  0  0  0  0  0  0
   -1.9328  -10.5907    5.2493 C   0  0  0  0  0  0  0  0  0  0  0  0
   -0.8137  -10.8520    5.2571 N   0  0  0  0  0  0  0  0  0  0  0  0
   -3.9699  -11.1110    6.2996 C   0  0  0  0  0  0  0  0  0  0  0  0
   -4.4949  -11.7354    7.1070 N   0  0  0  0  0  0  0  0  0  0  0  0
   -2.5619    5.7702   -2.4676 H   0  0  0  0  0  0  0  0  0  0  0  0
    2.6308    7.7963    0.3040 H   0  0  0  0  0  0  0  0  0  0  0  0
   -1.2467   10.8613   -0.8087 H   0  0  0  0  0  0  0  0  0  0  0  0
    0.5793   12.1302    1.7958 H   0  0  0  0  0  0  0  0  0  0  0  0
    1.1872   13.5049   -0.4034 H   0  0  0  0  0  0  0  0  0  0  0  0
    2.4727   14.5682    1.6269 H   0  0  0  0  0  0  0  0  0  0  0  0
    4.5234   12.9891    2.2261 H   0  0  0  0  0  0  0  0  0  0  0  0
    4.5008   10.9533    0.5654 H   0  0  0  0  0  0  0  0  0  0  0  0
    3.6364   12.8024   -1.1205 H   0  0  0  0  0  0  0  0  0  0  0  0
    2.5821   11.3773   -1.2677 H   0  0  0  0  0  0  0  0  0  0  0  0
    2.5891   10.5821    2.3831 H   0  0  0  0  0  0  0  0  0  0  0  0
   -0.2572    6.0293   -4.7967 H   0  0  0  0  0  0  0  0  0  0  0  0
    1.3395    7.6573   -5.7229 H   0  0  0  0  0  0  0  0  0  0  0  0
    3.7248    7.5316   -5.1253 H   0  0  0  0  0  0  0  0  0  0  0  0
    5.5689    6.2235   -4.2170 H   0  0  0  0  0  0  0  0  0  0  0  0
    5.2535    4.7030   -3.3654 H   0  0  0  0  0  0  0  0  0  0  0  0
    4.4442    5.9988   -1.3832 H   0  0  0  0  0  0  0  0  0  0  0  0
    6.1232    6.3955   -1.7785 H   0  0  0  0  0  0  0  0  0  0  0  0
    4.8189    7.5048   -2.2207 H   0  0  0  0  0  0  0  0  0  0  0  0
    2.9418    4.0905   -2.7306 H   0  0  0  0  0  0  0  0  0  0  0  0
    2.1006   -7.2388    2.9028 H   0  0  0  0  0  0  0  0  0  0  0  0
    3.6585   -8.9156    3.8078 H   0  0  0  0  0  0  0  0  0  0  0  0
    3.0644  -11.3046    3.7711 H   0  0  0  0  0  0  0  0  0  0  0  0
   -0.2361  -12.5849    2.7051 H   0  0  0  0  0  0  0  0  0  0  0  0
    1.2260  -12.9594    3.6217 H   0  0  0  0  0  0  0  0  0  0  0  0
    2.5479  -12.9810    1.4989 H   0  0  0  0  0  0  0  0  0  0  0  0
    1.2273  -14.1531    1.4411 H   0  0  0  0  0  0  0  0  0  0  0  0
    1.0855  -12.6140    0.5850 H   0  0  0  0  0  0  0  0  0  0  0  0
   -0.6033  -10.3659    1.8148 H   0  0  0  0  0  0  0  0  0  0  0  0
   -2.2530   -1.2056   -0.3072 H   0  0  0  0  0  0  0  0  0  0  0  0
   -2.0576    0.5456   -0.3961 H   0  0  0  0  0  0  0  0  0  0  0  0
   -3.4710   -1.0385   -2.6020 H   0  0  0  0  0  0  0  0  0  0  0  0
   -4.2880   -0.2023   -1.2760 H   0  0  0  0  0  0  0  0  0  0  0  0
   -3.3390    0.7080   -2.4497 H   0  0  0  0  0  0  0  0  0  0  0  0
   -2.7483   -2.7078   -1.6600 H   0  0  0  0  0  0  0  0  0  0  0  0
   -3.1345   -3.7261   -0.2472 H   0  0  0  0  0  0  0  0  0  0  0  0
   -2.1595   -4.7445   -2.9651 H   0  0  0  0  0  0  0  0  0  0  0  0
   -3.8408   -4.7471   -2.4165 H   0  0  0  0  0  0  0  0  0  0  0  0
   -2.6492   -5.7516   -1.5965 H   0  0  0  0  0  0  0  0  0  0  0  0
   -1.5545   -9.1395    3.5489 H   0  0  0  0  0  0  0  0  0  0  0  0
   -7.8061   -7.4262    3.1142 H   0  0  0  0  0  0  0  0  0  0  0  0
   -8.8904   -8.9254    4.9774 H   0  0  0  0  0  0  0  0  0  0  0  0
  1  2  2  0  0  0  0
  2  3  1  0  0  0  0
  3  4  2  0  0  0  0
  3  5  1  0  0  0  0
  5  6  2  0  0  0  0
  6  7  1  0  0  0  0
  7  8  2  0  0  0  0
  8  9  1  0  0  0  0
  9 10  2  0  0  0  0
 10 11  1  0  0  0  0
 11 12  2  0  0  0  0
 12 13  1  0  0  0  0
 13 14  3  0  0  0  0
 12 15  1  0  0  0  0
 15 16  3  0  0  0  0
  8 17  1  0  0  0  0
 17 18  1  0  0  0  0
 18 19  1  0  0  0  0
 19 20  2  0  0  0  0
 20 21  1  0  0  0  0
 21 22  1  0  0  0  0
 21 23  1  0  0  0  0
  1 24  1  0  0  0  0
 24 25  2  0  0  0  0
 25 26  1  0  0  0  0
 26 27  2  0  0  0  0
 27 28  1  0  0  0  0
 28 29  2  0  0  0  0
 29 30  1  0  0  0  0
 30 31  1  0  0  0  0
 31 32  1  0  0  0  0
 30 33  2  0  0  0  0
 25 34  1  0  0  0  0
 34 35  1  0  0  0  0
 35 36  1  0  0  0  0
 36 37  1  0  0  0  0
 37 38  1  0  0  0  0
 38 39  1  0  0  0  0
 39 40  2  0  0  0  0
 40 41  1  0  0  0  0
 41 42  1  0  0  0  0
 39 43  1  0  0  0  0
 43 44  1  0  0  0  0
 44 45  1  0  0  0  0
 45 46  1  0  0  0  0
 46 47  1  0  0  0  0
 47 48  1  0  0  0  0
 48 49  2  0  0  0  0
 49 50  1  0  0  0  0
 50 51  2  0  0  0  0
 51 52  1  0  0  0  0
 52 53  1  0  0  0  0
 53 54  1  0  0  0  0
 52 55  2  0  0  0  0
 47 56  2  0  0  0  0
 56 57  1  0  0  0  0
 57 58  1  0  0  0  0
 58 59  1  0  0  0  0
 59 60  1  0  0  0  0
 60 61  1  0  0  0  0
 61 62  1  0  0  0  0
 62 63  1  0  0  0  0
 63 64  1  0  0  0  0
 64 65  1  0  0  0  0
 65 66  1  0  0  0  0
 63 67  1  0  0  0  0
 67 68  1  0  0  0  0
 60 69  1  0  0  0  0
 69 70  1  0  0  0  0
 56 71  1  0  0  0  0
 71 72  2  0  0  0  0
 72 73  1  0  0  0  0
 73 74  2  0  0  0  0
 73 75  1  0  0  0  0
 75 76  1  0  0  0  0
 76 77  2  0  0  0  0
 77 78  1  0  0  0  0
 78 79  1  0  0  0  0
 79 80  1  0  0  0  0
 80 81  2  0  0  0  0
 81 82  1  0  0  0  0
 82 83  3  0  0  0  0
 81 84  1  0  0  0  0
 84 85  3  0  0  0  0
 11  2  1  0  0  0  0
 23 17  1  0  0  0  0
 66 24  1  0  0  0  0
 80 72  1  0  0  0  0
 10  5  1  0  0  0  0
 22 18  1  0  0  0  0
 33 26  1  0  0  0  0
 65 34  2  0  0  0  0
 79 75  2  0  0  0  0
 23  7  1  0  0  0  0
 64 36  2  0  0  0  0
 62 37  2  0  0  0  0
 42 38  2  0  0  0  0
 61 43  2  0  0  0  0
 59 44  2  0  0  0  0
 58 46  2  0  0  0  0
 55 48  1  0  0  0  0
  1 86  1  0  0  0  0
  6 87  1  0  0  0  0
  9 88  1  0  0  0  0
 17 89  1  0  0  0  0
 18 90  1  0  0  0  0
 19 91  1  0  0  0  0
 20 92  1  0  0  0  0
 21 93  1  0  0  0  0
 22 94  1  0  0  0  0
 22 95  1  0  0  0  0
 23 96  1  0  0  0  0
 27 97  1  0  0  0  0
 28 98  1  0  0  0  0
 29 99  1  0  0  0  0
 31100  1  0  0  0  0
 31101  1  0  0  0  0
 32102  1  0  0  0  0
 32103  1  0  0  0  0
 32104  1  0  0  0  0
 33105  1  0  0  0  0
 49106  1  0  0  0  0
 50107  1  0  0  0  0
 51108  1  0  0  0  0
 53109  1  0  0  0  0
 53110  1  0  0  0  0
 54111  1  0  0  0  0
 54112  1  0  0  0  0
 54113  1  0  0  0  0
 55114  1  0  0  0  0
 67115  1  0  0  0  0
 67116  1  0  0  0  0
 68117  1  0  0  0  0
 68118  1  0  0  0  0
 68119  1  0  0  0  0
 69120  1  0  0  0  0
 69121  1  0  0  0  0
 70122  1  0  0  0  0
 70123  1  0  0  0  0
 70124  1  0  0  0  0
 71125  1  0  0  0  0
 76126  1  0  0  0  0
 77127  1  0  0  0  0
M  END
