
  xtb     02022212363D
 energy: -204.263466811755 gnorm: 0.000256027514 xtb: 6.4.1 (unknown)
119133  0     0  0            999 V2000
   -1.5520   -3.3728    6.7377 C   0  0  0  0  0  0  0  0  0  0  0  0
   -2.7534   -2.7742    6.9582 C   0  0  0  0  0  0  0  0  0  0  0  0
   -3.3384   -2.7337    8.3244 C   0  0  0  0  0  0  0  0  0  0  0  0
   -2.9778   -3.3755    9.2857 O   0  0  0  0  0  0  0  0  0  0  0  0
   -4.4020   -1.7111    8.2622 C   0  0  0  0  0  0  0  0  0  0  0  0
   -5.1749   -1.2295    9.3175 C   0  0  0  0  0  0  0  0  0  0  0  0
   -6.0828   -0.2642    8.9531 C   0  0  0  0  0  0  0  0  0  0  0  0
   -6.2075    0.2044    7.6378 C   0  0  0  0  0  0  0  0  0  0  0  0
   -5.4564   -0.2619    6.5858 C   0  0  0  0  0  0  0  0  0  0  0  0
   -4.5379   -1.2559    6.9334 C   0  0  0  0  0  0  0  0  0  0  0  0
   -3.6313   -2.0240    6.0861 C   0  0  0  0  0  0  0  0  0  0  0  0
   -3.7823   -2.2199    4.7372 C   0  0  0  0  0  0  0  0  0  0  0  0
   -3.0951   -3.2232    4.0223 C   0  0  0  0  0  0  0  0  0  0  0  0
   -2.5984   -4.0649    3.4195 N   0  0  0  0  0  0  0  0  0  0  0  0
   -4.6904   -1.5123    3.9270 C   0  0  0  0  0  0  0  0  0  0  0  0
   -5.3859   -0.9466    3.2090 N   0  0  0  0  0  0  0  0  0  0  0  0
   -7.3100    1.1675    7.9994 C   0  0  0  0  0  0  0  0  0  0  0  0
   -8.7430    0.7449    7.6115 C   0  0  0  0  0  0  0  0  0  0  0  0
   -9.6236    1.6036    8.4902 C   0  0  0  0  0  0  0  0  0  0  0  0
   -9.5106    1.1562    9.7343 C   0  0  0  0  0  0  0  0  0  0  0  0
   -8.5520   -0.0127    9.7174 C   0  0  0  0  0  0  0  0  0  0  0  0
   -8.8771   -0.5998    8.3377 C   0  0  0  0  0  0  0  0  0  0  0  0
   -7.1765    0.6409    9.4643 C   0  0  0  0  0  0  0  0  0  0  0  0
   -0.6721   -3.1816    5.6452 C   0  0  0  0  0  0  0  0  0  0  0  0
    0.2816   -4.0682    5.1696 C   0  0  0  0  0  0  0  0  0  0  0  0
    0.5553   -5.4237    5.7323 C   0  0  0  0  0  0  0  0  0  0  0  0
    1.7253   -5.3663    6.7178 C   0  0  0  0  0  0  0  0  0  0  0  0
    0.9580   -3.5443    4.0611 C   0  0  0  0  0  0  0  0  0  0  0  0
    2.1608   -4.2128    2.9840 S   0  0  0  0  0  0  0  0  0  0  0  0
    2.0977   -2.7644    2.0450 C   0  0  0  0  0  0  0  0  0  0  0  0
    2.6526   -2.2352    0.8643 C   0  0  0  0  0  0  0  0  0  0  0  0
    3.6619   -2.7228   -0.0077 C   0  0  0  0  0  0  0  0  0  0  0  0
    4.0579   -1.9093   -1.1060 C   0  0  0  0  0  0  0  0  0  0  0  0
    5.0541   -2.2859   -1.9156 N   0  0  0  0  0  0  0  0  0  0  0  0
    5.6262   -3.4421   -1.6608 C   0  0  0  0  0  0  0  0  0  0  0  0
    5.2158   -4.2567   -0.5992 C   0  0  0  0  0  0  0  0  0  0  0  0
    4.2512   -3.9018    0.2209 N   0  0  0  0  0  0  0  0  0  0  0  0
    3.3290   -0.7171   -1.3597 C   0  0  0  0  0  0  0  0  0  0  0  0
    3.3617    0.1816   -2.4432 C   0  0  0  0  0  0  0  0  0  0  0  0
    4.2430    0.4381   -3.9057 S   0  0  0  0  0  0  0  0  0  0  0  0
    3.1815    1.7721   -4.3027 C   0  0  0  0  0  0  0  0  0  0  0  0
    3.0731    2.6180   -5.4210 C   0  0  0  0  0  0  0  0  0  0  0  0
    4.0220    2.6291   -6.5714 C   0  0  0  0  0  0  0  0  0  0  0  0
    5.4861    2.5461   -6.1500 C   0  0  0  0  0  0  0  0  0  0  0  0
    2.0104    3.4970   -5.2744 C   0  0  0  0  0  0  0  0  0  0  0  0
    1.1904    3.3223   -3.7233 S   0  0  0  0  0  0  0  0  0  0  0  0
    2.2133    1.9981   -3.3166 C   0  0  0  0  0  0  0  0  0  0  0  0
    2.3110    1.0871   -2.2619 C   0  0  0  0  0  0  0  0  0  0  0  0
    1.6346    0.8055   -1.0989 N   0  0  0  0  0  0  0  0  0  0  0  0
    2.2633   -0.2860   -0.5292 C   0  0  0  0  0  0  0  0  0  0  0  0
    2.0313   -0.9741    0.6753 C   0  0  0  0  0  0  0  0  0  0  0  0
    1.1904   -0.7008    1.7360 N   0  0  0  0  0  0  0  0  0  0  0  0
    1.2132   -1.8041    2.5544 C   0  0  0  0  0  0  0  0  0  0  0  0
    0.5607   -2.2501    3.7040 C   0  0  0  0  0  0  0  0  0  0  0  0
   -0.6771   -1.6612    4.7477 S   0  0  0  0  0  0  0  0  0  0  0  0
    0.8665    0.6104    2.2609 C   0  0  0  0  0  0  0  0  0  0  0  0
    1.7091    0.9384    3.4933 C   0  0  0  0  0  0  0  0  0  0  0  0
    0.2315    1.1533   -0.9845 C   0  0  0  0  0  0  0  0  0  0  0  0
   -0.5969    0.4740   -2.0744 C   0  0  0  0  0  0  0  0  0  0  0  0
    1.5253    4.5206   -6.1292 C   0  0  0  0  0  0  0  0  0  0  0  0
    1.4276    4.4620   -7.4826 C   0  0  0  0  0  0  0  0  0  0  0  0
    1.0087    5.8651   -8.4514 S   0  0  0  0  0  0  0  0  0  0  0  0
    1.0239    4.9108   -9.9214 C   0  0  0  0  0  0  0  0  0  0  0  0
    0.7580    5.5211  -11.1220 C   0  0  0  0  0  0  0  0  0  0  0  0
    0.6880    4.9170  -12.3876 C   0  0  0  0  0  0  0  0  0  0  0  0
    0.6126    4.4956  -13.4543 N   0  0  0  0  0  0  0  0  0  0  0  0
    0.5044    6.9091  -11.1448 C   0  0  0  0  0  0  0  0  0  0  0  0
    0.2993    8.0372  -11.1764 N   0  0  0  0  0  0  0  0  0  0  0  0
    1.2838    3.6063   -9.6580 N   0  0  0  0  0  0  0  0  0  0  0  0
    1.4531    2.5464  -10.6457 C   0  0  0  0  0  0  0  0  0  0  0  0
    2.9250    2.3199  -10.8914 C   0  0  0  0  0  0  0  0  0  0  0  0
    3.6047    1.3408  -10.1780 C   0  0  0  0  0  0  0  0  0  0  0  0
    4.9676    1.1722  -10.3478 C   0  0  0  0  0  0  0  0  0  0  0  0
    5.6611    1.9775  -11.2350 C   0  0  0  0  0  0  0  0  0  0  0  0
    4.9869    2.9486  -11.9558 C   0  0  0  0  0  0  0  0  0  0  0  0
    3.6250    3.1231  -11.7827 C   0  0  0  0  0  0  0  0  0  0  0  0
    1.4896    3.2726   -8.3218 C   0  0  0  0  0  0  0  0  0  0  0  0
    1.6183    2.1262   -7.9524 O   0  0  0  0  0  0  0  0  0  0  0  0
   -1.2003   -4.0209    7.5340 H   0  0  0  0  0  0  0  0  0  0  0  0
   -5.0446   -1.6098   10.3185 H   0  0  0  0  0  0  0  0  0  0  0  0
   -5.5522    0.1086    5.5783 H   0  0  0  0  0  0  0  0  0  0  0  0
   -7.1076    2.2186    7.8027 H   0  0  0  0  0  0  0  0  0  0  0  0
   -8.9489    0.7613    6.5448 H   0  0  0  0  0  0  0  0  0  0  0  0
  -10.1766    2.4541    8.1370 H   0  0  0  0  0  0  0  0  0  0  0  0
   -9.9504    1.5585   10.6280 H   0  0  0  0  0  0  0  0  0  0  0  0
   -8.5865   -0.6860   10.5696 H   0  0  0  0  0  0  0  0  0  0  0  0
   -8.1738   -1.3588    8.0003 H   0  0  0  0  0  0  0  0  0  0  0  0
   -9.8902   -0.9950    8.2874 H   0  0  0  0  0  0  0  0  0  0  0  0
   -6.8881    1.3411   10.2462 H   0  0  0  0  0  0  0  0  0  0  0  0
    0.8114   -6.0936    4.9093 H   0  0  0  0  0  0  0  0  0  0  0  0
   -0.3331   -5.8127    6.2293 H   0  0  0  0  0  0  0  0  0  0  0  0
    2.6205   -4.9998    6.2210 H   0  0  0  0  0  0  0  0  0  0  0  0
    1.4943   -4.7038    7.5491 H   0  0  0  0  0  0  0  0  0  0  0  0
    1.9287   -6.3585    7.1114 H   0  0  0  0  0  0  0  0  0  0  0  0
    6.4323   -3.7331   -2.3201 H   0  0  0  0  0  0  0  0  0  0  0  0
    5.6811   -5.2133   -0.4056 H   0  0  0  0  0  0  0  0  0  0  0  0
    3.8643    3.5400   -7.1534 H   0  0  0  0  0  0  0  0  0  0  0  0
    3.7780    1.7845   -7.2224 H   0  0  0  0  0  0  0  0  0  0  0  0
    5.7283    3.3441   -5.4514 H   0  0  0  0  0  0  0  0  0  0  0  0
    5.7077    1.5930   -5.6793 H   0  0  0  0  0  0  0  0  0  0  0  0
    6.1198    2.6504   -7.0273 H   0  0  0  0  0  0  0  0  0  0  0  0
    1.0781    1.3556    1.4952 H   0  0  0  0  0  0  0  0  0  0  0  0
   -0.1969    0.6385    2.5215 H   0  0  0  0  0  0  0  0  0  0  0  0
    1.4829    0.2636    4.3139 H   0  0  0  0  0  0  0  0  0  0  0  0
    2.7680    0.8593    3.2561 H   0  0  0  0  0  0  0  0  0  0  0  0
    1.4983    1.9542    3.8158 H   0  0  0  0  0  0  0  0  0  0  0  0
    0.1407    2.2407   -1.0681 H   0  0  0  0  0  0  0  0  0  0  0  0
   -0.1460    0.8304   -0.0176 H   0  0  0  0  0  0  0  0  0  0  0  0
   -0.4834   -0.6062   -2.0123 H   0  0  0  0  0  0  0  0  0  0  0  0
   -0.2879    0.8009   -3.0633 H   0  0  0  0  0  0  0  0  0  0  0  0
   -1.6458    0.7225   -1.9404 H   0  0  0  0  0  0  0  0  0  0  0  0
    1.1705    5.4212   -5.6411 H   0  0  0  0  0  0  0  0  0  0  0  0
    1.0036    1.6477  -10.2136 H   0  0  0  0  0  0  0  0  0  0  0  0
    0.9294    2.8165  -11.5612 H   0  0  0  0  0  0  0  0  0  0  0  0
    3.0619    0.7139   -9.4866 H   0  0  0  0  0  0  0  0  0  0  0  0
    5.4874    0.4096   -9.7871 H   0  0  0  0  0  0  0  0  0  0  0  0
    6.7245    1.8457  -11.3688 H   0  0  0  0  0  0  0  0  0  0  0  0
    5.5209    3.5734  -12.6559 H   0  0  0  0  0  0  0  0  0  0  0  0
    3.1035    3.8754  -12.3558 H   0  0  0  0  0  0  0  0  0  0  0  0
  1  2  2  0  0  0  0
  2  3  1  0  0  0  0
  3  4  2  0  0  0  0
  3  5  1  0  0  0  0
  5  6  2  0  0  0  0
  6  7  1  0  0  0  0
  7  8  2  0  0  0  0
  8  9  1  0  0  0  0
  9 10  2  0  0  0  0
 10 11  1  0  0  0  0
 11 12  2  0  0  0  0
 12 13  1  0  0  0  0
 13 14  3  0  0  0  0
 12 15  1  0  0  0  0
 15 16  3  0  0  0  0
  8 17  1  0  0  0  0
 17 18  1  0  0  0  0
 18 19  1  0  0  0  0
 19 20  2  0  0  0  0
 20 21  1  0  0  0  0
 21 22  1  0  0  0  0
 21 23  1  0  0  0  0
  1 24  1  0  0  0  0
 24 25  2  0  0  0  0
 25 26  1  0  0  0  0
 26 27  1  0  0  0  0
 25 28  1  0  0  0  0
 28 29  1  0  0  0  0
 29 30  1  0  0  0  0
 30 31  1  0  0  0  0
 31 32  2  0  0  0  0
 32 33  1  0  0  0  0
 33 34  1  0  0  0  0
 34 35  2  0  0  0  0
 35 36  1  0  0  0  0
 36 37  2  0  0  0  0
 33 38  2  0  0  0  0
 38 39  1  0  0  0  0
 39 40  1  0  0  0  0
 40 41  1  0  0  0  0
 41 42  1  0  0  0  0
 42 43  1  0  0  0  0
 43 44  1  0  0  0  0
 42 45  2  0  0  0  0
 45 46  1  0  0  0  0
 46 47  1  0  0  0  0
 47 48  1  0  0  0  0
 48 49  1  0  0  0  0
 49 50  1  0  0  0  0
 50 51  2  0  0  0  0
 51 52  1  0  0  0  0
 52 53  1  0  0  0  0
 53 54  1  0  0  0  0
 54 55  1  0  0  0  0
 52 56  1  0  0  0  0
 56 57  1  0  0  0  0
 49 58  1  0  0  0  0
 58 59  1  0  0  0  0
 45 60  1  0  0  0  0
 60 61  2  0  0  0  0
 61 62  1  0  0  0  0
 62 63  1  0  0  0  0
 63 64  2  0  0  0  0
 64 65  1  0  0  0  0
 65 66  3  0  0  0  0
 64 67  1  0  0  0  0
 67 68  3  0  0  0  0
 63 69  1  0  0  0  0
 69 70  1  0  0  0  0
 70 71  1  0  0  0  0
 71 72  2  0  0  0  0
 72 73  1  0  0  0  0
 73 74  2  0  0  0  0
 74 75  1  0  0  0  0
 75 76  2  0  0  0  0
 69 77  1  0  0  0  0
 77 78  2  0  0  0  0
 11  2  1  0  0  0  0
 23 17  1  0  0  0  0
 55 24  1  0  0  0  0
 77 61  1  0  0  0  0
 10  5  1  0  0  0  0
 22 18  1  0  0  0  0
 54 28  2  0  0  0  0
 76 71  1  0  0  0  0
 23  7  1  0  0  0  0
 53 30  2  0  0  0  0
 51 31  1  0  0  0  0
 37 32  1  0  0  0  0
 50 38  1  0  0  0  0
 48 39  2  0  0  0  0
 47 41  2  0  0  0  0
  1 79  1  0  0  0  0
  6 80  1  0  0  0  0
  9 81  1  0  0  0  0
 17 82  1  0  0  0  0
 18 83  1  0  0  0  0
 19 84  1  0  0  0  0
 20 85  1  0  0  0  0
 21 86  1  0  0  0  0
 22 87  1  0  0  0  0
 22 88  1  0  0  0  0
 23 89  1  0  0  0  0
 26 90  1  0  0  0  0
 26 91  1  0  0  0  0
 27 92  1  0  0  0  0
 27 93  1  0  0  0  0
 27 94  1  0  0  0  0
 35 95  1  0  0  0  0
 36 96  1  0  0  0  0
 43 97  1  0  0  0  0
 43 98  1  0  0  0  0
 44 99  1  0  0  0  0
 44100  1  0  0  0  0
 44101  1  0  0  0  0
 56102  1  0  0  0  0
 56103  1  0  0  0  0
 57104  1  0  0  0  0
 57105  1  0  0  0  0
 57106  1  0  0  0  0
 58107  1  0  0  0  0
 58108  1  0  0  0  0
 59109  1  0  0  0  0
 59110  1  0  0  0  0
 59111  1  0  0  0  0
 60112  1  0  0  0  0
 70113  1  0  0  0  0
 70114  1  0  0  0  0
 72115  1  0  0  0  0
 73116  1  0  0  0  0
 74117  1  0  0  0  0
 75118  1  0  0  0  0
 76119  1  0  0  0  0
M  END
