126

C          2.58620       -1.95670        5.36720
C          3.50940       -2.89600        4.98120
C          4.09390       -3.03440        3.64550
O          3.78600       -2.42790        2.63170
C          5.15070       -4.05350        3.76030
C          5.99830       -4.50110        2.74930
C          6.88870       -5.46650        3.15370
C          6.93290       -5.95190        4.46720
C          6.09920       -5.52220        5.47270
C          5.18470       -4.53920        5.08320
C          4.14180       -3.86270        5.85410
C          3.79990       -4.14760        7.15200
C          2.72360       -3.57860        7.86470
N          1.86000       -3.19090        8.51630
C          4.46390       -5.09100        7.96290
N          4.96210       -5.83240        8.68470
C          8.06850       -6.89780        4.16490
C          9.47210       -6.46720        4.64060
C         10.41040       -7.31050        3.80780
C         10.36820       -6.85190        2.56340
C          9.40070       -5.69060        2.53420
C          9.63790       -5.11440        3.93610
C          8.01860       -6.35730        2.69970
C          1.88520       -1.01220        4.60970
C          0.98850       -0.09430        5.18950
C          0.84600        0.10720        6.62910
C         -0.41940        0.12390        7.21090
C         -0.54370        0.28620        8.57640
C          0.58070        0.44830        9.36770
C          1.84870        0.46780        8.80170
C          3.07640        0.63930        9.64970
C          3.81600       -0.68940        9.81320
C          1.96890        0.29390        7.43130
C          0.26560        0.59490        4.21950
S         -0.98200        1.82230        4.31650
C         -1.03990        1.85400        2.58760
C         -1.79030        2.44870        1.56430
C         -2.94450        3.26340        1.60560
C         -3.64510        3.53720        0.38280
N         -4.75050        4.23770        0.58000
S         -4.89390        4.53640        2.16470
N         -3.55290        3.77740        2.66230
C         -3.08690        3.09870       -0.83880
C         -3.49420        3.28040       -2.16890
S         -4.81640        3.95550       -3.05760
C         -4.01200        3.49840       -4.54770
C         -4.34190        3.66080       -5.89270
C         -5.55230        4.34000       -6.34630
C         -5.51220        5.29590       -7.36050
C         -6.67170        5.94520       -7.73920
C         -7.87250        5.65770       -7.11350
C         -7.92990        4.71490       -6.09440
C         -9.21060        4.43970       -5.36160
C         -9.26780        5.26670       -4.07540
C         -6.76460        4.06540       -5.71900
C         -3.35610        3.11110       -6.73240
S         -1.99610        2.45250       -5.82360
C         -2.77520        2.86500       -4.34360
C         -2.49210        2.73820       -2.98080
N         -1.48860        2.21230       -2.20720
C         -1.84730        2.39710       -0.88360
C         -1.27200        1.95060        0.33330
N         -0.27090        1.04400        0.61440
C         -0.12850        0.98370        1.97510
C          0.61540        0.24890        2.90330
S          1.86380       -0.94090        2.85180
C          0.32880        0.02870       -0.22280
C          1.82160        0.27280       -0.44810
C         -0.16760        2.10490       -2.79060
C          0.41570        3.48810       -3.07810
C         -3.48720        2.99460       -8.11980
C         -2.61750        2.48960       -9.05090
C         -1.27780        1.95050       -8.86850
O         -0.64830        1.82570       -7.83270
C         -0.80790        1.56220      -10.22490
C          0.39370        0.99920      -10.60420
C          0.59060        0.71910      -11.95260
Cl         2.07520        0.01690      -12.46050
C         -0.40330        1.00120      -12.89470
Cl        -0.13400        0.64220      -14.55390
C         -1.61260        1.57010      -12.50590
C         -1.80280        1.84600      -11.16750
C         -2.97940        2.44270      -10.47710
O         -4.01410        2.81470      -10.98550
H          2.33790       -1.92430        6.42130
H          5.92640       -4.10330        1.74910
H          6.14440       -5.90930        6.47670
H          7.86550       -7.95280        4.33850
H          9.61550       -6.49310        5.71730
H         10.94740       -8.16090        4.18500
H         10.86290       -7.24260        1.69360
H          9.48020       -5.00870        1.69180
H         10.64270       -4.71120        4.05080
H          8.90820       -4.36500        4.23720
H          7.78210       -7.05250        1.89630
H         -1.29380       -0.01610        6.59360
H         -1.52410        0.28220        9.02860
H          0.47260        0.56870       10.43570
H          3.74540        1.36860        9.18570
H          2.79240        1.01620       10.63350
H          4.18250       -1.04370        8.85190
H          3.14850       -1.44560       10.21910
H          4.66450       -0.57290       10.48350
H          2.94770        0.33230        6.97270
H         -4.57120        5.55110       -7.82480
H         -6.63700        6.68530       -8.52470
H         -8.77290        6.17270       -7.41540
H        -10.06390        4.69150       -5.99400
H         -9.27180        3.37920       -5.10930
H         -9.22640        6.32870       -4.30720
H         -8.42500        5.02450       -3.43190
H        -10.18910        5.06490       -3.53440
H         -6.80000        3.31930       -4.93870
H         -0.22570       -0.02680       -1.16050
H          0.21040       -0.93300        0.28850
H          2.01990        1.30000       -0.74690
H          2.37490        0.07600        0.46580
H          2.19080       -0.39770       -1.21890
H         -0.26140        1.54360       -3.72480
H          0.49800        1.57660       -2.11970
H          1.40920        3.38220       -3.50430
H          0.48640        4.06770       -2.15960
H         -0.20560        4.03010       -3.78580
H         -4.43290        3.34080       -8.52730
H          1.16030        0.78090       -9.87740
H         -2.37930        1.78750      -13.23270
