143

C         -7.12530       -3.25780        0.23900
C         -6.99340       -3.85370        1.46900
C         -5.89150       -3.65370        2.41170
O         -4.89790       -2.96030        2.25920
C         -6.20920       -4.46240        3.60030
C         -5.44720       -4.58490        4.76010
C         -5.99510       -5.42100        5.70300
C         -7.21040       -6.08880        5.50460
C         -7.97010       -5.97890        4.36390
C         -7.43290       -5.12990        3.39180
C         -7.93970       -4.77310        2.06620
C         -9.09950       -5.24980        1.50880
C         -9.98540       -6.14040        2.15050
N        -10.75820       -6.85700        2.60700
C         -9.59410       -4.94690        0.22270
N        -10.08000       -4.77100       -0.80410
C         -7.15850       -6.75420        6.85730
C         -8.06180       -6.15540        7.95600
C         -7.45880       -6.67430        9.24140
C         -6.30730       -6.04280        9.43060
C         -6.11260       -5.08620        8.27620
C         -7.57250       -4.70210        8.00290
C         -5.80280       -6.00960        7.07900
C         -6.27100       -2.38950       -0.44830
C         -6.58180       -1.88310       -1.72530
C         -7.87950       -2.03360       -2.37880
C         -9.05970       -1.74380       -1.69590
C        -10.27710       -1.89080       -2.33120
C        -10.33010       -2.32470       -3.64360
C         -9.16330       -2.59860       -4.34690
C         -9.22080       -3.11020       -5.75700
C         -9.28360       -4.63890       -5.76050
C         -7.94380       -2.44470       -3.70700
C         -5.50390       -1.19770       -2.27980
S         -5.27790       -0.38400       -3.81630
C         -3.68330        0.05710       -3.30980
C         -2.55910        0.72760       -3.80840
C         -2.29900        1.26550       -5.08830
C         -0.99580        1.79370       -5.36410
N         -0.87170        2.21020       -6.61410
S         -2.27840        1.96350       -7.37790
N         -3.09830        1.31330       -6.14200
C         -0.05230        1.86130       -4.31510
C          1.22380        2.43680       -4.27020
S          2.34260        3.22670       -5.32720
C          3.42090        3.45120       -3.96290
C          4.65610        4.08200       -3.83260
C          5.34800        4.73800       -4.93890
C          5.87080        6.02310       -4.80600
C          6.51470        6.61820       -5.87350
C          6.63600        5.94780       -7.07740
C          6.10360        4.67380       -7.23500
C          6.17170        3.96980       -8.55890
C          4.93770        4.30830       -9.39830
C          5.45830        4.08150       -6.16180
C          5.12960        4.02280       -2.50780
S          3.98600        3.22450       -1.43090
C          2.92160        2.93200       -2.75780
C          1.66520        2.34620       -2.94530
N          0.72520        1.70880       -2.18110
C         -0.34360        1.38960       -3.00030
C         -1.57360        0.71390       -2.77640
N         -2.08660        0.01180       -1.69980
C         -3.35440       -0.38930       -2.02470
C         -4.38770       -1.12120       -1.43080
S         -4.65330       -1.92610        0.07300
C         -1.41640       -0.59790       -0.57270
C         -0.32340       -1.56170       -1.02740
C          0.80890        1.79320       -0.73970
C         -0.25060        2.73450       -0.17280
C          6.40670        4.46410       -2.14540
C          7.01210        4.53130       -0.91480
C          6.40230        4.17490        0.36750
O          5.29370        3.70020        0.55910
C          7.39480        4.49980        1.40500
C          7.24600        4.35430        2.78250
C          8.34490        4.74810        3.50740
C          9.50510        5.25260        2.90610
C          9.66370        5.40210        1.54850
C          8.55850        5.00390        0.79030
C          8.35280        5.01670       -0.65850
C          9.28380        5.41270       -1.58550
C          9.11510        5.41990       -2.98620
N          9.07760        5.46350       -4.13410
C         10.57920        5.87200       -1.26820
N         11.64710        6.25520       -1.08920
C         10.20360        5.44560        4.22940
C         11.27010        4.39580        4.60610
C         11.42080        4.55370        6.10200
C         10.32240        4.07410        6.67120
C          9.41070        3.58370        5.56950
C         10.45670        3.09580        4.55890
C          8.91010        4.88110        4.89980
H         -8.02260       -3.49600       -0.31880
H         -4.51290       -4.05600        4.86730
H         -8.89970       -6.50520        4.22820
H         -7.16040       -7.84250        6.85100
H         -9.12560       -6.32220        7.81130
H         -7.89040       -7.46130        9.83160
H         -5.58470       -6.19700       10.21050
H         -5.40110       -4.27830        8.42520
H         -8.01340       -4.14600        8.82860
H         -7.72080       -4.15380        7.07440
H         -4.90060       -6.60210        7.22040
H         -9.01660       -1.37850       -0.67980
H        -11.18910       -1.66880       -1.79820
H        -11.28650       -2.44750       -4.13030
H         -8.33680       -2.78190       -6.30720
H        -10.10480       -2.71210       -6.25890
H         -8.39830       -5.05480       -5.28500
H         -9.34140       -5.01560       -6.77910
H        -10.15690       -4.98200       -5.21070
H         -7.02890       -2.66760       -4.23700
H          5.74660        6.56190       -3.87760
H          6.92470        7.61070       -5.76450
H          7.14730        6.41760       -7.90470
H          6.21570        2.89020       -8.40340
H          7.07100        4.27590       -9.09630
H          4.88440        5.37980       -9.57730
H          4.03200        4.00300       -8.87880
H          4.97830        3.79760      -10.35750
H          5.05450        3.08460       -6.26500
H         -1.02640        0.16440        0.10190
H         -2.17910       -1.15330       -0.02180
H         -0.75980       -2.36550       -1.61570
H          0.16940       -1.99600       -0.16190
H          0.41990       -1.05760       -1.64090
H          1.80080        2.18920       -0.50910
H          0.74810        0.80130       -0.29190
H         -0.17060        2.77100        0.91010
H         -1.25360        2.41150       -0.44230
H         -0.10100        3.73820       -0.56390
H          6.99220        4.80300       -2.99110
H          6.33140        3.96620        3.20280
H         10.56170        5.79800        1.10520
H         10.50850        6.46450        4.46070
H         12.18050        4.43970        4.01480
H         12.25870        5.03310        6.57330
H         10.05920        4.07290        7.71280
H          8.62730        2.88700        5.85630
H         11.02190        2.24290        4.93120
H         10.05020        2.86230        3.57660
H          8.35330        5.52350        5.57970
