
  xtb     02022212333D
 energy: -197.693272271045 gnorm: 0.000465912490 xtb: 6.4.1 (unknown)
113127  0     0  0            999 V2000
   -0.5228   -4.7706    4.3911 C   0  0  0  0  0  0  0  0  0  0  0  0
   -1.2960   -4.8919    5.5094 C   0  0  0  0  0  0  0  0  0  0  0  0
   -2.0288   -3.7699    6.1456 C   0  0  0  0  0  0  0  0  0  0  0  0
   -1.9247   -2.5845    5.9093 O   0  0  0  0  0  0  0  0  0  0  0  0
   -3.0087   -4.4022    7.0488 C   0  0  0  0  0  0  0  0  0  0  0  0
   -3.9648   -3.7505    7.8241 C   0  0  0  0  0  0  0  0  0  0  0  0
   -4.7632   -4.5961    8.5559 C   0  0  0  0  0  0  0  0  0  0  0  0
   -4.6243   -5.9903    8.5188 C   0  0  0  0  0  0  0  0  0  0  0  0
   -3.6851   -6.6466    7.7596 C   0  0  0  0  0  0  0  0  0  0  0  0
   -2.8627   -5.8037    7.0064 C   0  0  0  0  0  0  0  0  0  0  0  0
   -1.7769   -6.1299    6.0885 C   0  0  0  0  0  0  0  0  0  0  0  0
   -1.2408   -7.3726    5.8730 C   0  0  0  0  0  0  0  0  0  0  0  0
   -0.1177   -7.6204    5.0558 C   0  0  0  0  0  0  0  0  0  0  0  0
    0.8056   -7.8875    4.4272 N   0  0  0  0  0  0  0  0  0  0  0  0
   -1.7131   -8.5605    6.4675 C   0  0  0  0  0  0  0  0  0  0  0  0
   -2.0544   -9.5621    6.9133 N   0  0  0  0  0  0  0  0  0  0  0  0
   -5.7672   -6.2093    9.4778 C   0  0  0  0  0  0  0  0  0  0  0  0
   -7.1228   -6.6717    8.8884 C   0  0  0  0  0  0  0  0  0  0  0  0
   -7.1652   -6.1731    7.4652 C   0  0  0  0  0  0  0  0  0  0  0  0
   -7.2958   -4.8538    7.5019 C   0  0  0  0  0  0  0  0  0  0  0  0
   -7.3440   -4.4362    8.9510 C   0  0  0  0  0  0  0  0  0  0  0  0
   -8.0584   -5.6534    9.5597 C   0  0  0  0  0  0  0  0  0  0  0  0
   -5.9205   -4.6562    9.5209 C   0  0  0  0  0  0  0  0  0  0  0  0
    0.0339   -3.5680    3.8960 C   0  0  0  0  0  0  0  0  0  0  0  0
    0.5950   -2.4875    4.5612 C   0  0  0  0  0  0  0  0  0  0  0  0
    0.8718   -2.4413    6.0262 C   0  0  0  0  0  0  0  0  0  0  0  0
    2.3392   -2.1381    6.3252 C   0  0  0  0  0  0  0  0  0  0  0  0
    0.9870   -1.4888    3.6551 C   0  0  0  0  0  0  0  0  0  0  0  0
    1.6661    0.1096    3.8688 S   0  0  0  0  0  0  0  0  0  0  0  0
    1.5984    0.3481    2.1610 C   0  0  0  0  0  0  0  0  0  0  0  0
    1.9294    1.3280    1.2106 C   0  0  0  0  0  0  0  0  0  0  0  0
    2.5841    2.5738    1.3912 C   0  0  0  0  0  0  0  0  0  0  0  0
    2.8985    3.3341    0.2373 C   0  0  0  0  0  0  0  0  0  0  0  0
    3.5711    4.4869    0.3306 N   0  0  0  0  0  0  0  0  0  0  0  0
    3.9099    4.8779    1.5398 C   0  0  0  0  0  0  0  0  0  0  0  0
    3.5818    4.1369    2.6816 C   0  0  0  0  0  0  0  0  0  0  0  0
    2.9297    2.9970    2.6124 N   0  0  0  0  0  0  0  0  0  0  0  0
    2.4310    2.8629   -1.0164 C   0  0  0  0  0  0  0  0  0  0  0  0
    2.4643    3.4885   -2.2718 C   0  0  0  0  0  0  0  0  0  0  0  0
    3.0602    4.9393   -2.9892 S   0  0  0  0  0  0  0  0  0  0  0  0
    2.3081    4.4827   -4.5037 C   0  0  0  0  0  0  0  0  0  0  0  0
    2.2762    5.0786   -5.7710 C   0  0  0  0  0  0  0  0  0  0  0  0
    2.7968    6.4415   -6.0778 C   0  0  0  0  0  0  0  0  0  0  0  0
    2.4115    7.4767   -5.0233 C   0  0  0  0  0  0  0  0  0  0  0  0
    1.5759    4.2836   -6.6776 C   0  0  0  0  0  0  0  0  0  0  0  0
    0.8895    2.8440   -5.9196 S   0  0  0  0  0  0  0  0  0  0  0  0
    1.6304    3.2544   -4.4220 C   0  0  0  0  0  0  0  0  0  0  0  0
    1.7294    2.6855   -3.1509 C   0  0  0  0  0  0  0  0  0  0  0  0
    1.2659    1.5768   -2.4916 N   0  0  0  0  0  0  0  0  0  0  0  0
    1.7013    1.6512   -1.1843 C   0  0  0  0  0  0  0  0  0  0  0  0
    1.5553    0.8061   -0.0588 C   0  0  0  0  0  0  0  0  0  0  0  0
    1.0502   -0.4738    0.1144 N   0  0  0  0  0  0  0  0  0  0  0  0
    1.0858   -0.7459    1.4593 C   0  0  0  0  0  0  0  0  0  0  0  0
    0.7442   -1.8012    2.3107 C   0  0  0  0  0  0  0  0  0  0  0  0
    0.0753   -3.3792    2.1425 S   0  0  0  0  0  0  0  0  0  0  0  0
    1.0500   -1.5871   -0.8109 C   0  0  0  0  0  0  0  0  0  0  0  0
    2.4769   -2.0147   -1.1477 C   0  0  0  0  0  0  0  0  0  0  0  0
    0.2468    0.7522   -3.0988 C   0  0  0  0  0  0  0  0  0  0  0  0
    0.8342   -0.2610   -4.0796 C   0  0  0  0  0  0  0  0  0  0  0  0
    1.2796    4.4677   -8.0401 C   0  0  0  0  0  0  0  0  0  0  0  0
    2.0756    5.0655   -8.9841 C   0  0  0  0  0  0  0  0  0  0  0  0
    3.5434    5.2039   -8.8758 C   0  0  0  0  0  0  0  0  0  0  0  0
    4.2512    4.9452   -7.9244 O   0  0  0  0  0  0  0  0  0  0  0  0
    3.9978    5.6067  -10.2242 C   0  0  0  0  0  0  0  0  0  0  0  0
    5.2839    5.8457  -10.6668 C   0  0  0  0  0  0  0  0  0  0  0  0
    5.4720    6.2066  -11.9926 C   0  0  0  0  0  0  0  0  0  0  0  0
    4.3787    6.3105  -12.8397 C   0  0  0  0  0  0  0  0  0  0  0  0
    4.6957    6.8529  -14.8567 I   0  0  0  0  0  0  0  0  0  0  0  0
    3.0803    6.0681  -12.4114 C   0  0  0  0  0  0  0  0  0  0  0  0
    2.8931    5.7136  -11.0858 C   0  0  0  0  0  0  0  0  0  0  0  0
    1.6786    5.4032  -10.3325 C   0  0  0  0  0  0  0  0  0  0  0  0
    0.3940    5.5052  -10.7994 C   0  0  0  0  0  0  0  0  0  0  0  0
   -0.7587    5.3048  -10.0107 C   0  0  0  0  0  0  0  0  0  0  0  0
   -1.7353    5.1810   -9.4196 N   0  0  0  0  0  0  0  0  0  0  0  0
    0.0582    5.8567  -12.1230 C   0  0  0  0  0  0  0  0  0  0  0  0
   -0.2703    6.1300  -13.1884 N   0  0  0  0  0  0  0  0  0  0  0  0
   -0.3719   -5.6446    3.7674 H   0  0  0  0  0  0  0  0  0  0  0  0
   -4.0386   -2.6743    7.8224 H   0  0  0  0  0  0  0  0  0  0  0  0
   -3.5932   -7.7197    7.7353 H   0  0  0  0  0  0  0  0  0  0  0  0
   -5.5207   -6.7239   10.4043 H   0  0  0  0  0  0  0  0  0  0  0  0
   -7.3418   -7.7260    9.0342 H   0  0  0  0  0  0  0  0  0  0  0  0
   -7.0422   -6.8052    6.6052 H   0  0  0  0  0  0  0  0  0  0  0  0
   -7.3034   -4.1634    6.6788 H   0  0  0  0  0  0  0  0  0  0  0  0
   -7.7651   -3.4551    9.1542 H   0  0  0  0  0  0  0  0  0  0  0  0
   -8.0197   -5.6801   10.6478 H   0  0  0  0  0  0  0  0  0  0  0  0
   -9.0907   -5.7461    9.2258 H   0  0  0  0  0  0  0  0  0  0  0  0
   -5.7737   -4.1556   10.4759 H   0  0  0  0  0  0  0  0  0  0  0  0
    0.2351   -1.6744    6.4748 H   0  0  0  0  0  0  0  0  0  0  0  0
    0.6034   -3.3997    6.4734 H   0  0  0  0  0  0  0  0  0  0  0  0
    2.5081   -2.1796    7.3982 H   0  0  0  0  0  0  0  0  0  0  0  0
    2.6168   -1.1489    5.9729 H   0  0  0  0  0  0  0  0  0  0  0  0
    2.9831   -2.8729    5.8465 H   0  0  0  0  0  0  0  0  0  0  0  0
    4.4559    5.8087    1.6066 H   0  0  0  0  0  0  0  0  0  0  0  0
    3.8558    4.4726    3.6721 H   0  0  0  0  0  0  0  0  0  0  0  0
    2.4121    6.7566   -7.0499 H   0  0  0  0  0  0  0  0  0  0  0  0
    3.8863    6.3843   -6.1600 H   0  0  0  0  0  0  0  0  0  0  0  0
    2.8933    7.2715   -4.0720 H   0  0  0  0  0  0  0  0  0  0  0  0
    1.3339    7.4856   -4.8741 H   0  0  0  0  0  0  0  0  0  0  0  0
    2.7209    8.4642   -5.3562 H   0  0  0  0  0  0  0  0  0  0  0  0
    0.5040   -1.3465   -1.7183 H   0  0  0  0  0  0  0  0  0  0  0  0
    0.5271   -2.4078   -0.3139 H   0  0  0  0  0  0  0  0  0  0  0  0
    3.0036   -2.3129   -0.2442 H   0  0  0  0  0  0  0  0  0  0  0  0
    3.0243   -1.1942   -1.6075 H   0  0  0  0  0  0  0  0  0  0  0  0
    2.4605   -2.8579   -1.8327 H   0  0  0  0  0  0  0  0  0  0  0  0
   -0.3367    0.2754   -2.3102 H   0  0  0  0  0  0  0  0  0  0  0  0
   -0.4286    1.4171   -3.6488 H   0  0  0  0  0  0  0  0  0  0  0  0
    0.0450   -0.9013   -4.4639 H   0  0  0  0  0  0  0  0  0  0  0  0
    1.2909    0.2583   -4.9179 H   0  0  0  0  0  0  0  0  0  0  0  0
    1.5935   -0.8788   -3.6086 H   0  0  0  0  0  0  0  0  0  0  0  0
    0.3475    4.0236   -8.3715 H   0  0  0  0  0  0  0  0  0  0  0  0
    6.1181    5.7546   -9.9887 H   0  0  0  0  0  0  0  0  0  0  0  0
    6.4652    6.4048  -12.3646 H   0  0  0  0  0  0  0  0  0  0  0  0
    2.2545    6.1505  -13.0989 H   0  0  0  0  0  0  0  0  0  0  0  0
  1  2  2  0  0  0  0
  2  3  1  0  0  0  0
  3  4  2  0  0  0  0
  3  5  1  0  0  0  0
  5  6  2  0  0  0  0
  6  7  1  0  0  0  0
  7  8  2  0  0  0  0
  8  9  1  0  0  0  0
  9 10  2  0  0  0  0
 10 11  1  0  0  0  0
 11 12  2  0  0  0  0
 12 13  1  0  0  0  0
 13 14  3  0  0  0  0
 12 15  1  0  0  0  0
 15 16  3  0  0  0  0
  8 17  1  0  0  0  0
 17 18  1  0  0  0  0
 18 19  1  0  0  0  0
 19 20  2  0  0  0  0
 20 21  1  0  0  0  0
 21 22  1  0  0  0  0
 21 23  1  0  0  0  0
  1 24  1  0  0  0  0
 24 25  2  0  0  0  0
 25 26  1  0  0  0  0
 26 27  1  0  0  0  0
 25 28  1  0  0  0  0
 28 29  1  0  0  0  0
 29 30  1  0  0  0  0
 30 31  1  0  0  0  0
 31 32  2  0  0  0  0
 32 33  1  0  0  0  0
 33 34  1  0  0  0  0
 34 35  2  0  0  0  0
 35 36  1  0  0  0  0
 36 37  2  0  0  0  0
 33 38  2  0  0  0  0
 38 39  1  0  0  0  0
 39 40  1  0  0  0  0
 40 41  1  0  0  0  0
 41 42  1  0  0  0  0
 42 43  1  0  0  0  0
 43 44  1  0  0  0  0
 42 45  2  0  0  0  0
 45 46  1  0  0  0  0
 46 47  1  0  0  0  0
 47 48  1  0  0  0  0
 48 49  1  0  0  0  0
 49 50  1  0  0  0  0
 50 51  2  0  0  0  0
 51 52  1  0  0  0  0
 52 53  1  0  0  0  0
 53 54  1  0  0  0  0
 54 55  1  0  0  0  0
 52 56  1  0  0  0  0
 56 57  1  0  0  0  0
 49 58  1  0  0  0  0
 58 59  1  0  0  0  0
 45 60  1  0  0  0  0
 60 61  2  0  0  0  0
 61 62  1  0  0  0  0
 62 63  2  0  0  0  0
 62 64  1  0  0  0  0
 64 65  2  0  0  0  0
 65 66  1  0  0  0  0
 66 67  2  0  0  0  0
 67 68  1  0  0  0  0
 67 69  1  0  0  0  0
 69 70  2  0  0  0  0
 70 71  1  0  0  0  0
 71 72  2  0  0  0  0
 72 73  1  0  0  0  0
 73 74  3  0  0  0  0
 72 75  1  0  0  0  0
 75 76  3  0  0  0  0
 11  2  1  0  0  0  0
 23 17  1  0  0  0  0
 55 24  1  0  0  0  0
 71 61  1  0  0  0  0
 10  5  1  0  0  0  0
 22 18  1  0  0  0  0
 54 28  2  0  0  0  0
 70 64  1  0  0  0  0
 23  7  1  0  0  0  0
 53 30  2  0  0  0  0
 51 31  1  0  0  0  0
 37 32  1  0  0  0  0
 50 38  1  0  0  0  0
 48 39  2  0  0  0  0
 47 41  2  0  0  0  0
  1 77  1  0  0  0  0
  6 78  1  0  0  0  0
  9 79  1  0  0  0  0
 17 80  1  0  0  0  0
 18 81  1  0  0  0  0
 19 82  1  0  0  0  0
 20 83  1  0  0  0  0
 21 84  1  0  0  0  0
 22 85  1  0  0  0  0
 22 86  1  0  0  0  0
 23 87  1  0  0  0  0
 26 88  1  0  0  0  0
 26 89  1  0  0  0  0
 27 90  1  0  0  0  0
 27 91  1  0  0  0  0
 27 92  1  0  0  0  0
 35 93  1  0  0  0  0
 36 94  1  0  0  0  0
 43 95  1  0  0  0  0
 43 96  1  0  0  0  0
 44 97  1  0  0  0  0
 44 98  1  0  0  0  0
 44 99  1  0  0  0  0
 56100  1  0  0  0  0
 56101  1  0  0  0  0
 57102  1  0  0  0  0
 57103  1  0  0  0  0
 57104  1  0  0  0  0
 58105  1  0  0  0  0
 58106  1  0  0  0  0
 59107  1  0  0  0  0
 59108  1  0  0  0  0
 59109  1  0  0  0  0
 60110  1  0  0  0  0
 65111  1  0  0  0  0
 66112  1  0  0  0  0
 69113  1  0  0  0  0
M  END
