116

C          0.99910        6.35250        3.41070
C          0.04290        7.32490        3.34680
C         -1.03980        7.36800        2.33420
O         -1.14040        6.70480        1.32320
C         -2.04420        8.30500        2.87300
C         -3.27430        8.62330        2.30250
C         -4.02030        9.51160        3.03920
C         -3.57780       10.04540        4.25730
C         -2.36650        9.74120        4.83130
C         -1.59270        8.83720        4.09790
C         -0.27740        8.27800        4.38970
C          0.55360        8.64570        5.41560
C          0.22640        9.59060        6.40920
N          0.01550       10.34370        7.24980
C          1.86450        8.15260        5.58600
N          2.94670        7.81230        5.76470
C         -4.83840       10.84930        4.45420
C         -5.88460       10.31460        5.46340
C         -5.69890        8.81870        5.52210
C         -6.11720        8.31320        4.36940
C         -6.59330        9.45830        3.51020
C         -7.14930       10.39630        4.59350
C         -5.33090       10.25530        3.09700
C          1.37400        5.48850        2.35520
C          1.52730        5.72940        0.99720
C          1.46970        7.07670        0.35990
C          2.73790        7.39060       -0.43270
C          1.86730        4.55070        0.31440
S          2.09450        4.18050       -1.38030
C          2.30610        2.51570       -0.97530
C          2.52400        1.28300       -1.61900
C          2.79820        0.96080       -2.97480
C          3.06550       -0.39680       -3.30550
N          3.41020       -0.74630       -4.54970
C          3.46860        0.21500       -5.44530
C          3.17420        1.54590       -5.12720
N          2.84770        1.91720       -3.90870
C          2.89390       -1.38190       -2.29660
C          2.89530       -2.78760       -2.36130
S          3.18210       -4.04150       -3.51160
C          2.72780       -5.23180       -2.31090
C          2.57670       -6.62510       -2.35450
C          2.97920       -7.47980       -3.50820
C          4.37320       -7.13880       -4.03080
C          2.11190       -7.11270       -1.13690
S          1.95120       -5.84530        0.08250
C          2.39360       -4.65320       -1.07690
C          2.48930       -3.26090       -1.10750
N          2.26380       -2.20740       -0.25310
C          2.52800       -1.05360       -0.96610
C          2.50610        0.30300       -0.59370
N          2.36890        0.91370        0.63740
C          2.22820        2.25990        0.39930
C          1.98540        3.42170        1.13620
S          1.73880        3.81820        2.79360
C          2.89320        0.42790        1.89840
C          4.22150        1.10010        2.24390
C          1.31980       -2.35330        0.83700
C         -0.07440       -2.70130        0.31610
C          1.79770       -8.42490       -0.72710
C          1.20000       -9.39020       -1.49220
C          0.38530       -9.11310       -2.69710
O          0.25000       -8.05860       -3.28140
C         -0.33920      -10.37130       -2.97390
C         -1.26090      -10.62580       -3.97010
C         -1.84800      -11.88360       -4.05320
C         -2.84910      -12.23060       -5.10570
C         -1.47050      -12.83560       -3.10400
F         -2.03950      -14.05380       -3.17310
C         -0.55110      -12.60590       -2.09340
C          0.02400      -11.34680       -2.03040
C          1.00650      -10.77450       -1.11600
C          1.68930      -11.44850       -0.13770
C          2.71570      -10.88230        0.64720
N          3.57530      -10.48970        1.29940
C          1.47560      -12.80540        0.18040
N          1.33540      -13.90340        0.48360
H          1.46780        6.14950        4.36710
H         -3.57740        8.18920        1.36250
H         -2.04060       10.15340        5.77190
H         -4.71000       11.92770        4.52240
H         -5.89790       10.83450        6.41750
H         -5.24390        8.30380        6.34790
H         -6.08110        7.29140        4.03960
H         -7.25290        9.19830        2.68640
H         -7.36220       11.40080        4.23030
H         -8.02910        9.99060        5.09070
H         -5.52570       10.94590        2.27880
H          0.60060        7.10960       -0.30220
H          1.32900        7.83470        1.13190
H          2.68080        8.40230       -0.82610
H          2.86020        6.70520       -1.26650
H          3.61340        7.31930        0.20930
H          3.75340       -0.07950       -6.44590
H          3.20890        2.32800       -5.87300
H          2.24240       -7.35070       -4.30620
H          2.95300       -8.52730       -3.20230
H          4.65360       -7.84760       -4.80570
H          4.40190       -6.13950       -4.45530
H          5.10510       -7.19840       -3.22800
H          2.16150        0.62700        2.68840
H          3.06460       -0.64460        1.81660
H          4.94150        0.94340        1.44350
H          4.61710        0.66890        3.15920
H          4.09280        2.16780        2.39540
H          1.25650       -1.41930        1.39030
H          1.68040       -3.14660        1.49890
H         -0.76630       -2.77390        1.15030
H         -0.06920       -3.65100       -0.21140
H         -0.42480       -1.92690       -0.36310
H          1.98720       -8.64330        0.31790
H         -1.51670       -9.84970       -4.67540
H         -3.03830      -11.38070       -5.75460
H         -2.48940      -13.06570       -5.70600
H         -3.78520      -12.54390       -4.64460
H         -0.32100      -13.39480       -1.39640
