168

C         -2.43480        5.49270       -5.70540
C         -2.24310        5.43380       -7.06030
C         -1.43450        4.43910       -7.77720
O         -0.71690        3.57740       -7.29920
C         -1.66540        4.67510       -9.21180
C         -1.14510        3.94100      -10.27580
C         -1.54920        4.38460      -11.51160
C         -2.41150        5.47670      -11.67730
C         -2.93180        6.20900      -10.63670
C         -2.52910        5.77750       -9.36890
C         -2.87180        6.29450       -8.04490
C         -3.62380        7.41530       -7.80420
C         -3.92650        7.94900       -6.53390
N         -4.21380        8.45550       -5.54340
C         -4.19380        8.22640       -8.80810
N         -4.68790        8.93530       -9.56430
C         -2.39560        5.36380      -13.18130
C         -1.51800        6.38180      -13.93970
C         -1.31800        5.74580      -15.29640
C         -0.50120        4.71180      -15.14080
C         -0.13520        4.63150      -13.67620
C         -0.13770        6.12410      -13.32150
C         -1.43350        4.14650      -12.99680
C         -1.90280        4.70080       -4.67520
C         -2.30030        4.85980       -3.34620
C         -1.67230        3.96630       -2.50040
S         -1.77960        3.63670       -0.79030
C         -0.61660        2.36870       -0.98730
C         -0.02760        1.38820       -0.12970
C         -0.20210        1.13710        1.22890
C          0.48240        0.07180        1.76450
C          0.44130       -0.44880        3.19110
C          1.15240        0.45710        4.18330
C          1.05510        0.17370        5.54280
C          1.73230        0.93580        6.46910
C          2.52400        2.00570        6.05710
S          3.31210        2.93690        7.33570
C          4.66210        3.83290        6.49150
C          5.73960        2.89750        5.97790
C          2.62120        2.29520        4.70440
C          1.94840        1.51710        3.77800
C         -0.98730       -0.72060        3.61840
C         -1.56860       -1.97280        3.45450
C         -2.87380       -2.19570        3.84180
C         -3.63260       -1.16780        4.39470
S         -5.27620       -1.57770        4.88680
C         -6.13830        0.03320        4.97730
C         -6.27570        0.68930        3.61690
C         -3.05800        0.08630        4.55600
C         -1.75060        0.30280        4.16490
C          1.27670       -1.69190        3.05750
C          1.81220       -1.79050        1.78550
C          1.32920       -0.72740        0.95920
C          1.52000       -0.46360       -0.39400
C          0.82440        0.59350       -0.93280
C          0.82420        1.08120       -2.37170
C          0.28060        0.08370       -3.37680
C          0.43820        0.34750       -4.73170
C         -0.09900       -0.49150       -5.68820
C         -0.79710       -1.62640       -5.29860
S         -1.54590       -2.76880       -6.42040
C         -0.72360       -2.45040       -8.02040
C          0.73730       -2.85770       -8.00630
C         -0.96630       -1.89000       -3.94240
C         -0.44290       -1.03740       -2.99140
C          2.23210        1.52240       -2.72510
C          3.15210        0.59300       -3.19180
C          4.45270        0.95990       -3.48190
C          4.86070        2.27300       -3.29280
S          6.48330        2.87430       -3.65460
C          7.53830        1.38270       -3.65610
C          7.65200        0.75850       -2.27870
C          3.94400        3.20880       -2.82320
C          2.64600        2.83610       -2.54180
C         -0.15580        2.22020       -2.28400
C         -0.76020        3.11730       -3.16230
S         -0.71000        3.41960       -4.85510
S          2.78560       -3.20070        1.54080
C          2.43660       -3.70520        3.16780
C          2.71780       -4.85410        3.90440
C          2.07480       -4.85480        5.12480
S          1.20890       -3.34940        5.41800
C          1.62710       -2.78100        3.84880
C          2.06580       -5.90960        6.07450
C          1.09390       -6.20710        6.97300
C          1.39060       -7.08400        8.14010
O          2.36860       -7.78100        8.28850
C          0.27350       -6.87140        9.07920
C          0.14750       -7.38160       10.37070
C         -1.00330       -6.99690       11.01540
C         -1.95510       -6.14930       10.43070
C         -1.84780       -5.64020        9.15890
C         -0.69370       -6.03740        8.47810
C         -0.27850       -5.75580        7.10730
C         -1.12310       -5.41140        6.08580
C         -0.76500       -5.43850        4.72160
N         -0.54720       -5.50010        3.59570
C         -2.48640       -5.09390        6.25890
N         -3.59880       -4.82260        6.33720
C         -2.84750       -6.18070       11.64570
C         -4.10230       -7.07430       11.54950
C         -4.50310       -7.29170       12.99060
C         -3.60660       -8.10050       13.54110
C         -2.58460       -8.44340       12.48110
C         -3.48430       -8.44370       11.23840
C         -1.79140       -7.13200       12.29470
H         -3.12340        6.24630       -5.34240
H         -0.48890        3.10260      -10.10150
H         -3.60040        7.04040      -10.78330
H         -3.36130        5.19810      -13.65480
H         -1.89080        7.40220      -13.92690
H         -1.81870        6.06890      -16.19010
H         -0.18350        3.99850      -15.87860
H          0.75280        4.05780      -13.42460
H          0.65160        6.67030      -13.83530
H         -0.08470        6.32670      -12.25340
H         -1.75800        3.16840      -13.34760
H         -3.02320        5.59460       -3.04030
H         -0.86140        1.74960        1.82440
H          0.44160       -0.65130        5.87470
H          1.65650        0.71310        7.52230
H          5.05500        4.49220        7.26550
H          4.23210        4.44580        5.70000
H          5.33570        2.20490        5.24210
H          6.15750        2.32010        6.79920
H          6.53840        3.47260        5.51320
H          3.21160        3.12600        4.35160
H          2.04600        1.75270        2.72850
H         -1.00640       -2.78620        3.02040
H         -3.31790       -3.17210        3.72340
H         -7.11570       -0.22310        5.38550
H         -5.62030        0.66930        5.69430
H         -6.81410        0.03290        2.93770
H         -5.29920        0.90100        3.18610
H         -6.82580        1.62400        3.70910
H         -3.61060        0.90100        4.99640
H         -1.31390        1.28100        4.30790
H          2.16870       -1.08520       -0.99140
H          0.98460        1.22310       -5.04960
H          0.02520       -0.23510       -6.72770
H         -0.86010       -1.40080       -8.27810
H         -1.29040       -3.05800       -8.72600
H          1.29340       -2.28340       -7.26820
H          0.82970       -3.91320       -7.76120
H          1.17940       -2.68650       -8.98610
H         -1.51930       -2.76700       -3.64260
H         -0.59620       -1.25270       -1.94440
H          2.84650       -0.43120       -3.34970
H          5.13210        0.21350       -3.86230
H          7.15350        0.68400       -4.39820
H          8.50500        1.75290       -3.99730
H          6.67830        0.43490       -1.91640
H          8.31420       -0.10440       -2.31660
H          8.05830        1.47930       -1.57300
H          4.26190        4.23080       -2.68380
H          1.95150        3.57700       -2.17480
H          3.29960       -5.68400        3.54750
H          2.95640       -6.52910        6.11630
H          0.90750       -8.02200       10.79000
H         -2.57910       -4.98110        8.72050
H         -3.04300       -5.21970       12.11730
H         -4.87120       -6.70650       10.87590
H         -5.33860       -6.80720       13.46070
H         -3.54370       -8.42650       14.56270
H         -1.97320       -9.32420       12.65780
H         -2.94160       -8.48190       10.29580
H         -4.22240       -9.24350       11.26550
H         -1.28510       -6.80870       13.20240
