
  xtb     02102223213D
 energy: -207.835257118039 gnorm: 0.000234777094 xtb: 6.4.1 (unknown)
119133  0     0  0            999 V2000
    5.1475   -0.5826    4.0187 C   0  0  0  0  0  0  0  0  0  0  0  0
    4.6668   -0.4435    5.2813 C   0  0  0  0  0  0  0  0  0  0  0  0
    5.3545   -1.0913    6.4297 C   0  0  0  0  0  0  0  0  0  0  0  0
    6.2519   -1.9017    6.3699 O   0  0  0  0  0  0  0  0  0  0  0  0
    4.7423   -0.5035    7.6366 C   0  0  0  0  0  0  0  0  0  0  0  0
    5.0961   -0.7447    8.9633 C   0  0  0  0  0  0  0  0  0  0  0  0
    4.3370   -0.0582    9.8803 C   0  0  0  0  0  0  0  0  0  0  0  0
    3.3046    0.8146    9.5089 C   0  0  0  0  0  0  0  0  0  0  0  0
    2.9432    1.0626    8.2070 C   0  0  0  0  0  0  0  0  0  0  0  0
    3.6955    0.3640    7.2578 C   0  0  0  0  0  0  0  0  0  0  0  0
    3.5440    0.3087    5.8066 C   0  0  0  0  0  0  0  0  0  0  0  0
    2.4155    0.6761    5.1209 C   0  0  0  0  0  0  0  0  0  0  0  0
    2.1263    0.3198    3.7876 C   0  0  0  0  0  0  0  0  0  0  0  0
    1.7625    0.0044    2.7447 N   0  0  0  0  0  0  0  0  0  0  0  0
    1.3245    1.3623    5.6933 C   0  0  0  0  0  0  0  0  0  0  0  0
    0.4160    1.9442    6.0861 N   0  0  0  0  0  0  0  0  0  0  0  0
    2.9676    1.1550   10.9385 C   0  0  0  0  0  0  0  0  0  0  0  0
    3.4653    2.5183   11.4625 C   0  0  0  0  0  0  0  0  0  0  0  0
    3.4176    2.3661   12.9657 C   0  0  0  0  0  0  0  0  0  0  0  0
    4.3942    1.5401   13.3187 C   0  0  0  0  0  0  0  0  0  0  0  0
    5.1190    1.1204   12.0601 C   0  0  0  0  0  0  0  0  0  0  0  0
    4.9780    2.4051   11.2335 C   0  0  0  0  0  0  0  0  0  0  0  0
    4.1176    0.1820   11.3537 C   0  0  0  0  0  0  0  0  0  0  0  0
    4.7950    0.1878    2.8782 C   0  0  0  0  0  0  0  0  0  0  0  0
    4.5402    1.5438    2.7607 C   0  0  0  0  0  0  0  0  0  0  0  0
    4.7639    2.5651    3.8288 C   0  0  0  0  0  0  0  0  0  0  0  0
    5.7789    3.6185    3.3842 C   0  0  0  0  0  0  0  0  0  0  0  0
    4.0909    1.8632    1.4697 C   0  0  0  0  0  0  0  0  0  0  0  0
    3.4701    3.3414    0.7711 S   0  0  0  0  0  0  0  0  0  0  0  0
    2.9583    2.4459   -0.6151 C   0  0  0  0  0  0  0  0  0  0  0  0
    2.1263    2.6213   -1.7322 C   0  0  0  0  0  0  0  0  0  0  0  0
    1.3576    3.7491   -2.1248 C   0  0  0  0  0  0  0  0  0  0  0  0
    0.3364    3.5568   -3.0923 C   0  0  0  0  0  0  0  0  0  0  0  0
   -0.4919    4.5521   -3.4271 N   0  0  0  0  0  0  0  0  0  0  0  0
   -0.2993    5.7106   -2.8344 C   0  0  0  0  0  0  0  0  0  0  0  0
    0.7239    5.9072   -1.9002 C   0  0  0  0  0  0  0  0  0  0  0  0
    1.5401    4.9393   -1.5431 N   0  0  0  0  0  0  0  0  0  0  0  0
    0.2245    2.2803   -3.7027 C   0  0  0  0  0  0  0  0  0  0  0  0
   -0.7131    1.7837   -4.6247 C   0  0  0  0  0  0  0  0  0  0  0  0
   -2.1947    2.2717   -5.3627 S   0  0  0  0  0  0  0  0  0  0  0  0
   -2.3592    0.6723   -6.0530 C   0  0  0  0  0  0  0  0  0  0  0  0
   -3.3899    0.0422   -6.7632 C   0  0  0  0  0  0  0  0  0  0  0  0
   -4.5862    0.7591   -7.3024 C   0  0  0  0  0  0  0  0  0  0  0  0
   -5.3813    1.4888   -6.2207 C   0  0  0  0  0  0  0  0  0  0  0  0
   -3.0723   -1.2839   -7.0279 C   0  0  0  0  0  0  0  0  0  0  0  0
   -1.4565   -1.7185   -6.4659 S   0  0  0  0  0  0  0  0  0  0  0  0
   -1.2654   -0.1583   -5.7643 C   0  0  0  0  0  0  0  0  0  0  0  0
   -0.3357    0.4721   -4.9357 C   0  0  0  0  0  0  0  0  0  0  0  0
    0.8032    0.1351   -4.2452 N   0  0  0  0  0  0  0  0  0  0  0  0
    1.1244    1.2125   -3.4402 C   0  0  0  0  0  0  0  0  0  0  0  0
    2.0075    1.3443   -2.3470 C   0  0  0  0  0  0  0  0  0  0  0  0
    2.7385    0.4263   -1.6221 N   0  0  0  0  0  0  0  0  0  0  0  0
    3.3020    1.0906   -0.5657 C   0  0  0  0  0  0  0  0  0  0  0  0
    3.9677    0.7591    0.6186 C   0  0  0  0  0  0  0  0  0  0  0  0
    4.5595   -0.6762    1.3634 S   0  0  0  0  0  0  0  0  0  0  0  0
    2.6606   -1.0180   -1.6025 C   0  0  0  0  0  0  0  0  0  0  0  0
    3.9771   -1.6649   -2.0286 C   0  0  0  0  0  0  0  0  0  0  0  0
    1.6953   -0.8856   -4.7522 C   0  0  0  0  0  0  0  0  0  0  0  0
    2.0990   -0.6005   -6.1985 C   0  0  0  0  0  0  0  0  0  0  0  0
   -3.8218   -2.3013   -7.6649 C   0  0  0  0  0  0  0  0  0  0  0  0
   -5.1460   -2.5532   -7.4332 C   0  0  0  0  0  0  0  0  0  0  0  0
   -5.8405   -2.1360   -6.1913 C   0  0  0  0  0  0  0  0  0  0  0  0
   -5.4372   -1.3917   -5.3251 O   0  0  0  0  0  0  0  0  0  0  0  0
   -7.0810   -2.9397   -6.1537 C   0  0  0  0  0  0  0  0  0  0  0  0
   -8.0423   -2.9751   -5.1665 C   0  0  0  0  0  0  0  0  0  0  0  0
   -9.1240   -3.8390   -5.3381 C   0  0  0  0  0  0  0  0  0  0  0  0
  -10.2004   -3.9512   -4.3183 C   0  0  0  0  0  0  0  0  0  0  0  0
  -11.1626   -4.6701   -4.4254 O   0  0  0  0  0  0  0  0  0  0  0  0
   -9.9779   -3.1676   -3.2563 O   0  0  0  0  0  0  0  0  0  0  0  0
  -10.9537   -3.2241   -2.2265 C   0  0  0  0  0  0  0  0  0  0  0  0
   -9.2131   -4.6364   -6.4794 C   0  0  0  0  0  0  0  0  0  0  0  0
   -8.2418   -4.6028   -7.4679 C   0  0  0  0  0  0  0  0  0  0  0  0
   -7.1623   -3.7473   -7.3032 C   0  0  0  0  0  0  0  0  0  0  0  0
   -5.9865   -3.4973   -8.1336 C   0  0  0  0  0  0  0  0  0  0  0  0
   -5.7560   -4.0004   -9.3877 C   0  0  0  0  0  0  0  0  0  0  0  0
   -4.6452   -3.6455  -10.1817 C   0  0  0  0  0  0  0  0  0  0  0  0
   -3.7750   -3.3764  -10.8807 N   0  0  0  0  0  0  0  0  0  0  0  0
   -6.6131   -4.9019  -10.0504 C   0  0  0  0  0  0  0  0  0  0  0  0
   -7.2697   -5.6410  -10.6339 N   0  0  0  0  0  0  0  0  0  0  0  0
    5.8770   -1.3735    3.8732 H   0  0  0  0  0  0  0  0  0  0  0  0
    5.8938   -1.4286    9.2073 H   0  0  0  0  0  0  0  0  0  0  0  0
    2.1489    1.7372    7.9343 H   0  0  0  0  0  0  0  0  0  0  0  0
    1.9510    0.9242   11.2506 H   0  0  0  0  0  0  0  0  0  0  0  0
    2.9566    3.3810   11.0412 H   0  0  0  0  0  0  0  0  0  0  0  0
    2.6679    2.8152   13.5903 H   0  0  0  0  0  0  0  0  0  0  0  0
    4.6233    1.1614   14.2974 H   0  0  0  0  0  0  0  0  0  0  0  0
    6.1179    0.7109   12.1841 H   0  0  0  0  0  0  0  0  0  0  0  0
    5.2614    2.2934   10.1884 H   0  0  0  0  0  0  0  0  0  0  0  0
    5.5242    3.2385   11.6720 H   0  0  0  0  0  0  0  0  0  0  0  0
    3.8678   -0.6969   11.9449 H   0  0  0  0  0  0  0  0  0  0  0  0
    3.8117    3.0565    4.0528 H   0  0  0  0  0  0  0  0  0  0  0  0
    5.1228    2.0808    4.7384 H   0  0  0  0  0  0  0  0  0  0  0  0
    6.7306    3.1483    3.1467 H   0  0  0  0  0  0  0  0  0  0  0  0
    5.9377    4.3381    4.1831 H   0  0  0  0  0  0  0  0  0  0  0  0
    5.4234    4.1501    2.5058 H   0  0  0  0  0  0  0  0  0  0  0  0
   -0.9733    6.5087   -3.1132 H   0  0  0  0  0  0  0  0  0  0  0  0
    0.8851    6.8674   -1.4299 H   0  0  0  0  0  0  0  0  0  0  0  0
   -4.2298    1.4909   -8.0351 H   0  0  0  0  0  0  0  0  0  0  0  0
   -5.2310    0.0501   -7.8231 H   0  0  0  0  0  0  0  0  0  0  0  0
   -4.7906    2.2869   -5.7798 H   0  0  0  0  0  0  0  0  0  0  0  0
   -6.2790    1.9211   -6.6556 H   0  0  0  0  0  0  0  0  0  0  0  0
   -5.6681    0.7939   -5.4371 H   0  0  0  0  0  0  0  0  0  0  0  0
    2.4384   -1.3214   -0.5734 H   0  0  0  0  0  0  0  0  0  0  0  0
    1.8294   -1.3401   -2.2288 H   0  0  0  0  0  0  0  0  0  0  0  0
    4.2964   -1.3201   -3.0100 H   0  0  0  0  0  0  0  0  0  0  0  0
    4.7600   -1.4217   -1.3151 H   0  0  0  0  0  0  0  0  0  0  0  0
    3.8625   -2.7446   -2.0576 H   0  0  0  0  0  0  0  0  0  0  0  0
    2.5932   -0.8980   -4.1415 H   0  0  0  0  0  0  0  0  0  0  0  0
    1.1950   -1.8580   -4.6937 H   0  0  0  0  0  0  0  0  0  0  0  0
    2.5571    0.3834   -6.2749 H   0  0  0  0  0  0  0  0  0  0  0  0
    1.2385   -0.6375   -6.8602 H   0  0  0  0  0  0  0  0  0  0  0  0
    2.8166   -1.3469   -6.5278 H   0  0  0  0  0  0  0  0  0  0  0  0
   -3.2631   -2.9773   -8.3025 H   0  0  0  0  0  0  0  0  0  0  0  0
   -7.9556   -2.3531   -4.2899 H   0  0  0  0  0  0  0  0  0  0  0  0
  -11.0652   -4.2486   -1.8657 H   0  0  0  0  0  0  0  0  0  0  0  0
  -10.5949   -2.5746   -1.4324 H   0  0  0  0  0  0  0  0  0  0  0  0
  -11.9194   -2.8773   -2.5997 H   0  0  0  0  0  0  0  0  0  0  0  0
  -10.0644   -5.2939   -6.5730 H   0  0  0  0  0  0  0  0  0  0  0  0
   -8.3306   -5.2392   -8.3334 H   0  0  0  0  0  0  0  0  0  0  0  0
  1  2  2  0  0  0  0
  2  3  1  0  0  0  0
  3  4  2  0  0  0  0
  3  5  1  0  0  0  0
  5  6  2  0  0  0  0
  6  7  1  0  0  0  0
  7  8  2  0  0  0  0
  8  9  1  0  0  0  0
  9 10  2  0  0  0  0
 10 11  1  0  0  0  0
 11 12  2  0  0  0  0
 12 13  1  0  0  0  0
 13 14  3  0  0  0  0
 12 15  1  0  0  0  0
 15 16  3  0  0  0  0
  8 17  1  0  0  0  0
 17 18  1  0  0  0  0
 18 19  1  0  0  0  0
 19 20  2  0  0  0  0
 20 21  1  0  0  0  0
 21 22  1  0  0  0  0
 21 23  1  0  0  0  0
  1 24  1  0  0  0  0
 24 25  2  0  0  0  0
 25 26  1  0  0  0  0
 26 27  1  0  0  0  0
 25 28  1  0  0  0  0
 28 29  1  0  0  0  0
 29 30  1  0  0  0  0
 30 31  1  0  0  0  0
 31 32  2  0  0  0  0
 32 33  1  0  0  0  0
 33 34  1  0  0  0  0
 34 35  2  0  0  0  0
 35 36  1  0  0  0  0
 36 37  2  0  0  0  0
 33 38  2  0  0  0  0
 38 39  1  0  0  0  0
 39 40  1  0  0  0  0
 40 41  1  0  0  0  0
 41 42  1  0  0  0  0
 42 43  1  0  0  0  0
 43 44  1  0  0  0  0
 42 45  2  0  0  0  0
 45 46  1  0  0  0  0
 46 47  1  0  0  0  0
 47 48  1  0  0  0  0
 48 49  1  0  0  0  0
 49 50  1  0  0  0  0
 50 51  2  0  0  0  0
 51 52  1  0  0  0  0
 52 53  1  0  0  0  0
 53 54  1  0  0  0  0
 54 55  1  0  0  0  0
 52 56  1  0  0  0  0
 56 57  1  0  0  0  0
 49 58  1  0  0  0  0
 58 59  1  0  0  0  0
 45 60  1  0  0  0  0
 60 61  2  0  0  0  0
 61 62  1  0  0  0  0
 62 63  2  0  0  0  0
 62 64  1  0  0  0  0
 64 65  2  0  0  0  0
 65 66  1  0  0  0  0
 66 67  1  0  0  0  0
 67 68  2  0  0  0  0
 67 69  1  0  0  0  0
 69 70  1  0  0  0  0
 66 71  2  0  0  0  0
 71 72  1  0  0  0  0
 72 73  2  0  0  0  0
 73 74  1  0  0  0  0
 74 75  2  0  0  0  0
 75 76  1  0  0  0  0
 76 77  3  0  0  0  0
 75 78  1  0  0  0  0
 78 79  3  0  0  0  0
 11  2  1  0  0  0  0
 23 17  1  0  0  0  0
 55 24  1  0  0  0  0
 74 61  1  0  0  0  0
 10  5  1  0  0  0  0
 22 18  1  0  0  0  0
 54 28  2  0  0  0  0
 73 64  1  0  0  0  0
 23  7  1  0  0  0  0
 53 30  2  0  0  0  0
 51 31  1  0  0  0  0
 37 32  1  0  0  0  0
 50 38  1  0  0  0  0
 48 39  2  0  0  0  0
 47 41  2  0  0  0  0
  1 80  1  0  0  0  0
  6 81  1  0  0  0  0
  9 82  1  0  0  0  0
 17 83  1  0  0  0  0
 18 84  1  0  0  0  0
 19 85  1  0  0  0  0
 20 86  1  0  0  0  0
 21 87  1  0  0  0  0
 22 88  1  0  0  0  0
 22 89  1  0  0  0  0
 23 90  1  0  0  0  0
 26 91  1  0  0  0  0
 26 92  1  0  0  0  0
 27 93  1  0  0  0  0
 27 94  1  0  0  0  0
 27 95  1  0  0  0  0
 35 96  1  0  0  0  0
 36 97  1  0  0  0  0
 43 98  1  0  0  0  0
 43 99  1  0  0  0  0
 44100  1  0  0  0  0
 44101  1  0  0  0  0
 44102  1  0  0  0  0
 56103  1  0  0  0  0
 56104  1  0  0  0  0
 57105  1  0  0  0  0
 57106  1  0  0  0  0
 57107  1  0  0  0  0
 58108  1  0  0  0  0
 58109  1  0  0  0  0
 59110  1  0  0  0  0
 59111  1  0  0  0  0
 59112  1  0  0  0  0
 60113  1  0  0  0  0
 65114  1  0  0  0  0
 70115  1  0  0  0  0
 70116  1  0  0  0  0
 70117  1  0  0  0  0
 71118  1  0  0  0  0
 72119  1  0  0  0  0
M  END
