
  xtb     02022206513D
 energy: -263.811789566589 gnorm: 0.000530047238 xtb: 6.4.1 (unknown)
155172  0     0  0            999 V2000
   -7.2504   -1.5174    2.4763 C   0  0  0  0  0  0  0  0  0  0  0  0
   -8.4995   -1.4315    1.9293 C   0  0  0  0  0  0  0  0  0  0  0  0
   -8.9005   -0.8965    0.6059 C   0  0  0  0  0  0  0  0  0  0  0  0
   -8.2564   -0.2195   -0.1696 O   0  0  0  0  0  0  0  0  0  0  0  0
  -10.2813   -1.3626    0.3864 C   0  0  0  0  0  0  0  0  0  0  0  0
  -11.0417   -1.1873   -0.7686 C   0  0  0  0  0  0  0  0  0  0  0  0
  -12.2923   -1.7517   -0.7049 C   0  0  0  0  0  0  0  0  0  0  0  0
  -12.7533   -2.4448    0.4233 C   0  0  0  0  0  0  0  0  0  0  0  0
  -12.0154   -2.6218    1.5690 C   0  0  0  0  0  0  0  0  0  0  0  0
  -10.7401   -2.0481    1.5277 C   0  0  0  0  0  0  0  0  0  0  0  0
   -9.6832   -2.0270    2.5337 C   0  0  0  0  0  0  0  0  0  0  0  0
   -9.8243   -2.4272    3.8363 C   0  0  0  0  0  0  0  0  0  0  0  0
   -8.8416   -2.3203    4.8444 C   0  0  0  0  0  0  0  0  0  0  0  0
   -8.1127   -2.2510    5.7293 N   0  0  0  0  0  0  0  0  0  0  0  0
  -11.0117   -2.9638    4.3783 C   0  0  0  0  0  0  0  0  0  0  0  0
  -11.9411   -3.4066    4.8866 N   0  0  0  0  0  0  0  0  0  0  0  0
  -14.0872   -2.7507   -0.2113 C   0  0  0  0  0  0  0  0  0  0  0  0
  -15.2848   -1.8948    0.2529 C   0  0  0  0  0  0  0  0  0  0  0  0
  -16.3056   -2.0751   -0.8474 C   0  0  0  0  0  0  0  0  0  0  0  0
  -15.8699   -1.4170   -1.9140 C   0  0  0  0  0  0  0  0  0  0  0  0
  -14.5469   -0.7809   -1.5528 C   0  0  0  0  0  0  0  0  0  0  0  0
  -14.7966   -0.4767   -0.0700 C   0  0  0  0  0  0  0  0  0  0  0  0
  -13.5740   -1.9761   -1.4676 C   0  0  0  0  0  0  0  0  0  0  0  0
   -6.0038   -1.0291    2.0330 C   0  0  0  0  0  0  0  0  0  0  0  0
   -5.6453   -0.1797    1.0003 C   0  0  0  0  0  0  0  0  0  0  0  0
   -4.2716    0.0096    0.9382 C   0  0  0  0  0  0  0  0  0  0  0  0
   -3.2428    0.9237   -0.1274 S   0  0  0  0  0  0  0  0  0  0  0  0
   -1.8643    0.3512    0.7467 C   0  0  0  0  0  0  0  0  0  0  0  0
   -0.4486    0.5020    0.6177 C   0  0  0  0  0  0  0  0  0  0  0  0
    0.3130    1.2367   -0.2869 C   0  0  0  0  0  0  0  0  0  0  0  0
    1.6808    1.1361   -0.1838 C   0  0  0  0  0  0  0  0  0  0  0  0
    2.7387    1.8126   -1.0380 C   0  0  0  0  0  0  0  0  0  0  0  0
    2.7334    1.3850   -2.4944 C   0  0  0  0  0  0  0  0  0  0  0  0
    3.5352    2.0741   -3.4011 C   0  0  0  0  0  0  0  0  0  0  0  0
    3.5845    1.6942   -4.7237 C   0  0  0  0  0  0  0  0  0  0  0  0
    2.8265    0.6159   -5.1774 C   0  0  0  0  0  0  0  0  0  0  0  0
    2.9320    0.2647   -6.9051 S   0  0  0  0  0  0  0  0  0  0  0  0
    2.1909   -1.3935   -7.0982 C   0  0  0  0  0  0  0  0  0  0  0  0
    3.0633   -2.4853   -6.5085 C   0  0  0  0  0  0  0  0  0  0  0  0
    2.0301   -0.0766   -4.2777 C   0  0  0  0  0  0  0  0  0  0  0  0
    1.9966    0.3017   -2.9461 C   0  0  0  0  0  0  0  0  0  0  0  0
    2.5863    3.3171   -0.9039 C   0  0  0  0  0  0  0  0  0  0  0  0
    1.7496    4.0126   -1.7669 C   0  0  0  0  0  0  0  0  0  0  0  0
    1.5896    5.3801   -1.6528 C   0  0  0  0  0  0  0  0  0  0  0  0
    2.2757    6.0795   -0.6692 C   0  0  0  0  0  0  0  0  0  0  0  0
    2.1443    7.8272   -0.4380 S   0  0  0  0  0  0  0  0  0  0  0  0
    1.7734    8.4612   -2.1123 C   0  0  0  0  0  0  0  0  0  0  0  0
    2.8940    8.1747   -3.0923 C   0  0  0  0  0  0  0  0  0  0  0  0
    3.0903    5.3838    0.2180 C   0  0  0  0  0  0  0  0  0  0  0  0
    3.2368    4.0166    0.1050 C   0  0  0  0  0  0  0  0  0  0  0  0
    3.9965    1.2884   -0.3981 C   0  0  0  0  0  0  0  0  0  0  0  0
    3.6911    0.4369    0.6511 C   0  0  0  0  0  0  0  0  0  0  0  0
    2.2761    0.3346    0.8196 C   0  0  0  0  0  0  0  0  0  0  0  0
    1.5137   -0.3793    1.7410 C   0  0  0  0  0  0  0  0  0  0  0  0
    0.1465   -0.2966    1.6233 C   0  0  0  0  0  0  0  0  0  0  0  0
   -0.9128   -0.9719    2.4788 C   0  0  0  0  0  0  0  0  0  0  0  0
   -0.7547   -0.4750    3.9042 C   0  0  0  0  0  0  0  0  0  0  0  0
   -1.4368    0.6479    4.3569 C   0  0  0  0  0  0  0  0  0  0  0  0
   -1.2416    1.1174    5.6388 C   0  0  0  0  0  0  0  0  0  0  0  0
   -0.3545    0.4760    6.4992 C   0  0  0  0  0  0  0  0  0  0  0  0
   -0.2139    1.1517    8.1243 S   0  0  0  0  0  0  0  0  0  0  0  0
    1.3356    0.4490    8.7897 C   0  0  0  0  0  0  0  0  0  0  0  0
    2.5624    0.9819    8.0745 C   0  0  0  0  0  0  0  0  0  0  0  0
    0.3272   -0.6481    6.0533 C   0  0  0  0  0  0  0  0  0  0  0  0
    0.1305   -1.1093    4.7654 C   0  0  0  0  0  0  0  0  0  0  0  0
   -0.9024   -2.4868    2.4057 C   0  0  0  0  0  0  0  0  0  0  0  0
   -0.2236   -3.1693    1.4077 C   0  0  0  0  0  0  0  0  0  0  0  0
   -0.2671   -4.5505    1.3362 C   0  0  0  0  0  0  0  0  0  0  0  0
   -0.9964   -5.2723    2.2697 C   0  0  0  0  0  0  0  0  0  0  0  0
   -1.1406   -7.0336    2.2695 S   0  0  0  0  0  0  0  0  0  0  0  0
    0.3298   -7.6117    1.3508 C   0  0  0  0  0  0  0  0  0  0  0  0
    1.6225   -7.2945    2.0773 C   0  0  0  0  0  0  0  0  0  0  0  0
   -1.7008   -4.5899    3.2590 C   0  0  0  0  0  0  0  0  0  0  0  0
   -1.6571   -3.2143    3.3217 C   0  0  0  0  0  0  0  0  0  0  0  0
   -2.1697   -0.4848    1.8080 C   0  0  0  0  0  0  0  0  0  0  0  0
   -3.5429   -0.6881    1.9238 C   0  0  0  0  0  0  0  0  0  0  0  0
   -4.5929   -1.5765    2.9518 S   0  0  0  0  0  0  0  0  0  0  0  0
    5.0744   -0.2457    1.4377 S   0  0  0  0  0  0  0  0  0  0  0  0
    6.1024    0.6351    0.3362 C   0  0  0  0  0  0  0  0  0  0  0  0
    7.4681    0.7424    0.1804 C   0  0  0  0  0  0  0  0  0  0  0  0
    7.8185    1.6075   -0.8626 C   0  0  0  0  0  0  0  0  0  0  0  0
    6.3986    2.2884   -1.6527 S   0  0  0  0  0  0  0  0  0  0  0  0
    5.3699    1.4113   -0.5904 C   0  0  0  0  0  0  0  0  0  0  0  0
    9.1566    1.8556   -1.1909 C   0  0  0  0  0  0  0  0  0  0  0  0
    9.7065    2.6703   -2.1513 C   0  0  0  0  0  0  0  0  0  0  0  0
    8.9571    3.5213   -3.0797 C   0  0  0  0  0  0  0  0  0  0  0  0
    7.7497    3.6268   -3.1825 O   0  0  0  0  0  0  0  0  0  0  0  0
    9.9707    4.2402   -3.8793 C   0  0  0  0  0  0  0  0  0  0  0  0
   11.2563    3.8398   -3.4704 C   0  0  0  0  0  0  0  0  0  0  0  0
   12.3750    4.3862   -4.0784 C   0  0  0  0  0  0  0  0  0  0  0  0
   12.1936    5.3242   -5.0846 C   0  0  0  0  0  0  0  0  0  0  0  0
   10.9249    5.7149   -5.4837 C   0  0  0  0  0  0  0  0  0  0  0  0
   10.7455    6.9979   -6.8587 Br  0  0  0  0  0  0  0  0  0  0  0  0
    9.7813    5.1752   -4.8838 C   0  0  0  0  0  0  0  0  0  0  0  0
    8.2123    5.6534   -5.3709 Cl  0  0  0  0  0  0  0  0  0  0  0  0
   11.1212    2.8507   -2.4002 C   0  0  0  0  0  0  0  0  0  0  0  0
   12.1684    2.2202   -1.7780 C   0  0  0  0  0  0  0  0  0  0  0  0
   12.0616    1.2508   -0.7586 C   0  0  0  0  0  0  0  0  0  0  0  0
   12.0680    0.4538    0.0688 N   0  0  0  0  0  0  0  0  0  0  0  0
   13.5270    2.4493   -2.0825 C   0  0  0  0  0  0  0  0  0  0  0  0
   14.6500    2.5879   -2.2757 N   0  0  0  0  0  0  0  0  0  0  0  0
   -7.1711   -2.0910    3.3930 H   0  0  0  0  0  0  0  0  0  0  0  0
  -10.6430   -0.6548   -1.6178 H   0  0  0  0  0  0  0  0  0  0  0  0
  -12.3801   -3.1671    2.4232 H   0  0  0  0  0  0  0  0  0  0  0  0
  -14.3324   -3.8061   -0.3137 H   0  0  0  0  0  0  0  0  0  0  0  0
  -15.6182   -2.0918    1.2680 H   0  0  0  0  0  0  0  0  0  0  0  0
  -17.1830   -2.6883   -0.7571 H   0  0  0  0  0  0  0  0  0  0  0  0
  -16.3104   -1.3707   -2.8927 H   0  0  0  0  0  0  0  0  0  0  0  0
  -14.2091    0.0375   -2.1828 H   0  0  0  0  0  0  0  0  0  0  0  0
  -13.9050   -0.1785    0.4786 H   0  0  0  0  0  0  0  0  0  0  0  0
  -15.5771    0.2690    0.0711 H   0  0  0  0  0  0  0  0  0  0  0  0
  -13.4779   -2.5146   -2.4087 H   0  0  0  0  0  0  0  0  0  0  0  0
   -6.3597    0.2618    0.3307 H   0  0  0  0  0  0  0  0  0  0  0  0
   -0.1598    1.8469   -1.0408 H   0  0  0  0  0  0  0  0  0  0  0  0
    4.1224    2.9166   -3.0674 H   0  0  0  0  0  0  0  0  0  0  0  0
    4.2079    2.2300   -5.4224 H   0  0  0  0  0  0  0  0  0  0  0  0
    1.1910   -1.3791   -6.6660 H   0  0  0  0  0  0  0  0  0  0  0  0
    2.0995   -1.5103   -8.1781 H   0  0  0  0  0  0  0  0  0  0  0  0
    2.5950   -3.4560   -6.6587 H   0  0  0  0  0  0  0  0  0  0  0  0
    3.2129   -2.3314   -5.4418 H   0  0  0  0  0  0  0  0  0  0  0  0
    4.0366   -2.4889   -6.9929 H   0  0  0  0  0  0  0  0  0  0  0  0
    1.4218   -0.9094   -4.5932 H   0  0  0  0  0  0  0  0  0  0  0  0
    1.3754   -0.2565   -2.2610 H   0  0  0  0  0  0  0  0  0  0  0  0
    1.2222    3.4843   -2.5478 H   0  0  0  0  0  0  0  0  0  0  0  0
    0.9252    5.8883   -2.3340 H   0  0  0  0  0  0  0  0  0  0  0  0
    0.8207    8.0475   -2.4412 H   0  0  0  0  0  0  0  0  0  0  0  0
    1.6518    9.5333   -1.9586 H   0  0  0  0  0  0  0  0  0  0  0  0
    3.8249    8.6110   -2.7374 H   0  0  0  0  0  0  0  0  0  0  0  0
    2.6551    8.6043   -4.0633 H   0  0  0  0  0  0  0  0  0  0  0  0
    3.0404    7.1029   -3.2128 H   0  0  0  0  0  0  0  0  0  0  0  0
    3.6091    5.9274    0.9925 H   0  0  0  0  0  0  0  0  0  0  0  0
    3.8741    3.4945    0.8032 H   0  0  0  0  0  0  0  0  0  0  0  0
    1.9872   -0.9787    2.5031 H   0  0  0  0  0  0  0  0  0  0  0  0
   -2.1248    1.1648    3.7047 H   0  0  0  0  0  0  0  0  0  0  0  0
   -1.7753    1.9875    5.9889 H   0  0  0  0  0  0  0  0  0  0  0  0
    1.2700   -0.6378    8.7512 H   0  0  0  0  0  0  0  0  0  0  0  0
    1.3295    0.7591    9.8346 H   0  0  0  0  0  0  0  0  0  0  0  0
    2.5434    0.7194    7.0186 H   0  0  0  0  0  0  0  0  0  0  0  0
    3.4625    0.5641    8.5216 H   0  0  0  0  0  0  0  0  0  0  0  0
    2.6028    2.0655    8.1569 H   0  0  0  0  0  0  0  0  0  0  0  0
    1.0077   -1.1816    6.6978 H   0  0  0  0  0  0  0  0  0  0  0  0
    0.6639   -1.9893    4.4357 H   0  0  0  0  0  0  0  0  0  0  0  0
    0.3486   -2.6242    0.6711 H   0  0  0  0  0  0  0  0  0  0  0  0
    0.2658   -5.0469    0.5403 H   0  0  0  0  0  0  0  0  0  0  0  0
    0.3037   -7.1892    0.3468 H   0  0  0  0  0  0  0  0  0  0  0  0
    0.1782   -8.6885    1.2775 H   0  0  0  0  0  0  0  0  0  0  0  0
    1.7539   -6.2197    2.1858 H   0  0  0  0  0  0  0  0  0  0  0  0
    2.4678   -7.6943    1.5203 H   0  0  0  0  0  0  0  0  0  0  0  0
    1.6151   -7.7415    3.0687 H   0  0  0  0  0  0  0  0  0  0  0  0
   -2.2806   -5.1519    3.9746 H   0  0  0  0  0  0  0  0  0  0  0  0
   -2.2024   -2.6972    4.0974 H   0  0  0  0  0  0  0  0  0  0  0  0
    8.2001    0.2312    0.7796 H   0  0  0  0  0  0  0  0  0  0  0  0
    9.8517    1.3077   -0.5663 H   0  0  0  0  0  0  0  0  0  0  0  0
   13.3741    4.1051   -3.7915 H   0  0  0  0  0  0  0  0  0  0  0  0
   13.0526    5.7620   -5.5694 H   0  0  0  0  0  0  0  0  0  0  0  0
  1  2  2  0  0  0  0
  2  3  1  0  0  0  0
  3  4  2  0  0  0  0
  3  5  1  0  0  0  0
  5  6  2  0  0  0  0
  6  7  1  0  0  0  0
  7  8  2  0  0  0  0
  8  9  1  0  0  0  0
  9 10  2  0  0  0  0
 10 11  1  0  0  0  0
 11 12  2  0  0  0  0
 12 13  1  0  0  0  0
 13 14  3  0  0  0  0
 12 15  1  0  0  0  0
 15 16  3  0  0  0  0
  8 17  1  0  0  0  0
 17 18  1  0  0  0  0
 18 19  1  0  0  0  0
 19 20  2  0  0  0  0
 20 21  1  0  0  0  0
 21 22  1  0  0  0  0
 21 23  1  0  0  0  0
  1 24  1  0  0  0  0
 24 25  2  0  0  0  0
 25 26  1  0  0  0  0
 26 27  1  0  0  0  0
 27 28  1  0  0  0  0
 28 29  1  0  0  0  0
 29 30  2  0  0  0  0
 30 31  1  0  0  0  0
 31 32  1  0  0  0  0
 32 33  1  0  0  0  0
 33 34  2  0  0  0  0
 34 35  1  0  0  0  0
 35 36  2  0  0  0  0
 36 37  1  0  0  0  0
 37 38  1  0  0  0  0
 38 39  1  0  0  0  0
 36 40  1  0  0  0  0
 40 41  2  0  0  0  0
 32 42  1  0  0  0  0
 42 43  2  0  0  0  0
 43 44  1  0  0  0  0
 44 45  2  0  0  0  0
 45 46  1  0  0  0  0
 46 47  1  0  0  0  0
 47 48  1  0  0  0  0
 45 49  1  0  0  0  0
 49 50  2  0  0  0  0
 32 51  1  0  0  0  0
 51 52  2  0  0  0  0
 52 53  1  0  0  0  0
 53 54  1  0  0  0  0
 54 55  2  0  0  0  0
 55 56  1  0  0  0  0
 56 57  1  0  0  0  0
 57 58  2  0  0  0  0
 58 59  1  0  0  0  0
 59 60  2  0  0  0  0
 60 61  1  0  0  0  0
 61 62  1  0  0  0  0
 62 63  1  0  0  0  0
 60 64  1  0  0  0  0
 64 65  2  0  0  0  0
 56 66  1  0  0  0  0
 66 67  2  0  0  0  0
 67 68  1  0  0  0  0
 68 69  2  0  0  0  0
 69 70  1  0  0  0  0
 70 71  1  0  0  0  0
 71 72  1  0  0  0  0
 69 73  1  0  0  0  0
 73 74  2  0  0  0  0
 56 75  1  0  0  0  0
 75 76  1  0  0  0  0
 76 77  1  0  0  0  0
 52 78  1  0  0  0  0
 78 79  1  0  0  0  0
 79 80  1  0  0  0  0
 80 81  2  0  0  0  0
 81 82  1  0  0  0  0
 82 83  1  0  0  0  0
 81 84  1  0  0  0  0
 84 85  2  0  0  0  0
 85 86  1  0  0  0  0
 86 87  2  0  0  0  0
 86 88  1  0  0  0  0
 88 89  2  0  0  0  0
 89 90  1  0  0  0  0
 90 91  2  0  0  0  0
 91 92  1  0  0  0  0
 92 93  1  0  0  0  0
 92 94  2  0  0  0  0
 94 95  1  0  0  0  0
 89 96  1  0  0  0  0
 96 97  2  0  0  0  0
 97 98  1  0  0  0  0
 98 99  3  0  0  0  0
 97100  1  0  0  0  0
100101  3  0  0  0  0
 11  2  1  0  0  0  0
 23 17  1  0  0  0  0
 77 24  1  0  0  0  0
 83 79  2  0  0  0  0
 96 85  1  0  0  0  0
 10  5  1  0  0  0  0
 22 18  1  0  0  0  0
 76 26  2  0  0  0  0
 94 88  1  0  0  0  0
 23  7  1  0  0  0  0
 75 28  2  0  0  0  0
 55 29  1  0  0  0  0
 65 57  1  0  0  0  0
 74 66  1  0  0  0  0
 53 31  2  0  0  0  0
 41 33  1  0  0  0  0
 50 42  1  0  0  0  0
 83 51  1  0  0  0  0
  1102  1  0  0  0  0
  6103  1  0  0  0  0
  9104  1  0  0  0  0
 17105  1  0  0  0  0
 18106  1  0  0  0  0
 19107  1  0  0  0  0
 20108  1  0  0  0  0
 21109  1  0  0  0  0
 22110  1  0  0  0  0
 22111  1  0  0  0  0
 23112  1  0  0  0  0
 25113  1  0  0  0  0
 30114  1  0  0  0  0
 34115  1  0  0  0  0
 35116  1  0  0  0  0
 38117  1  0  0  0  0
 38118  1  0  0  0  0
 39119  1  0  0  0  0
 39120  1  0  0  0  0
 39121  1  0  0  0  0
 40122  1  0  0  0  0
 41123  1  0  0  0  0
 43124  1  0  0  0  0
 44125  1  0  0  0  0
 47126  1  0  0  0  0
 47127  1  0  0  0  0
 48128  1  0  0  0  0
 48129  1  0  0  0  0
 48130  1  0  0  0  0
 49131  1  0  0  0  0
 50132  1  0  0  0  0
 54133  1  0  0  0  0
 58134  1  0  0  0  0
 59135  1  0  0  0  0
 62136  1  0  0  0  0
 62137  1  0  0  0  0
 63138  1  0  0  0  0
 63139  1  0  0  0  0
 63140  1  0  0  0  0
 64141  1  0  0  0  0
 65142  1  0  0  0  0
 67143  1  0  0  0  0
 68144  1  0  0  0  0
 71145  1  0  0  0  0
 71146  1  0  0  0  0
 72147  1  0  0  0  0
 72148  1  0  0  0  0
 72149  1  0  0  0  0
 73150  1  0  0  0  0
 74151  1  0  0  0  0
 80152  1  0  0  0  0
 84153  1  0  0  0  0
 90154  1  0  0  0  0
 91155  1  0  0  0  0
M  END
