112

C         -3.77470        2.24810       -5.23360
C         -3.47950        3.58490       -5.31650
C         -2.48470        4.30680       -4.51860
O         -1.66180        3.83480       -3.75060
C         -2.66820        5.73520       -4.81910
C         -1.99050        6.80610       -4.24190
C         -2.40860        8.03660       -4.68770
C         -3.42270        8.19020       -5.64220
C         -4.08920        7.14070       -6.22980
C         -3.68280        5.87900       -5.78710
C         -4.16810        4.54900       -6.15340
C         -5.08830        4.28360       -7.13540
C         -5.53690        3.00190       -7.51630
N         -5.95110        1.99600       -7.88720
C         -5.70980        5.26670       -7.93360
N         -6.25590        6.00740       -8.62040
C         -3.35130        9.69570       -5.59160
C         -4.45390       10.44020       -4.79800
C         -4.94910        9.48010       -3.74490
C         -3.98670        9.33570       -2.84380
C         -2.82290       10.19530       -3.27180
C         -3.57610       11.35980       -3.93400
C         -2.21890        9.52430       -4.53060
C         -3.24000        1.24280       -4.41820
C         -3.76390       -0.05920       -4.36390
C         -4.93510       -0.56110       -5.14370
C         -6.25000       -0.19800       -4.44810
C         -3.09750       -0.83520       -3.42270
S         -3.34640       -2.47470       -2.84830
C         -2.04190       -2.24940       -1.73640
C         -1.40830       -2.93570       -0.68970
C         -1.74230       -4.18330       -0.10130
C         -1.04610       -4.57420        1.06870
N         -1.35980       -5.70130        1.71750
C         -2.33150       -6.42640        1.20720
C         -3.00600       -6.05070        0.03930
N         -2.72070       -4.94200       -0.60800
C          0.02030       -3.75150        1.51540
C          0.90920       -3.94970        2.58400
S          1.16330       -5.05780        3.88360
C          2.55520       -4.12200        4.38050
C          3.46680       -4.26890        5.44060
C          3.40050       -5.43880        6.36810
C          2.12040       -5.43830        7.20480
C          4.44300       -3.28530        5.40270
S          4.22120       -2.18380        4.03700
C          2.80110       -3.02580        3.54780
C          1.84790       -2.91570        2.53130
N          1.55650       -2.06660        1.49670
C          0.42370       -2.55250        0.86450
C         -0.38140       -2.07710       -0.19920
N         -0.41800       -0.89620       -0.91500
C         -1.43400       -0.99280       -1.82710
C         -2.04150       -0.16900       -2.77970
S         -1.88280        1.46140       -3.31340
C          0.17430        0.39240       -0.63680
C         -0.29760        0.94800        0.70450
C          2.56200       -1.14210        1.02250
C          3.14840       -1.59150       -0.31350
C          5.56950       -3.09510        6.24780
C          5.67380       -3.29470        7.60080
C          4.62620       -3.50330        8.50980
N          3.73680       -3.60100        9.22720
C          7.05340       -3.08300        7.97860
C          7.61880       -3.18950        9.21920
C          8.99380       -2.93790        9.40490
N         10.11120       -2.73090        9.55810
C          6.89320       -3.56300       10.36530
N          6.35220       -3.87620       11.32690
O          7.77810       -2.75720        6.90030
C          6.93720       -2.67360        5.74250
C          7.00580       -1.22540        5.24670
C          7.46260       -3.64790        4.68630
H         -4.58180        1.90070       -5.86400
H         -1.21810        6.64190       -3.50680
H         -4.86750        7.27810       -6.96150
H         -3.10470       10.19490       -6.52640
H         -5.21520       10.90900       -5.41550
H         -5.89690        8.97660       -3.79180
H         -3.96970        8.68700       -1.98750
H         -2.09860       10.44180       -2.49980
H         -2.93260       12.01810       -4.51600
H         -4.15450       11.94620       -3.22170
H         -1.23040        9.90960       -4.77320
H         -4.93430       -0.15480       -6.15630
H         -4.85810       -1.64800       -5.21110
H         -6.28270       -0.63260       -3.45170
H         -7.08880       -0.57970       -5.02320
H         -6.35430        0.88110       -4.35940
H         -2.58110       -7.33430        1.73850
H         -3.79570       -6.65940       -0.37870
H          3.41560       -6.34560        5.75530
H          4.26950       -5.45790        7.02570
H          1.24330       -5.44600        6.56350
H          2.09890       -6.32390        7.83350
H          2.08320       -4.56350        7.84810
H          1.26160        0.33170       -0.68950
H         -0.14980        1.06350       -1.43580
H         -0.06450        0.26720        1.52030
H         -1.37450        1.09630        0.68390
H          0.17790        1.90600        0.89570
H          3.35220       -1.12880        1.77770
H          2.15930       -0.13080        0.96340
H          3.62370       -2.56360       -0.20340
H          2.37490       -1.67770       -1.07290
H          3.89450       -0.87710       -0.65070
H          6.48820       -0.56230        5.93680
H          8.05200       -0.93260        5.20130
H          6.56810       -1.12840        4.25890
H          6.83130       -3.61380        3.80290
H          7.46890       -4.66200        5.08090
H          8.47800       -3.37240        4.41580
