
  xtb     02022207053D
 energy: -186.284666874902 gnorm: 0.000436443297 xtb: 6.4.1 (unknown)
109123  0     0  0            999 V2000
   -4.8028    4.0286    0.6636 C   0  0  0  0  0  0  0  0  0  0  0  0
   -4.3113    5.2567    0.2951 C   0  0  0  0  0  0  0  0  0  0  0  0
   -3.0364    5.5154   -0.3783 C   0  0  0  0  0  0  0  0  0  0  0  0
   -2.1677    4.7077   -0.6654 O   0  0  0  0  0  0  0  0  0  0  0  0
   -3.0031    6.9597   -0.6641 C   0  0  0  0  0  0  0  0  0  0  0  0
   -2.0003    7.6602   -1.3308 C   0  0  0  0  0  0  0  0  0  0  0  0
   -2.2524    9.0044   -1.4650 C   0  0  0  0  0  0  0  0  0  0  0  0
   -3.4179    9.6072   -0.9745 C   0  0  0  0  0  0  0  0  0  0  0  0
   -4.4154    8.9271   -0.3166 C   0  0  0  0  0  0  0  0  0  0  0  0
   -4.1779    7.5576   -0.1659 C   0  0  0  0  0  0  0  0  0  0  0  0
   -4.9979    6.5216    0.4619 C   0  0  0  0  0  0  0  0  0  0  0  0
   -6.1854    6.7420    1.1139 C   0  0  0  0  0  0  0  0  0  0  0  0
   -6.7931    8.0059    1.2637 C   0  0  0  0  0  0  0  0  0  0  0  0
   -7.3464    8.9989    1.4282 N   0  0  0  0  0  0  0  0  0  0  0  0
   -6.9728    5.7610    1.7509 C   0  0  0  0  0  0  0  0  0  0  0  0
   -7.6716    5.0309    2.2987 N   0  0  0  0  0  0  0  0  0  0  0  0
   -3.0107   10.9762   -1.4599 C   0  0  0  0  0  0  0  0  0  0  0  0
   -2.4689   11.9534   -0.3952 C   0  0  0  0  0  0  0  0  0  0  0  0
   -1.7217   12.9898   -1.2032 C   0  0  0  0  0  0  0  0  0  0  0  0
   -0.6175   12.4196   -1.6685 C   0  0  0  0  0  0  0  0  0  0  0  0
   -0.5996   10.9883   -1.1824 C   0  0  0  0  0  0  0  0  0  0  0  0
   -1.2858   11.1630    0.1786 C   0  0  0  0  0  0  0  0  0  0  0  0
   -1.7105   10.3040   -2.0069 C   0  0  0  0  0  0  0  0  0  0  0  0
   -4.2399    2.7510    0.5766 C   0  0  0  0  0  0  0  0  0  0  0  0
   -4.9098    1.5898    0.9991 C   0  0  0  0  0  0  0  0  0  0  0  0
   -6.2739    1.5349    1.6056 C   0  0  0  0  0  0  0  0  0  0  0  0
   -6.2120    1.8112    3.1103 C   0  0  0  0  0  0  0  0  0  0  0  0
   -4.1174    0.4608    0.8395 C   0  0  0  0  0  0  0  0  0  0  0  0
   -4.3995   -1.2373    1.1784 S   0  0  0  0  0  0  0  0  0  0  0  0
   -2.8097   -1.5830    0.5982 C   0  0  0  0  0  0  0  0  0  0  0  0
   -1.9774   -2.6928    0.3865 C   0  0  0  0  0  0  0  0  0  0  0  0
   -2.2621   -4.0762    0.5283 C   0  0  0  0  0  0  0  0  0  0  0  0
   -1.2737   -5.0060    0.1174 C   0  0  0  0  0  0  0  0  0  0  0  0
   -1.5056   -6.3227    0.1578 N   0  0  0  0  0  0  0  0  0  0  0  0
   -2.6816   -6.7040    0.6078 C   0  0  0  0  0  0  0  0  0  0  0  0
   -3.6484   -5.7870    1.0350 C   0  0  0  0  0  0  0  0  0  0  0  0
   -3.4464   -4.4876    0.9941 N   0  0  0  0  0  0  0  0  0  0  0  0
   -0.0105   -4.5002   -0.2861 C   0  0  0  0  0  0  0  0  0  0  0  0
    1.1754   -5.1881   -0.5840 C   0  0  0  0  0  0  0  0  0  0  0  0
    1.7415   -6.8157   -0.7194 S   0  0  0  0  0  0  0  0  0  0  0  0
    3.3599   -6.1969   -0.9923 C   0  0  0  0  0  0  0  0  0  0  0  0
    4.5801   -6.8264   -1.2136 C   0  0  0  0  0  0  0  0  0  0  0  0
    4.7375   -8.3120   -1.2301 C   0  0  0  0  0  0  0  0  0  0  0  0
    5.1689   -8.8289    0.1448 C   0  0  0  0  0  0  0  0  0  0  0  0
    5.6173   -5.8954   -1.3541 C   0  0  0  0  0  0  0  0  0  0  0  0
    5.0450   -4.2320   -1.2235 S   0  0  0  0  0  0  0  0  0  0  0  0
    3.4353   -4.7943   -0.9783 C   0  0  0  0  0  0  0  0  0  0  0  0
    2.1767   -4.2261   -0.7563 C   0  0  0  0  0  0  0  0  0  0  0  0
    1.6479   -2.9721   -0.6041 N   0  0  0  0  0  0  0  0  0  0  0  0
    0.3025   -3.1108   -0.3383 C   0  0  0  0  0  0  0  0  0  0  0  0
   -0.7470   -2.1867   -0.1207 C   0  0  0  0  0  0  0  0  0  0  0  0
   -0.8484   -0.8126   -0.2521 N   0  0  0  0  0  0  0  0  0  0  0  0
   -2.1017   -0.4523    0.1765 C   0  0  0  0  0  0  0  0  0  0  0  0
   -2.8457    0.7241    0.3016 C   0  0  0  0  0  0  0  0  0  0  0  0
   -2.6214    2.3993   -0.0348 S   0  0  0  0  0  0  0  0  0  0  0  0
   -0.1527    0.0751   -1.1598 C   0  0  0  0  0  0  0  0  0  0  0  0
   -0.5228   -0.2340   -2.6090 C   0  0  0  0  0  0  0  0  0  0  0  0
    2.5267   -1.8362   -0.4441 C   0  0  0  0  0  0  0  0  0  0  0  0
    3.0386   -1.3086   -1.7830 C   0  0  0  0  0  0  0  0  0  0  0  0
    6.9618   -6.2327   -1.5638 C   0  0  0  0  0  0  0  0  0  0  0  0
    8.0664   -5.4361   -1.6766 C   0  0  0  0  0  0  0  0  0  0  0  0
    8.1771   -3.9828   -1.6224 C   0  0  0  0  0  0  0  0  0  0  0  0
    7.2806   -3.1670   -1.4885 O   0  0  0  0  0  0  0  0  0  0  0  0
    9.6211   -3.6774   -1.7714 C   0  0  0  0  0  0  0  0  0  0  0  0
   10.2623   -2.4536   -1.7748 C   0  0  0  0  0  0  0  0  0  0  0  0
   11.6431   -2.4385   -1.9285 C   0  0  0  0  0  0  0  0  0  0  0  0
   12.3585   -3.6181   -2.0764 C   0  0  0  0  0  0  0  0  0  0  0  0
   11.7155   -4.8502   -2.0745 C   0  0  0  0  0  0  0  0  0  0  0  0
   10.3430   -4.8686   -1.9200 C   0  0  0  0  0  0  0  0  0  0  0  0
    9.4072   -6.0199   -1.8724 C   0  0  0  0  0  0  0  0  0  0  0  0
    9.6819   -7.1973   -1.9685 O   0  0  0  0  0  0  0  0  0  0  0  0
   -5.7948    4.0276    1.0942 H   0  0  0  0  0  0  0  0  0  0  0  0
   -1.1212    7.1539   -1.6982 H   0  0  0  0  0  0  0  0  0  0  0  0
   -5.3091    9.4065    0.0458 H   0  0  0  0  0  0  0  0  0  0  0  0
   -3.6894   11.4503   -2.1664 H   0  0  0  0  0  0  0  0  0  0  0  0
   -3.2132   12.3216    0.3054 H   0  0  0  0  0  0  0  0  0  0  0  0
   -2.0888   13.9812   -1.3935 H   0  0  0  0  0  0  0  0  0  0  0  0
    0.1218   12.8395   -2.3252 H   0  0  0  0  0  0  0  0  0  0  0  0
    0.3599   10.4781   -1.1985 H   0  0  0  0  0  0  0  0  0  0  0  0
   -1.5678   10.2269    0.6571 H   0  0  0  0  0  0  0  0  0  0  0  0
   -0.6884   11.7584    0.8672 H   0  0  0  0  0  0  0  0  0  0  0  0
   -1.5226   10.3301   -3.0788 H   0  0  0  0  0  0  0  0  0  0  0  0
   -6.9446    2.2534    1.1326 H   0  0  0  0  0  0  0  0  0  0  0  0
   -6.6763    0.5327    1.4442 H   0  0  0  0  0  0  0  0  0  0  0  0
   -5.8298    2.8106    3.3029 H   0  0  0  0  0  0  0  0  0  0  0  0
   -7.2074    1.7379    3.5385 H   0  0  0  0  0  0  0  0  0  0  0  0
   -5.5645    1.0881    3.6007 H   0  0  0  0  0  0  0  0  0  0  0  0
   -2.8614   -7.7700    0.6337 H   0  0  0  0  0  0  0  0  0  0  0  0
   -4.6076   -6.1105    1.4149 H   0  0  0  0  0  0  0  0  0  0  0  0
    5.4691   -8.6121   -1.9817 H   0  0  0  0  0  0  0  0  0  0  0  0
    3.7743   -8.7545   -1.4921 H   0  0  0  0  0  0  0  0  0  0  0  0
    4.4360   -8.5497    0.8981 H   0  0  0  0  0  0  0  0  0  0  0  0
    5.2510   -9.9124    0.1260 H   0  0  0  0  0  0  0  0  0  0  0  0
    6.1325   -8.4116    0.4277 H   0  0  0  0  0  0  0  0  0  0  0  0
   -0.4666    1.0913   -0.9086 H   0  0  0  0  0  0  0  0  0  0  0  0
    0.9228    0.0130   -1.0254 H   0  0  0  0  0  0  0  0  0  0  0  0
   -1.5931   -0.1124   -2.7583 H   0  0  0  0  0  0  0  0  0  0  0  0
   -0.2549   -1.2580   -2.8630 H   0  0  0  0  0  0  0  0  0  0  0  0
   -0.0011    0.4452   -3.2774 H   0  0  0  0  0  0  0  0  0  0  0  0
    2.0082   -1.0699    0.1340 H   0  0  0  0  0  0  0  0  0  0  0  0
    3.3875   -2.1683    0.1465 H   0  0  0  0  0  0  0  0  0  0  0  0
    2.2218   -1.0959   -2.4673 H   0  0  0  0  0  0  0  0  0  0  0  0
    3.6902   -2.0454   -2.2446 H   0  0  0  0  0  0  0  0  0  0  0  0
    3.6142   -0.4011   -1.6238 H   0  0  0  0  0  0  0  0  0  0  0  0
    7.1707   -7.2957   -1.6403 H   0  0  0  0  0  0  0  0  0  0  0  0
    9.6981   -1.5407   -1.6592 H   0  0  0  0  0  0  0  0  0  0  0  0
   12.1685   -1.4948   -1.9325 H   0  0  0  0  0  0  0  0  0  0  0  0
   13.4314   -3.5772   -2.1942 H   0  0  0  0  0  0  0  0  0  0  0  0
   12.2645   -5.7722   -2.1890 H   0  0  0  0  0  0  0  0  0  0  0  0
  1  2  2  0  0  0  0
  2  3  1  0  0  0  0
  3  4  2  0  0  0  0
  3  5  1  0  0  0  0
  5  6  2  0  0  0  0
  6  7  1  0  0  0  0
  7  8  2  0  0  0  0
  8  9  1  0  0  0  0
  9 10  2  0  0  0  0
 10 11  1  0  0  0  0
 11 12  2  0  0  0  0
 12 13  1  0  0  0  0
 13 14  3  0  0  0  0
 12 15  1  0  0  0  0
 15 16  3  0  0  0  0
  8 17  1  0  0  0  0
 17 18  1  0  0  0  0
 18 19  1  0  0  0  0
 19 20  2  0  0  0  0
 20 21  1  0  0  0  0
 21 22  1  0  0  0  0
 21 23  1  0  0  0  0
  1 24  1  0  0  0  0
 24 25  2  0  0  0  0
 25 26  1  0  0  0  0
 26 27  1  0  0  0  0
 25 28  1  0  0  0  0
 28 29  1  0  0  0  0
 29 30  1  0  0  0  0
 30 31  1  0  0  0  0
 31 32  2  0  0  0  0
 32 33  1  0  0  0  0
 33 34  1  0  0  0  0
 34 35  2  0  0  0  0
 35 36  1  0  0  0  0
 36 37  2  0  0  0  0
 33 38  2  0  0  0  0
 38 39  1  0  0  0  0
 39 40  1  0  0  0  0
 40 41  1  0  0  0  0
 41 42  1  0  0  0  0
 42 43  1  0  0  0  0
 43 44  1  0  0  0  0
 42 45  2  0  0  0  0
 45 46  1  0  0  0  0
 46 47  1  0  0  0  0
 47 48  1  0  0  0  0
 48 49  1  0  0  0  0
 49 50  1  0  0  0  0
 50 51  2  0  0  0  0
 51 52  1  0  0  0  0
 52 53  1  0  0  0  0
 53 54  1  0  0  0  0
 54 55  1  0  0  0  0
 52 56  1  0  0  0  0
 56 57  1  0  0  0  0
 49 58  1  0  0  0  0
 58 59  1  0  0  0  0
 45 60  1  0  0  0  0
 60 61  2  0  0  0  0
 61 62  1  0  0  0  0
 62 63  2  0  0  0  0
 62 64  1  0  0  0  0
 64 65  2  0  0  0  0
 65 66  1  0  0  0  0
 66 67  2  0  0  0  0
 67 68  1  0  0  0  0
 68 69  2  0  0  0  0
 69 70  1  0  0  0  0
 70 71  2  0  0  0  0
 11  2  1  0  0  0  0
 23 17  1  0  0  0  0
 55 24  1  0  0  0  0
 70 61  1  0  0  0  0
 10  5  1  0  0  0  0
 22 18  1  0  0  0  0
 54 28  2  0  0  0  0
 69 64  1  0  0  0  0
 23  7  1  0  0  0  0
 53 30  2  0  0  0  0
 51 31  1  0  0  0  0
 37 32  1  0  0  0  0
 50 38  1  0  0  0  0
 48 39  2  0  0  0  0
 47 41  2  0  0  0  0
  1 72  1  0  0  0  0
  6 73  1  0  0  0  0
  9 74  1  0  0  0  0
 17 75  1  0  0  0  0
 18 76  1  0  0  0  0
 19 77  1  0  0  0  0
 20 78  1  0  0  0  0
 21 79  1  0  0  0  0
 22 80  1  0  0  0  0
 22 81  1  0  0  0  0
 23 82  1  0  0  0  0
 26 83  1  0  0  0  0
 26 84  1  0  0  0  0
 27 85  1  0  0  0  0
 27 86  1  0  0  0  0
 27 87  1  0  0  0  0
 35 88  1  0  0  0  0
 36 89  1  0  0  0  0
 43 90  1  0  0  0  0
 43 91  1  0  0  0  0
 44 92  1  0  0  0  0
 44 93  1  0  0  0  0
 44 94  1  0  0  0  0
 56 95  1  0  0  0  0
 56 96  1  0  0  0  0
 57 97  1  0  0  0  0
 57 98  1  0  0  0  0
 57 99  1  0  0  0  0
 58100  1  0  0  0  0
 58101  1  0  0  0  0
 59102  1  0  0  0  0
 59103  1  0  0  0  0
 59104  1  0  0  0  0
 60105  1  0  0  0  0
 65106  1  0  0  0  0
 66107  1  0  0  0  0
 67108  1  0  0  0  0
 68109  1  0  0  0  0
M  END
