
  xtb     02022212403D
 energy: -230.577572461770 gnorm: 0.000300762195 xtb: 6.4.1 (unknown)
130146  0     0  0            999 V2000
    0.2083   -7.4721    1.6473 C   0  0  0  0  0  0  0  0  0  0  0  0
    1.1818   -7.7355    0.7318 C   0  0  0  0  0  0  0  0  0  0  0  0
    2.0526   -8.9300    0.8868 C   0  0  0  0  0  0  0  0  0  0  0  0
    1.8658   -9.8740    1.6216 O   0  0  0  0  0  0  0  0  0  0  0  0
    3.2162   -8.6758    0.0126 C   0  0  0  0  0  0  0  0  0  0  0  0
    4.3775   -9.4391   -0.0933 C   0  0  0  0  0  0  0  0  0  0  0  0
    5.3018   -8.9342   -0.9765 C   0  0  0  0  0  0  0  0  0  0  0  0
    5.0931   -7.7552   -1.7052 C   0  0  0  0  0  0  0  0  0  0  0  0
    3.9502   -6.9966   -1.6202 C   0  0  0  0  0  0  0  0  0  0  0  0
    2.9981   -7.4941   -0.7271 C   0  0  0  0  0  0  0  0  0  0  0  0
    1.6670   -6.9886   -0.4068 C   0  0  0  0  0  0  0  0  0  0  0  0
    0.9071   -6.1788   -1.2120 C   0  0  0  0  0  0  0  0  0  0  0  0
    1.3882   -5.5209   -2.3593 C   0  0  0  0  0  0  0  0  0  0  0  0
    1.7320   -4.9326   -3.2839 N   0  0  0  0  0  0  0  0  0  0  0  0
   -0.4746   -5.9787   -1.0096 C   0  0  0  0  0  0  0  0  0  0  0  0
   -1.6086   -5.8341   -0.9012 N   0  0  0  0  0  0  0  0  0  0  0  0
    6.4398   -7.8368   -2.3789 C   0  0  0  0  0  0  0  0  0  0  0  0
    7.5404   -6.9009   -1.8359 C   0  0  0  0  0  0  0  0  0  0  0  0
    8.8240   -7.5251   -2.3336 C   0  0  0  0  0  0  0  0  0  0  0  0
    9.0221   -8.6425   -1.6460 C   0  0  0  0  0  0  0  0  0  0  0  0
    7.8759   -8.7921   -0.6718 C   0  0  0  0  0  0  0  0  0  0  0  0
    7.6008   -7.3153   -0.3600 C   0  0  0  0  0  0  0  0  0  0  0  0
    6.6725   -9.1524   -1.5689 C   0  0  0  0  0  0  0  0  0  0  0  0
   -0.3972   -6.2303    1.9409 C   0  0  0  0  0  0  0  0  0  0  0  0
   -1.6203   -6.0145    2.5690 C   0  0  0  0  0  0  0  0  0  0  0  0
   -2.5234   -7.0634    3.0462 C   0  0  0  0  0  0  0  0  0  0  0  0
   -3.8498   -7.0600    2.6239 C   0  0  0  0  0  0  0  0  0  0  0  0
   -4.7145   -8.0415    3.0696 C   0  0  0  0  0  0  0  0  0  0  0  0
   -4.2701   -9.0202    3.9406 C   0  0  0  0  0  0  0  0  0  0  0  0
   -2.9525   -9.0295    4.3833 C   0  0  0  0  0  0  0  0  0  0  0  0
   -2.4837  -10.0577    5.3720 C   0  0  0  0  0  0  0  0  0  0  0  0
   -2.7257   -9.5717    6.8024 C   0  0  0  0  0  0  0  0  0  0  0  0
   -2.0881   -8.0439    3.9320 C   0  0  0  0  0  0  0  0  0  0  0  0
   -1.9306   -4.6473    2.6277 C   0  0  0  0  0  0  0  0  0  0  0  0
   -3.3128   -3.7683    3.2374 S   0  0  0  0  0  0  0  0  0  0  0  0
   -2.5549   -2.2870    2.7638 C   0  0  0  0  0  0  0  0  0  0  0  0
   -2.8175   -0.9055    2.7622 C   0  0  0  0  0  0  0  0  0  0  0  0
   -3.8396   -0.1077    3.3283 C   0  0  0  0  0  0  0  0  0  0  0  0
   -3.7441    1.3273    3.2397 C   0  0  0  0  0  0  0  0  0  0  0  0
   -4.7302    1.9360    3.8779 N   0  0  0  0  0  0  0  0  0  0  0  0
   -5.6990    0.8134    4.5258 S   0  0  0  0  0  0  0  0  0  0  0  0
   -4.8974   -0.4979    4.0205 N   0  0  0  0  0  0  0  0  0  0  0  0
   -2.7175    1.9051    2.4557 C   0  0  0  0  0  0  0  0  0  0  0  0
   -2.4585    3.2157    2.0233 C   0  0  0  0  0  0  0  0  0  0  0  0
   -3.0608    4.8200    2.2622 S   0  0  0  0  0  0  0  0  0  0  0  0
   -1.9041    5.4026    1.0791 C   0  0  0  0  0  0  0  0  0  0  0  0
   -1.6129    6.6688    0.5819 C   0  0  0  0  0  0  0  0  0  0  0  0
   -2.2755    7.8859    1.0403 C   0  0  0  0  0  0  0  0  0  0  0  0
   -3.6599    7.9023    1.1965 C   0  0  0  0  0  0  0  0  0  0  0  0
   -4.2854    9.0385    1.6716 C   0  0  0  0  0  0  0  0  0  0  0  0
   -3.5431   10.1559    2.0076 C   0  0  0  0  0  0  0  0  0  0  0  0
   -2.1595   10.1580    1.8670 C   0  0  0  0  0  0  0  0  0  0  0  0
   -1.3627   11.3793    2.2251 C   0  0  0  0  0  0  0  0  0  0  0  0
   -1.6396   12.5220    1.2471 C   0  0  0  0  0  0  0  0  0  0  0  0
   -1.5379    9.0197    1.3800 C   0  0  0  0  0  0  0  0  0  0  0  0
   -0.5860    6.6182   -0.3883 C   0  0  0  0  0  0  0  0  0  0  0  0
    0.0550    4.9865   -0.5916 S   0  0  0  0  0  0  0  0  0  0  0  0
   -1.0937    4.3859    0.5426 C   0  0  0  0  0  0  0  0  0  0  0  0
   -1.4108    3.1436    1.0919 C   0  0  0  0  0  0  0  0  0  0  0  0
   -0.9888    1.8444    0.9549 N   0  0  0  0  0  0  0  0  0  0  0  0
   -1.7607    1.0796    1.8043 C   0  0  0  0  0  0  0  0  0  0  0  0
   -1.7159   -0.2973    2.1050 C   0  0  0  0  0  0  0  0  0  0  0  0
   -0.7727   -1.2570    1.7921 N   0  0  0  0  0  0  0  0  0  0  0  0
   -1.2936   -2.4665    2.1767 C   0  0  0  0  0  0  0  0  0  0  0  0
   -0.9344   -3.8127    2.1081 C   0  0  0  0  0  0  0  0  0  0  0  0
    0.4031   -4.7177    1.5113 S   0  0  0  0  0  0  0  0  0  0  0  0
    0.6606   -1.0573    1.7105 C   0  0  0  0  0  0  0  0  0  0  0  0
    1.3479   -1.4462    3.0192 C   0  0  0  0  0  0  0  0  0  0  0  0
   -0.3623    1.4110   -0.2792 C   0  0  0  0  0  0  0  0  0  0  0  0
   -1.2862    1.6387   -1.4747 C   0  0  0  0  0  0  0  0  0  0  0  0
   -0.2411    7.7166   -1.1744 C   0  0  0  0  0  0  0  0  0  0  0  0
    0.7208    7.8504   -2.1540 C   0  0  0  0  0  0  0  0  0  0  0  0
    1.7114    6.8440   -2.5294 C   0  0  0  0  0  0  0  0  0  0  0  0
    1.8328    5.7092   -2.1015 O   0  0  0  0  0  0  0  0  0  0  0  0
    2.5708    7.4779   -3.5520 C   0  0  0  0  0  0  0  0  0  0  0  0
    3.6605    6.9433   -4.2088 C   0  0  0  0  0  0  0  0  0  0  0  0
    4.3085    7.7454   -5.1345 C   0  0  0  0  0  0  0  0  0  0  0  0
    5.3717    7.2692   -5.7955 F   0  0  0  0  0  0  0  0  0  0  0  0
    3.8643    9.0435   -5.3834 C   0  0  0  0  0  0  0  0  0  0  0  0
    4.5103    9.7972   -6.2810 F   0  0  0  0  0  0  0  0  0  0  0  0
    2.7672    9.5788   -4.7236 C   0  0  0  0  0  0  0  0  0  0  0  0
    2.1137    8.7832   -3.7964 C   0  0  0  0  0  0  0  0  0  0  0  0
    0.9459    9.0372   -2.9492 C   0  0  0  0  0  0  0  0  0  0  0  0
    0.2072   10.1931   -2.9599 C   0  0  0  0  0  0  0  0  0  0  0  0
   -0.9442   10.4483   -2.1878 C   0  0  0  0  0  0  0  0  0  0  0  0
   -1.8874   10.7513   -1.6053 N   0  0  0  0  0  0  0  0  0  0  0  0
    0.4975   11.3090   -3.7729 C   0  0  0  0  0  0  0  0  0  0  0  0
    0.6782   12.2526   -4.4013 N   0  0  0  0  0  0  0  0  0  0  0  0
   -0.0826   -8.3104    2.2702 H   0  0  0  0  0  0  0  0  0  0  0  0
    4.5008  -10.3440    0.4808 H   0  0  0  0  0  0  0  0  0  0  0  0
    3.7963   -6.0894   -2.1815 H   0  0  0  0  0  0  0  0  0  0  0  0
    6.4235   -7.8892   -3.4658 H   0  0  0  0  0  0  0  0  0  0  0  0
    7.3912   -5.8472   -2.0557 H   0  0  0  0  0  0  0  0  0  0  0  0
    9.4065   -7.1320   -3.1460 H   0  0  0  0  0  0  0  0  0  0  0  0
    9.8034   -9.3693   -1.7694 H   0  0  0  0  0  0  0  0  0  0  0  0
    8.0334   -9.4612    0.1699 H   0  0  0  0  0  0  0  0  0  0  0  0
    8.4297   -6.8446    0.1662 H   0  0  0  0  0  0  0  0  0  0  0  0
    6.6763   -7.1423    0.1880 H   0  0  0  0  0  0  0  0  0  0  0  0
    6.8123  -10.0826   -2.1161 H   0  0  0  0  0  0  0  0  0  0  0  0
   -4.1877   -6.3052    1.9307 H   0  0  0  0  0  0  0  0  0  0  0  0
   -5.7407   -8.0432    2.7339 H   0  0  0  0  0  0  0  0  0  0  0  0
   -4.9508   -9.7862    4.2828 H   0  0  0  0  0  0  0  0  0  0  0  0
   -1.4184  -10.2500    5.2311 H   0  0  0  0  0  0  0  0  0  0  0  0
   -3.0233  -10.9934    5.2138 H   0  0  0  0  0  0  0  0  0  0  0  0
   -2.1862   -8.6448    6.9842 H   0  0  0  0  0  0  0  0  0  0  0  0
   -3.7852   -9.3873    6.9656 H   0  0  0  0  0  0  0  0  0  0  0  0
   -2.3880  -10.3167    7.5188 H   0  0  0  0  0  0  0  0  0  0  0  0
   -1.0697   -8.0250    4.2944 H   0  0  0  0  0  0  0  0  0  0  0  0
   -4.2399    7.0331    0.9261 H   0  0  0  0  0  0  0  0  0  0  0  0
   -5.3591    9.0498    1.7843 H   0  0  0  0  0  0  0  0  0  0  0  0
   -4.0395   11.0344    2.3920 H   0  0  0  0  0  0  0  0  0  0  0  0
   -1.6235   11.7008    3.2368 H   0  0  0  0  0  0  0  0  0  0  0  0
   -0.2976   11.1396    2.2113 H   0  0  0  0  0  0  0  0  0  0  0  0
   -1.0000   13.3733    1.4683 H   0  0  0  0  0  0  0  0  0  0  0  0
   -2.6762   12.8413    1.3139 H   0  0  0  0  0  0  0  0  0  0  0  0
   -1.4542   12.1970    0.2261 H   0  0  0  0  0  0  0  0  0  0  0  0
   -0.4596    8.9941    1.3006 H   0  0  0  0  0  0  0  0  0  0  0  0
    0.8605   -0.0042    1.5192 H   0  0  0  0  0  0  0  0  0  0  0  0
    1.0562   -1.6634    0.8890 H   0  0  0  0  0  0  0  0  0  0  0  0
    1.2291   -2.5062    3.2249 H   0  0  0  0  0  0  0  0  0  0  0  0
    2.4095   -1.2266    2.9492 H   0  0  0  0  0  0  0  0  0  0  0  0
    0.9273   -0.8796    3.8473 H   0  0  0  0  0  0  0  0  0  0  0  0
    0.5644    1.9769   -0.4132 H   0  0  0  0  0  0  0  0  0  0  0  0
   -0.1385    0.3485   -0.2179 H   0  0  0  0  0  0  0  0  0  0  0  0
   -0.8086    1.2642   -2.3754 H   0  0  0  0  0  0  0  0  0  0  0  0
   -2.2254    1.1085   -1.3307 H   0  0  0  0  0  0  0  0  0  0  0  0
   -1.4963    2.6957   -1.6104 H   0  0  0  0  0  0  0  0  0  0  0  0
   -0.8502    8.5902   -0.9768 H   0  0  0  0  0  0  0  0  0  0  0  0
    3.9998    5.9386   -4.0132 H   0  0  0  0  0  0  0  0  0  0  0  0
    2.4658   10.5873   -4.9535 H   0  0  0  0  0  0  0  0  0  0  0  0
  1  2  2  0  0  0  0
  2  3  1  0  0  0  0
  3  4  2  0  0  0  0
  3  5  1  0  0  0  0
  5  6  2  0  0  0  0
  6  7  1  0  0  0  0
  7  8  2  0  0  0  0
  8  9  1  0  0  0  0
  9 10  2  0  0  0  0
 10 11  1  0  0  0  0
 11 12  2  0  0  0  0
 12 13  1  0  0  0  0
 13 14  3  0  0  0  0
 12 15  1  0  0  0  0
 15 16  3  0  0  0  0
  8 17  1  0  0  0  0
 17 18  1  0  0  0  0
 18 19  1  0  0  0  0
 19 20  2  0  0  0  0
 20 21  1  0  0  0  0
 21 22  1  0  0  0  0
 21 23  1  0  0  0  0
  1 24  1  0  0  0  0
 24 25  2  0  0  0  0
 25 26  1  0  0  0  0
 26 27  2  0  0  0  0
 27 28  1  0  0  0  0
 28 29  2  0  0  0  0
 29 30  1  0  0  0  0
 30 31  1  0  0  0  0
 31 32  1  0  0  0  0
 30 33  2  0  0  0  0
 25 34  1  0  0  0  0
 34 35  1  0  0  0  0
 35 36  1  0  0  0  0
 36 37  1  0  0  0  0
 37 38  1  0  0  0  0
 38 39  1  0  0  0  0
 39 40  2  0  0  0  0
 40 41  1  0  0  0  0
 41 42  1  0  0  0  0
 39 43  1  0  0  0  0
 43 44  1  0  0  0  0
 44 45  1  0  0  0  0
 45 46  1  0  0  0  0
 46 47  1  0  0  0  0
 47 48  1  0  0  0  0
 48 49  2  0  0  0  0
 49 50  1  0  0  0  0
 50 51  2  0  0  0  0
 51 52  1  0  0  0  0
 52 53  1  0  0  0  0
 53 54  1  0  0  0  0
 52 55  2  0  0  0  0
 47 56  2  0  0  0  0
 56 57  1  0  0  0  0
 57 58  1  0  0  0  0
 58 59  1  0  0  0  0
 59 60  1  0  0  0  0
 60 61  1  0  0  0  0
 61 62  1  0  0  0  0
 62 63  1  0  0  0  0
 63 64  1  0  0  0  0
 64 65  1  0  0  0  0
 65 66  1  0  0  0  0
 63 67  1  0  0  0  0
 67 68  1  0  0  0  0
 60 69  1  0  0  0  0
 69 70  1  0  0  0  0
 56 71  1  0  0  0  0
 71 72  2  0  0  0  0
 72 73  1  0  0  0  0
 73 74  2  0  0  0  0
 73 75  1  0  0  0  0
 75 76  2  0  0  0  0
 76 77  1  0  0  0  0
 77 78  1  0  0  0  0
 77 79  2  0  0  0  0
 79 80  1  0  0  0  0
 79 81  1  0  0  0  0
 81 82  2  0  0  0  0
 82 83  1  0  0  0  0
 83 84  2  0  0  0  0
 84 85  1  0  0  0  0
 85 86  3  0  0  0  0
 84 87  1  0  0  0  0
 87 88  3  0  0  0  0
 11  2  1  0  0  0  0
 23 17  1  0  0  0  0
 66 24  1  0  0  0  0
 83 72  1  0  0  0  0
 10  5  1  0  0  0  0
 22 18  1  0  0  0  0
 33 26  1  0  0  0  0
 65 34  2  0  0  0  0
 82 75  1  0  0  0  0
 23  7  1  0  0  0  0
 64 36  2  0  0  0  0
 62 37  2  0  0  0  0
 42 38  2  0  0  0  0
 61 43  2  0  0  0  0
 59 44  2  0  0  0  0
 58 46  2  0  0  0  0
 55 48  1  0  0  0  0
  1 89  1  0  0  0  0
  6 90  1  0  0  0  0
  9 91  1  0  0  0  0
 17 92  1  0  0  0  0
 18 93  1  0  0  0  0
 19 94  1  0  0  0  0
 20 95  1  0  0  0  0
 21 96  1  0  0  0  0
 22 97  1  0  0  0  0
 22 98  1  0  0  0  0
 23 99  1  0  0  0  0
 27100  1  0  0  0  0
 28101  1  0  0  0  0
 29102  1  0  0  0  0
 31103  1  0  0  0  0
 31104  1  0  0  0  0
 32105  1  0  0  0  0
 32106  1  0  0  0  0
 32107  1  0  0  0  0
 33108  1  0  0  0  0
 49109  1  0  0  0  0
 50110  1  0  0  0  0
 51111  1  0  0  0  0
 53112  1  0  0  0  0
 53113  1  0  0  0  0
 54114  1  0  0  0  0
 54115  1  0  0  0  0
 54116  1  0  0  0  0
 55117  1  0  0  0  0
 67118  1  0  0  0  0
 67119  1  0  0  0  0
 68120  1  0  0  0  0
 68121  1  0  0  0  0
 68122  1  0  0  0  0
 69123  1  0  0  0  0
 69124  1  0  0  0  0
 70125  1  0  0  0  0
 70126  1  0  0  0  0
 70127  1  0  0  0  0
 71128  1  0  0  0  0
 76129  1  0  0  0  0
 81130  1  0  0  0  0
M  END
