107

C         -2.64130        4.15640       -3.31940
C         -2.77960        5.08310       -2.31570
C         -2.36930        4.91950       -0.91950
O         -1.81180        3.95780       -0.41490
C         -2.76170        6.15540       -0.22250
C         -2.58210        6.45070        1.12640
C         -3.04680        7.69060        1.49360
C         -3.65060        8.57020        0.58590
C         -3.83760        8.28850       -0.74690
C         -3.36690        7.03400       -1.14350
C         -3.38130        6.39360       -2.45870
C         -3.87260        6.96120       -3.60780
C         -3.88250        6.36590       -4.88600
N         -3.92960        5.96170       -5.96110
C         -4.44470        8.24810       -3.68380
N         -4.92360        9.28160       -3.83030
C         -3.86410        9.63270        1.63450
C         -2.90020       10.84490        1.63750
C         -1.60730       10.36680        1.02460
C         -1.03500        9.53470        1.88430
C         -1.93100        9.43480        3.09410
C         -2.50630       10.85970        3.12320
C         -3.19070        8.65270        2.64620
C         -2.08990        2.87110       -3.31290
C         -2.06650        2.04290       -4.44890
C         -2.65010        2.37490       -5.78340
C         -4.15140        2.07520       -5.81030
C         -1.47260        0.81880       -4.17190
S         -1.17670       -0.60410       -5.15650
C         -0.44940       -1.36190       -3.78400
C          0.17520       -2.56950       -3.44520
C          0.45580       -3.68210       -4.27910
C          1.15200       -4.77510       -3.71210
N          1.47710       -5.84560       -4.44560
C          1.11210       -5.82730       -5.70960
C          0.41410       -4.75050       -6.26800
N          0.08840       -3.68680       -5.56530
C          1.47780       -4.71120       -2.33310
C          2.09890       -5.68450       -1.53900
S          2.76930       -7.26960       -1.69750
C          3.11240       -7.25970        0.02310
C          3.70400       -8.19400        0.86660
C          4.15220       -9.53680        0.38680
C          3.06840      -10.59070        0.62950
C          3.75960       -7.73040        2.18860
S          3.07450       -6.11520        2.35450
C          2.71800       -6.07760        0.66910
C          2.14060       -5.18110       -0.23660
N          1.57000       -3.93850       -0.19890
C          1.16880       -3.60940       -1.47890
C          0.54150       -2.47900       -2.06730
N          0.17280       -1.22950       -1.61040
C         -0.43830       -0.56280       -2.63720
C         -1.02050        0.69000       -2.84710
S         -1.34850        2.09840       -1.91040
C          0.36310       -0.53680       -0.35790
C         -0.88910       -0.59530        0.51690
C          1.46350       -3.27110        1.07710
C          2.76090       -2.55140        1.44570
C          4.29890       -8.48020        3.24600
C          4.42320       -8.22060        4.58660
C          5.01810       -9.22060        5.38500
N          5.50230      -10.05530        6.00580
C          3.99890       -7.00890        5.28670
O          3.48330       -6.03760        4.76830
O          4.26380       -7.08690        6.59450
C          3.89080       -5.97500        7.40460
C          2.41580       -6.02680        7.77790
H         -3.02620        4.44840       -4.28670
H         -2.11380        5.74200        1.79150
H         -4.30750        8.97670       -1.42920
H         -4.89680        9.92360        1.81600
H         -3.32040       11.75630        1.22100
H         -1.28060       10.62980        0.03560
H         -0.13430        8.96310        1.75710
H         -1.46860        9.06300        4.00480
H         -1.75400       11.61300        3.35200
H         -3.35540       10.97140        3.79610
H         -3.78390        8.30340        3.48920
H         -2.48590        3.42370       -6.03500
H         -2.15120        1.76030       -6.53520
H         -4.33020        1.02230       -5.60540
H         -4.55710        2.31530       -6.78890
H         -4.67600        2.66870       -5.06500
H          1.38030       -6.69430       -6.29740
H          0.11340       -4.74810       -7.30660
H          5.07780       -9.83700        0.88090
H          4.34600       -9.46650       -0.68530
H          3.39950      -11.55780        0.26060
H          2.15490      -10.31500        0.10810
H          2.84630      -10.68030        1.69060
H          0.56510        0.51170       -0.59950
H          1.23730       -0.93100        0.15240
H         -1.23110       -1.61930        0.65640
H         -1.69190       -0.03080        0.05060
H         -0.68180       -0.15430        1.48770
H          1.27350       -4.04510        1.82760
H          0.61030       -2.59900        1.07400
H          2.62110       -1.98280        2.36060
H          3.55160       -3.27820        1.61210
H          3.08200       -1.87740        0.65340
H          4.68440       -9.44770        2.94150
H          4.52390       -6.05210        8.29060
H          4.11380       -5.04860        6.86370
H          2.18560       -6.97450        8.25920
H          1.80110       -5.92340        6.88660
H          2.18480       -5.21490        8.46140
