115

C         -4.45780        3.72300       -3.95330
C         -5.55830        3.31810       -3.26260
C         -6.85500        3.13280       -3.96520
O         -7.15510        3.55730       -5.05860
C         -7.65550        2.26960       -3.07330
C         -8.89200        1.68920       -3.34640
C         -9.37430        0.89470       -2.33390
C         -8.68240        0.69040       -1.13200
C         -7.46920        1.26720       -0.84130
C         -6.96060        2.07530       -1.86020
C         -5.72970        2.85820       -1.90240
C         -5.02300        3.29930       -0.81330
C         -4.03400        4.30160       -0.89780
N         -3.25990        5.14930       -0.92240
C         -5.24100        2.86520        0.50770
N         -5.34370        2.52330        1.59940
C         -9.73770       -0.23950       -0.58940
C         -9.44290       -1.75980       -0.62240
C         -8.47910       -1.98690       -1.76050
C         -9.13820       -1.79160       -2.89480
C        -10.55980       -1.42800       -2.54400
C        -10.74500       -2.26220       -1.26630
C        -10.51140       -0.00860       -1.92560
C         -3.09610        3.54590       -3.62430
C         -2.01520        4.22020       -4.17880
C         -2.12820        5.36650       -5.12580
C         -2.48050        6.65010       -4.36990
C         -0.80280        3.76560       -3.64880
S          0.86040        4.24070       -3.91190
C          1.35610        3.05880       -2.75430
C          2.52970        2.60930       -2.12760
C          3.86090        3.07890       -2.27220
C          4.86100        2.51070       -1.44530
N          6.12540        2.94530       -1.49180
C          6.38830        3.91050       -2.34600
C          5.40420        4.45780       -3.17750
N          4.15370        4.05130       -3.14290
C          4.49190        1.43190       -0.60040
C          5.29910        0.61600        0.20350
S          6.95890        0.46960        0.66120
C          6.54500       -0.97760        1.56620
C          7.30580       -1.85580        2.31890
C          8.77220       -1.66030        2.53420
C          9.04030       -0.95090        3.86430
C          6.51430       -2.88260        2.87860
S          4.81730       -2.72420        2.42520
C          5.17860       -1.31110        1.50680
C          4.47660       -0.38850        0.72780
N          3.19190       -0.21330        0.28590
C          3.16660        0.91040       -0.51140
C          2.14150        1.58890       -1.21310
N          0.76460        1.44270       -1.26740
C          0.29750        2.33290       -2.20050
C         -0.93750        2.73120       -2.71400
S         -2.58770        2.29510       -2.48940
C         -0.17330        0.98660       -0.26230
C         -0.51560        2.10720        0.71890
C          2.22320       -1.26800        0.47920
C          1.61270       -1.23420        1.88020
C          7.05860       -3.88320        3.68300
C          6.51780       -4.93860        4.40260
C          5.08300       -5.18850        4.42580
O          4.28060       -4.54360        3.75280
N          4.60960       -6.18200        5.24370
C          3.16710       -6.39880        5.27540
C          2.72490       -7.32310        4.14850
C          5.39430       -7.03970        6.00880
O          4.88610       -7.90730        6.68690
C          6.83200       -6.80010        5.91810
C          7.37650       -5.80080        5.15910
C          8.86490       -5.62630        5.12870
C          7.63910       -7.67520        6.67600
N          8.30100       -8.38360        7.28910
H         -4.65750        4.16160       -4.92640
H         -9.39540        1.87060       -4.28310
H         -6.94000        1.10340        0.08350
H        -10.21570        0.06990        0.33780
H         -9.16140       -2.18550        0.33710
H         -7.43510       -2.20340       -1.62750
H         -8.75510       -1.81230       -3.89830
H        -11.29590       -1.55200       -3.33390
H        -10.73370       -3.33410       -1.45810
H        -11.63810       -1.99870       -0.70150
H        -11.49460        0.45470       -1.87130
H         -2.89670        5.16240       -5.87430
H         -1.17060        5.49400       -5.63440
H         -3.43030        6.53850       -3.85240
H         -1.71500        6.87440       -3.63150
H         -2.55280        7.48370       -5.06340
H          7.41170        4.25820       -2.37520
H          5.63300        5.24300       -3.88470
H          9.15380       -1.04150        1.71980
H          9.30120       -2.61480        2.50810
H          8.65190       -1.53000        4.69920
H         10.10890       -0.80940        4.00360
H          8.55880        0.02360        3.87050
H          0.22600        0.14070        0.28260
H         -1.07840        0.66750       -0.78810
H         -0.95590        2.95590        0.20100
H          0.38030        2.44570        1.23570
H         -1.23050        1.74650        1.45340
H          1.46930       -1.20650       -0.30710
H          2.74970       -2.22050        0.35610
H          2.36660       -1.49990        2.61610
H          0.80360       -1.95590        1.94770
H          1.22970       -0.24660        2.12700
H          8.13240       -3.78960        3.77060
H          2.93390       -6.84310        6.24450
H          2.68460       -5.42410        5.17990
H          2.97120       -6.88390        3.18440
H          1.65040       -7.47460        4.20080
H          3.21890       -8.28760        4.24010
H          9.14800       -4.65560        5.53540
H          9.24100       -5.69920        4.10890
H          9.34460       -6.39670        5.72680
