130

C         -6.28300        2.39130        2.83380
C         -6.94220        1.22250        3.11920
C         -6.56060       -0.11640        2.66490
O         -5.55380       -0.43420        2.05160
C         -7.63750       -1.02300        3.09390
C         -7.73150       -2.39010        2.84600
C         -8.86330       -2.97470        3.36120
C         -9.83240       -2.25100        4.06810
C         -9.75100       -0.90160        4.31950
C         -8.60470       -0.28720        3.80860
C         -8.17780        1.11070        3.86800
C         -8.83450        2.11260        4.53630
C         -8.42700        3.46090        4.62110
N         -8.17910        4.57580        4.74920
C        -10.02790        1.93390        5.26690
N        -10.99610        1.86730        5.88090
C        -10.69200       -3.46910        4.29450
C        -10.65760       -4.12430        5.69720
C         -9.31210       -3.79130        6.29270
C         -8.39330       -4.47690        5.62580
C         -9.10090       -5.28570        4.56670
C        -10.42060       -5.58850        5.29410
C         -9.61090       -4.27610        3.50850
C         -5.10220        2.61720        2.11670
C         -4.61240        3.91170        1.86090
C         -5.32810        5.15000        2.15630
C         -6.66470        5.31780        1.79750
C         -7.30940        6.50530        2.08310
C         -6.63310        7.53300        2.71660
C         -5.29630        7.39020        3.06630
C         -4.53390        8.51930        3.69640
C         -3.75690        9.29260        2.62880
C         -4.65360        6.19690        2.77740
C         -3.35580        3.87260        1.26110
S         -2.27900        5.13060        0.68640
C         -1.19420        3.90260        0.13220
C          0.01050        3.79360       -0.57410
C          0.79620        4.76940       -1.22720
C          1.89190        4.33990       -2.04710
N          2.49220        5.34860       -2.65810
S          1.74820        6.72220       -2.23300
N          0.62820        6.08180       -1.25440
C          2.23710        2.96970       -2.06230
C          3.32120        2.29950       -2.64480
S          4.66490        2.63670       -3.68040
C          5.17430        0.96780       -3.50380
C          6.27220        0.26720       -3.99410
C          7.24180        0.90350       -4.88860
C          6.75400        1.58440       -6.00290
C          7.62410        2.26540       -6.83110
C          8.97680        2.29140       -6.54580
C          9.48440        1.62100       -5.43810
C         10.95520        1.66970       -5.14030
C         11.77430        0.97350       -6.22690
C          8.60790        0.92290       -4.61920
C          6.27410       -1.07020       -3.54740
S          4.88580       -1.41650       -2.50870
C          4.33610        0.20740       -2.67070
C          3.26660        0.97270       -2.20010
N          2.16730        0.78630       -1.40090
C          1.50880        2.00130       -1.31070
C          0.30410        2.40120       -0.67600
N         -0.73060        1.69600       -0.09640
C         -1.63360        2.59900        0.39590
C         -2.87960        2.57200        1.03080
S         -4.00080        1.36620        1.54900
C         -1.10170        0.30450       -0.21910
C         -0.95890       -0.44980        1.10190
C          2.18110       -0.31950       -0.46580
C          2.80510        0.10190        0.86270
C          7.23770       -2.00700       -3.92610
C          7.32110       -3.35730       -3.66010
C          6.31280       -4.17380       -2.98340
O          5.32710       -3.80240       -2.37020
C          6.71740       -5.58020       -3.19320
C          6.06480       -6.72990       -2.79920
C          6.66200       -7.93390       -3.14260
F          6.06260       -9.08230       -2.78330
C          7.85520       -7.99870       -3.84560
C          8.50360       -6.83350       -4.22850
C          7.93140       -5.61400       -3.89950
C          8.36980       -4.23790       -4.13000
C          9.60310       -3.87480       -4.60640
C         10.57450       -4.78500       -5.07010
N         11.40170       -5.47100       -5.47440
C         10.10130       -2.55770       -4.61510
N         10.59760       -1.52220       -4.59230
H         -6.73110        3.30380        3.20700
H         -6.96330       -2.90700        2.29230
H        -10.50900       -0.36110        4.86100
H        -11.69760       -3.42670        3.88090
H        -11.52350       -3.90860        6.31720
H         -9.16610       -3.06990        7.07520
H         -7.32560       -4.44270        5.73960
H         -8.54980       -6.12860        4.15780
H        -11.19430       -5.98930        4.64050
H        -10.28740       -6.24540        6.15230
H         -9.91100       -4.76220        2.58210
H         -7.18400        4.52980        1.27130
H         -8.34610        6.63020        1.80870
H         -7.14760        8.45600        2.94030
H         -5.22350        9.19500        4.20500
H         -3.83340        8.12500        4.43520
H         -4.43990        9.70730        1.89080
H         -3.05930        8.63420        2.11600
H         -3.19800       10.10810        3.08150
H         -3.61890        6.06580        3.05980
H          5.69660        1.56600       -6.22030
H          7.24210        2.78880       -7.69500
H          9.64680        2.84970       -7.18290
H         11.26900        2.71480       -5.06680
H         11.15120        1.18300       -4.18520
H         11.59860        1.42460       -7.20060
H         11.50280       -0.07750       -6.27530
H         12.83490        1.04510       -5.99850
H          8.98750        0.42220       -3.74040
H         -0.51540       -0.14540       -1.02160
H         -2.15410        0.27090       -0.52190
H         -1.69990       -0.09330        1.81190
H         -1.12900       -1.51040        0.93940
H          0.02680       -0.31060        1.53750
H          1.18250       -0.71250       -0.30370
H          2.78350       -1.10880       -0.92210
H          2.83180       -0.74430        1.54360
H          3.82260        0.45270        0.70660
H          2.23090        0.90620        1.31870
H          8.01200       -1.59100       -4.56100
H          5.13660       -6.69530       -2.25180
H          8.27040       -8.96420       -4.08810
H          9.42970       -6.89520       -4.77570
