
  xtb     02022217553D
 energy: -207.848240605367 gnorm: 0.000395199756 xtb: 6.4.1 (unknown)
117131  0     0  0            999 V2000
    3.9351   -7.2900   -1.0024 C   0  0  0  0  0  0  0  0  0  0  0  0
    5.0785   -7.3701   -1.7347 C   0  0  0  0  0  0  0  0  0  0  0  0
    5.5053   -8.6685   -2.3195 C   0  0  0  0  0  0  0  0  0  0  0  0
    5.0737   -9.7654   -2.0413 O   0  0  0  0  0  0  0  0  0  0  0  0
    6.5141   -8.3218   -3.3399 C   0  0  0  0  0  0  0  0  0  0  0  0
    7.1311   -9.1839   -4.2439 C   0  0  0  0  0  0  0  0  0  0  0  0
    8.0182   -8.5659   -5.0921 C   0  0  0  0  0  0  0  0  0  0  0  0
    8.2740   -7.1883   -5.0522 C   0  0  0  0  0  0  0  0  0  0  0  0
    7.6815   -6.3264   -4.1603 C   0  0  0  0  0  0  0  0  0  0  0  0
    6.7801   -6.9368   -3.2856 C   0  0  0  0  0  0  0  0  0  0  0  0
    6.0134   -6.3619   -2.1838 C   0  0  0  0  0  0  0  0  0  0  0  0
    6.3282   -5.2089   -1.5123 C   0  0  0  0  0  0  0  0  0  0  0  0
    7.3129   -4.2924   -1.9287 C   0  0  0  0  0  0  0  0  0  0  0  0
    8.0907   -3.5028   -2.2294 N   0  0  0  0  0  0  0  0  0  0  0  0
    5.7705   -4.8700   -0.2618 C   0  0  0  0  0  0  0  0  0  0  0  0
    5.3907   -4.5953    0.7865 N   0  0  0  0  0  0  0  0  0  0  0  0
    9.2539   -7.2562   -6.1963 C   0  0  0  0  0  0  0  0  0  0  0  0
    8.7732   -6.7815   -7.5900 C   0  0  0  0  0  0  0  0  0  0  0  0
    7.2775   -6.9761   -7.6178 C   0  0  0  0  0  0  0  0  0  0  0  0
    7.0394   -8.2804   -7.6539 C   0  0  0  0  0  0  0  0  0  0  0  0
    8.3700   -8.9915   -7.6508 C   0  0  0  0  0  0  0  0  0  0  0  0
    9.2183   -7.9819   -8.4406 C   0  0  0  0  0  0  0  0  0  0  0  0
    8.9728   -8.7913   -6.2382 C   0  0  0  0  0  0  0  0  0  0  0  0
    3.1509   -6.1515   -0.7028 C   0  0  0  0  0  0  0  0  0  0  0  0
    3.1715   -4.7085   -1.7217 S   0  0  0  0  0  0  0  0  0  0  0  0
    2.0002   -3.9619   -0.7046 C   0  0  0  0  0  0  0  0  0  0  0  0
    1.2843   -2.7869   -0.5267 C   0  0  0  0  0  0  0  0  0  0  0  0
    1.1205   -1.5728   -1.0980 O   0  0  0  0  0  0  0  0  0  0  0  0
    0.2295   -0.9053   -0.2906 C   0  0  0  0  0  0  0  0  0  0  0  0
   -0.2153    0.3946   -0.4783 C   0  0  0  0  0  0  0  0  0  0  0  0
    0.0896    1.2461   -1.4902 O   0  0  0  0  0  0  0  0  0  0  0  0
    1.1789    0.9665   -2.3589 C   0  0  0  0  0  0  0  0  0  0  0  0
    2.5280    1.1757   -1.6829 C   0  0  0  0  0  0  0  0  0  0  0  0
   -1.1143    0.8613    0.4966 C   0  0  0  0  0  0  0  0  0  0  0  0
   -1.5337    0.0539    1.5985 C   0  0  0  0  0  0  0  0  0  0  0  0
   -1.0964   -1.2498    1.7799 C   0  0  0  0  0  0  0  0  0  0  0  0
   -1.3992   -2.0973    2.7974 O   0  0  0  0  0  0  0  0  0  0  0  0
   -2.5266   -1.8421    3.6235 C   0  0  0  0  0  0  0  0  0  0  0  0
   -3.8449   -2.0542    2.8901 C   0  0  0  0  0  0  0  0  0  0  0  0
   -0.1929   -1.7127    0.8097 C   0  0  0  0  0  0  0  0  0  0  0  0
    0.5042   -2.9383    0.6329 C   0  0  0  0  0  0  0  0  0  0  0  0
    0.7173   -4.1696    1.1803 N   0  0  0  0  0  0  0  0  0  0  0  0
    1.6158   -4.8100    0.3675 C   0  0  0  0  0  0  0  0  0  0  0  0
    2.2456   -6.0515    0.3384 C   0  0  0  0  0  0  0  0  0  0  0  0
    0.0626   -4.7564    2.3221 C   0  0  0  0  0  0  0  0  0  0  0  0
   -1.2038   -5.5029    1.9094 C   0  0  0  0  0  0  0  0  0  0  0  0
   -2.3907    0.7313    2.4288 O   0  0  0  0  0  0  0  0  0  0  0  0
   -2.5294    1.9605    1.8807 C   0  0  0  0  0  0  0  0  0  0  0  0
   -3.1753    3.1645    2.1266 C   0  0  0  0  0  0  0  0  0  0  0  0
   -4.2157    3.9518    3.2522 S   0  0  0  0  0  0  0  0  0  0  0  0
   -4.1430    5.4250    2.2801 C   0  0  0  0  0  0  0  0  0  0  0  0
   -3.3415    5.2775    1.1407 C   0  0  0  0  0  0  0  0  0  0  0  0
   -2.7888    4.0159    1.0496 C   0  0  0  0  0  0  0  0  0  0  0  0
   -1.9308    3.3611    0.1986 N   0  0  0  0  0  0  0  0  0  0  0  0
   -1.4274    3.9002   -1.0399 C   0  0  0  0  0  0  0  0  0  0  0  0
   -2.4470    3.7499   -2.1663 C   0  0  0  0  0  0  0  0  0  0  0  0
   -1.7800    2.0999    0.6986 C   0  0  0  0  0  0  0  0  0  0  0  0
   -4.7775    6.6391    2.5629 C   0  0  0  0  0  0  0  0  0  0  0  0
   -5.5558    7.0210    3.6300 C   0  0  0  0  0  0  0  0  0  0  0  0
   -5.9008    6.1822    4.7818 C   0  0  0  0  0  0  0  0  0  0  0  0
   -5.6178    5.0105    4.9621 O   0  0  0  0  0  0  0  0  0  0  0  0
   -6.6681    7.0423    5.7000 C   0  0  0  0  0  0  0  0  0  0  0  0
   -7.1903    6.7368    6.9226 C   0  0  0  0  0  0  0  0  0  0  0  0
   -7.8841    7.7349    7.6432 C   0  0  0  0  0  0  0  0  0  0  0  0
   -8.4415    7.4771    8.9118 C   0  0  0  0  0  0  0  0  0  0  0  0
   -9.1063    8.4534    9.6008 C   0  0  0  0  0  0  0  0  0  0  0  0
   -9.2280    9.7252    9.0256 C   0  0  0  0  0  0  0  0  0  0  0  0
   -9.8848   10.6741    9.7194 F   0  0  0  0  0  0  0  0  0  0  0  0
   -8.7072   10.0280    7.7984 C   0  0  0  0  0  0  0  0  0  0  0  0
   -8.0200    9.0342    7.0746 C   0  0  0  0  0  0  0  0  0  0  0  0
   -7.4701    9.3186    5.8022 C   0  0  0  0  0  0  0  0  0  0  0  0
   -6.8031    8.3357    5.1217 C   0  0  0  0  0  0  0  0  0  0  0  0
   -6.1362    8.3330    3.8204 C   0  0  0  0  0  0  0  0  0  0  0  0
   -6.1010    9.3981    2.9540 C   0  0  0  0  0  0  0  0  0  0  0  0
   -5.4833    9.4151    1.6875 C   0  0  0  0  0  0  0  0  0  0  0  0
   -5.0103    9.5157    0.6445 N   0  0  0  0  0  0  0  0  0  0  0  0
   -6.7023   10.6469    3.2122 C   0  0  0  0  0  0  0  0  0  0  0  0
   -7.1666   11.6877    3.3545 N   0  0  0  0  0  0  0  0  0  0  0  0
    3.5358   -8.2403   -0.6602 H   0  0  0  0  0  0  0  0  0  0  0  0
    6.9086  -10.2395   -4.2435 H   0  0  0  0  0  0  0  0  0  0  0  0
    7.8808   -5.2674   -4.1374 H   0  0  0  0  0  0  0  0  0  0  0  0
   10.2676   -6.9289   -5.9741 H   0  0  0  0  0  0  0  0  0  0  0  0
    9.1352   -5.7991   -7.8815 H   0  0  0  0  0  0  0  0  0  0  0  0
    6.5676   -6.1726   -7.5517 H   0  0  0  0  0  0  0  0  0  0  0  0
    6.0909   -8.7840   -7.6238 H   0  0  0  0  0  0  0  0  0  0  0  0
    8.3650  -10.0213   -7.9982 H   0  0  0  0  0  0  0  0  0  0  0  0
   10.2882   -8.1785   -8.3869 H   0  0  0  0  0  0  0  0  0  0  0  0
    8.9116   -7.8975   -9.4821 H   0  0  0  0  0  0  0  0  0  0  0  0
    9.8036   -9.4662   -6.0419 H   0  0  0  0  0  0  0  0  0  0  0  0
    1.0495    1.6834   -3.1749 H   0  0  0  0  0  0  0  0  0  0  0  0
    1.1029   -0.0463   -2.7618 H   0  0  0  0  0  0  0  0  0  0  0  0
    2.5889    2.1786   -1.2660 H   0  0  0  0  0  0  0  0  0  0  0  0
    3.3219    1.0470   -2.4124 H   0  0  0  0  0  0  0  0  0  0  0  0
    2.6730    0.4545   -0.8831 H   0  0  0  0  0  0  0  0  0  0  0  0
   -2.4794   -0.8344    4.0435 H   0  0  0  0  0  0  0  0  0  0  0  0
   -2.4243   -2.5700    4.4331 H   0  0  0  0  0  0  0  0  0  0  0  0
   -3.8840   -3.0553    2.4663 H   0  0  0  0  0  0  0  0  0  0  0  0
   -3.9590   -1.3287    2.0890 H   0  0  0  0  0  0  0  0  0  0  0  0
   -4.6689   -1.9328    3.5868 H   0  0  0  0  0  0  0  0  0  0  0  0
    2.1040   -6.8417    1.0530 H   0  0  0  0  0  0  0  0  0  0  0  0
   -0.1904   -3.9526    3.0141 H   0  0  0  0  0  0  0  0  0  0  0  0
    0.7678   -5.4392    2.8024 H   0  0  0  0  0  0  0  0  0  0  0  0
   -1.6772   -5.9423    2.7828 H   0  0  0  0  0  0  0  0  0  0  0  0
   -0.9686   -6.2950    1.2018 H   0  0  0  0  0  0  0  0  0  0  0  0
   -1.9030   -4.8143    1.4416 H   0  0  0  0  0  0  0  0  0  0  0  0
   -3.1935    6.0817    0.4422 H   0  0  0  0  0  0  0  0  0  0  0  0
   -0.5139    3.3627   -1.2933 H   0  0  0  0  0  0  0  0  0  0  0  0
   -1.1946    4.9565   -0.8795 H   0  0  0  0  0  0  0  0  0  0  0  0
   -2.6463    2.6970   -2.3485 H   0  0  0  0  0  0  0  0  0  0  0  0
   -3.3803    4.2434   -1.9055 H   0  0  0  0  0  0  0  0  0  0  0  0
   -2.0596    4.1944   -3.0785 H   0  0  0  0  0  0  0  0  0  0  0  0
   -4.5944    7.3945    1.8083 H   0  0  0  0  0  0  0  0  0  0  0  0
   -7.0733    5.7465    7.3367 H   0  0  0  0  0  0  0  0  0  0  0  0
   -8.3339    6.4894    9.3344 H   0  0  0  0  0  0  0  0  0  0  0  0
   -9.5383    8.2728   10.5724 H   0  0  0  0  0  0  0  0  0  0  0  0
   -8.8202   11.0185    7.3860 H   0  0  0  0  0  0  0  0  0  0  0  0
   -7.5904   10.3124    5.4024 H   0  0  0  0  0  0  0  0  0  0  0  0
  1  2  2  0  0  0  0
  2  3  1  0  0  0  0
  3  4  2  0  0  0  0
  3  5  1  0  0  0  0
  5  6  2  0  0  0  0
  6  7  1  0  0  0  0
  7  8  2  0  0  0  0
  8  9  1  0  0  0  0
  9 10  2  0  0  0  0
 10 11  1  0  0  0  0
 11 12  2  0  0  0  0
 12 13  1  0  0  0  0
 13 14  3  0  0  0  0
 12 15  1  0  0  0  0
 15 16  3  0  0  0  0
  8 17  1  0  0  0  0
 17 18  1  0  0  0  0
 18 19  1  0  0  0  0
 19 20  2  0  0  0  0
 20 21  1  0  0  0  0
 21 22  1  0  0  0  0
 21 23  1  0  0  0  0
  1 24  1  0  0  0  0
 24 25  1  0  0  0  0
 25 26  1  0  0  0  0
 26 27  1  0  0  0  0
 27 28  1  0  0  0  0
 28 29  1  0  0  0  0
 29 30  2  0  0  0  0
 30 31  1  0  0  0  0
 31 32  1  0  0  0  0
 32 33  1  0  0  0  0
 30 34  1  0  0  0  0
 34 35  2  0  0  0  0
 35 36  1  0  0  0  0
 36 37  1  0  0  0  0
 37 38  1  0  0  0  0
 38 39  1  0  0  0  0
 36 40  2  0  0  0  0
 40 41  1  0  0  0  0
 41 42  1  0  0  0  0
 42 43  1  0  0  0  0
 43 44  1  0  0  0  0
 42 45  1  0  0  0  0
 45 46  1  0  0  0  0
 35 47  1  0  0  0  0
 47 48  1  0  0  0  0
 48 49  1  0  0  0  0
 49 50  1  0  0  0  0
 50 51  1  0  0  0  0
 51 52  2  0  0  0  0
 52 53  1  0  0  0  0
 53 54  1  0  0  0  0
 54 55  1  0  0  0  0
 55 56  1  0  0  0  0
 54 57  1  0  0  0  0
 51 58  1  0  0  0  0
 58 59  2  0  0  0  0
 59 60  1  0  0  0  0
 60 61  2  0  0  0  0
 60 62  1  0  0  0  0
 62 63  2  0  0  0  0
 63 64  1  0  0  0  0
 64 65  2  0  0  0  0
 65 66  1  0  0  0  0
 66 67  2  0  0  0  0
 67 68  1  0  0  0  0
 67 69  1  0  0  0  0
 69 70  2  0  0  0  0
 70 71  1  0  0  0  0
 71 72  2  0  0  0  0
 72 73  1  0  0  0  0
 73 74  2  0  0  0  0
 74 75  1  0  0  0  0
 75 76  3  0  0  0  0
 74 77  1  0  0  0  0
 77 78  3  0  0  0  0
 11  2  1  0  0  0  0
 23 17  1  0  0  0  0
 44 24  2  0  0  0  0
 57 48  2  0  0  0  0
 73 59  1  0  0  0  0
 10  5  1  0  0  0  0
 22 18  1  0  0  0  0
 43 26  2  0  0  0  0
 53 49  2  0  0  0  0
 72 62  1  0  0  0  0
 23  7  1  0  0  0  0
 41 27  2  0  0  0  0
 70 64  1  0  0  0  0
 40 29  1  0  0  0  0
 57 34  1  0  0  0  0
  1 79  1  0  0  0  0
  6 80  1  0  0  0  0
  9 81  1  0  0  0  0
 17 82  1  0  0  0  0
 18 83  1  0  0  0  0
 19 84  1  0  0  0  0
 20 85  1  0  0  0  0
 21 86  1  0  0  0  0
 22 87  1  0  0  0  0
 22 88  1  0  0  0  0
 23 89  1  0  0  0  0
 32 90  1  0  0  0  0
 32 91  1  0  0  0  0
 33 92  1  0  0  0  0
 33 93  1  0  0  0  0
 33 94  1  0  0  0  0
 38 95  1  0  0  0  0
 38 96  1  0  0  0  0
 39 97  1  0  0  0  0
 39 98  1  0  0  0  0
 39 99  1  0  0  0  0
 44100  1  0  0  0  0
 45101  1  0  0  0  0
 45102  1  0  0  0  0
 46103  1  0  0  0  0
 46104  1  0  0  0  0
 46105  1  0  0  0  0
 52106  1  0  0  0  0
 55107  1  0  0  0  0
 55108  1  0  0  0  0
 56109  1  0  0  0  0
 56110  1  0  0  0  0
 56111  1  0  0  0  0
 58112  1  0  0  0  0
 63113  1  0  0  0  0
 65114  1  0  0  0  0
 66115  1  0  0  0  0
 69116  1  0  0  0  0
 71117  1  0  0  0  0
M  END
