110

C         -6.46710       -1.39310        0.01160
C         -6.80500       -0.92340        1.25620
C         -5.90590       -0.27410        2.21300
O         -4.70850       -0.07150        2.09010
C         -6.73290        0.10330        3.37110
C         -6.31160        0.76350        4.52330
C         -7.31520        0.99530        5.43290
C         -8.63980        0.59480        5.21430
C         -9.06720       -0.06180        4.08450
C         -8.06270       -0.30350        3.14250
C         -8.13280       -0.95780        1.83610
C         -9.26620       -1.50180        1.28560
C        -10.53560       -1.49870        1.90040
N        -11.59870       -1.53750        2.33290
C         -9.35090       -2.14750        0.03480
N         -9.51110       -2.68980       -0.96610
C         -9.11280        1.15940        6.53060
C         -9.87150        2.50200        6.47050
C         -9.78010        3.03250        7.88310
C         -8.52580        3.41230        8.09100
C         -7.74840        3.14530        6.82220
C         -8.84410        3.40940        5.78140
C         -7.63560        1.60650        6.77450
C         -5.24340       -1.40060       -0.66660
C         -5.09510       -1.90690       -1.96910
C         -6.16550       -2.55720       -2.78310
C         -6.30750       -4.03510       -2.40880
C         -3.78560       -1.78390       -2.41510
S         -3.01230       -2.20360       -3.93290
C         -1.52620       -1.58320       -3.30750
C         -0.20420       -1.38170       -3.72700
C          0.37130       -1.60400       -5.00510
C          1.71480       -1.20540       -5.20610
N          2.30170       -1.32820       -6.40170
C          1.57290       -1.84500       -7.36760
C          0.25070       -2.25650       -7.16400
N         -0.34830       -2.13680       -5.99880
C          2.43310       -0.70240       -4.09030
C          3.78430       -0.34090       -4.00070
S          5.17250       -0.22180       -5.02190
C          6.11360        0.27380       -3.62700
C          7.45280        0.60860       -3.47400
C          8.40920        0.65470       -4.62040
C          8.51090        2.07400       -5.18590
C          7.74840        0.94400       -2.14200
S          6.33320        0.82080       -1.09520
C          5.36710        0.33750       -2.43750
C          4.03250       -0.01110       -2.66370
N          2.88010       -0.12530       -1.93220
C          1.87730       -0.54450       -2.78680
C          0.49300       -0.80180       -2.62660
N         -0.39950       -0.63340       -1.58420
C         -1.62030       -1.09450       -1.99970
C         -2.91500       -1.19620       -1.48150
S         -3.72500       -0.77640       -0.01890
C         -0.31600        0.18710       -0.39690
C         -0.12180        1.65940       -0.75110
C          2.95310       -0.13990       -0.48830
C          2.76880       -1.55150        0.06370
C          9.02290        1.33610       -1.71840
C          9.49220        1.70790       -0.48440
C          8.71770        1.76750        0.76920
O          7.54040        1.49940        0.93340
C          9.67810        2.21330        1.77180
S          9.65450        2.54780        3.44740
C         11.32840        2.95900        3.39010
C         11.88440        2.84700        2.14990
C         10.93050        2.41430        1.20870
C         10.86100        2.10790       -0.20850
C         11.92230        2.20110       -1.07240
C         13.19800        2.61300       -0.63340
N         14.24470        2.94660       -0.30190
C         11.89980        1.91660       -2.45120
N         11.95370        1.70350       -3.57930
H         -7.27340       -1.82660       -0.56390
H         -5.27940        1.05030        4.65130
H        -10.08990       -0.36460        3.93620
H         -9.56240        0.44660        7.21920
H        -10.86390        2.44450        6.03200
H        -10.59700        3.02530        8.58060
H         -8.08560        3.78580        8.99700
H         -6.80700        3.67530        6.70470
H         -8.58230        3.09720        4.77200
H         -9.15810        4.45180        5.76990
H         -7.09990        1.19220        7.62660
H         -7.12490       -2.05620       -2.64710
H         -5.88560       -2.48140       -3.83570
H         -5.36820       -4.55830       -2.57240
H         -7.07720       -4.49710       -3.02010
H         -6.58870       -4.14220       -1.36380
H          2.05280       -1.93770       -8.33200
H         -0.33680       -2.68910       -7.96200
H          8.03770       -0.01310       -5.40020
H          9.40060        0.31240       -4.32040
H          9.19860        2.08670       -6.02650
H          7.53600        2.41620       -5.52500
H          8.87870        2.76430       -4.43030
H         -1.26440        0.06670        0.13220
H          0.47010       -0.17520        0.26510
H         -0.04490        2.25160        0.15650
H          0.77580        1.80760       -1.34770
H         -0.97330        2.01710       -1.32530
H          3.94910        0.22270       -0.22300
H          2.23300        0.55740       -0.06070
H          3.56390       -2.19800       -0.30020
H          2.80950       -1.53260        1.14920
H          1.81710       -1.97680       -0.24750
H          9.75270        1.34790       -2.51700
H         11.81630        3.26650        4.29430
H         12.91430        3.06360        1.93570
