
  xtb     02022220483D
 energy: -205.524226428901 gnorm: 0.000442325763 xtb: 6.4.1 (unknown)
116131  0     0  0            999 V2000
   -5.6846   -3.9181    2.1124 C   0  0  0  0  0  0  0  0  0  0  0  0
   -5.6891   -3.5320    3.4304 C   0  0  0  0  0  0  0  0  0  0  0  0
   -5.0063   -2.3654    3.9944 C   0  0  0  0  0  0  0  0  0  0  0  0
   -4.3246   -1.5418    3.4052 O   0  0  0  0  0  0  0  0  0  0  0  0
   -5.3092   -2.3583    5.4335 C   0  0  0  0  0  0  0  0  0  0  0  0
   -4.8744   -1.4268    6.3736 C   0  0  0  0  0  0  0  0  0  0  0  0
   -5.3068   -1.6824    7.6522 C   0  0  0  0  0  0  0  0  0  0  0  0
   -6.1139   -2.7825    7.9710 C   0  0  0  0  0  0  0  0  0  0  0  0
   -6.5562   -3.7034    7.0502 C   0  0  0  0  0  0  0  0  0  0  0  0
   -6.1263   -3.4640    5.7412 C   0  0  0  0  0  0  0  0  0  0  0  0
   -6.3803   -4.2117    4.5091 C   0  0  0  0  0  0  0  0  0  0  0  0
   -7.1231   -5.3623    4.4240 C   0  0  0  0  0  0  0  0  0  0  0  0
   -7.3650   -6.1056    3.2503 C   0  0  0  0  0  0  0  0  0  0  0  0
   -7.6084   -6.7723    2.3461 N   0  0  0  0  0  0  0  0  0  0  0  0
   -7.7567   -5.9874    5.5184 C   0  0  0  0  0  0  0  0  0  0  0  0
   -8.2971   -6.5564    6.3567 N   0  0  0  0  0  0  0  0  0  0  0  0
   -6.1542   -2.4284    9.4371 C   0  0  0  0  0  0  0  0  0  0  0  0
   -5.2447   -3.2546   10.3713 C   0  0  0  0  0  0  0  0  0  0  0  0
   -5.1260   -2.3975   11.6110 C   0  0  0  0  0  0  0  0  0  0  0  0
   -4.3649   -1.3535   11.3087 C   0  0  0  0  0  0  0  0  0  0  0  0
   -3.9560   -1.4876    9.8596 C   0  0  0  0  0  0  0  0  0  0  0  0
   -3.8614   -3.0150    9.7522 C   0  0  0  0  0  0  0  0  0  0  0  0
   -5.2568   -1.2001    9.0803 C   0  0  0  0  0  0  0  0  0  0  0  0
   -4.9935   -3.3984    1.0114 C   0  0  0  0  0  0  0  0  0  0  0  0
   -5.0520   -3.9689   -0.2730 C   0  0  0  0  0  0  0  0  0  0  0  0
   -5.8601   -5.1631   -0.6634 C   0  0  0  0  0  0  0  0  0  0  0  0
   -5.0984   -6.4574   -0.3646 C   0  0  0  0  0  0  0  0  0  0  0  0
   -4.1927   -3.3234   -1.1541 C   0  0  0  0  0  0  0  0  0  0  0  0
   -3.7734   -3.6005   -2.8372 S   0  0  0  0  0  0  0  0  0  0  0  0
   -2.6382   -2.2973   -2.7443 C   0  0  0  0  0  0  0  0  0  0  0  0
   -1.6807   -1.6511   -3.5462 C   0  0  0  0  0  0  0  0  0  0  0  0
   -1.3515   -1.8107   -4.9187 C   0  0  0  0  0  0  0  0  0  0  0  0
   -0.3526   -0.9662   -5.4722 C   0  0  0  0  0  0  0  0  0  0  0  0
   -0.0467   -1.0232   -6.7726 N   0  0  0  0  0  0  0  0  0  0  0  0
   -0.6994   -1.9034   -7.5007 C   0  0  0  0  0  0  0  0  0  0  0  0
   -1.6618   -2.7564   -6.9491 C   0  0  0  0  0  0  0  0  0  0  0  0
   -1.9883   -2.7107   -5.6756 N   0  0  0  0  0  0  0  0  0  0  0  0
    0.3650   -0.1065   -4.5967 C   0  0  0  0  0  0  0  0  0  0  0  0
    1.5155    0.6651   -4.8226 C   0  0  0  0  0  0  0  0  0  0  0  0
    2.5677    1.1043   -6.1230 S   0  0  0  0  0  0  0  0  0  0  0  0
    3.5821    1.9637   -4.9758 C   0  0  0  0  0  0  0  0  0  0  0  0
    4.7596    2.6844   -5.1153 C   0  0  0  0  0  0  0  0  0  0  0  0
    5.4681    2.8344   -6.4214 C   0  0  0  0  0  0  0  0  0  0  0  0
    6.5584    1.7696   -6.5723 C   0  0  0  0  0  0  0  0  0  0  0  0
    5.2096    3.1807   -3.8761 C   0  0  0  0  0  0  0  0  0  0  0  0
    4.1294    2.7375   -2.5513 S   0  0  0  0  0  0  0  0  0  0  0  0
    3.1056    1.9013   -3.6538 C   0  0  0  0  0  0  0  0  0  0  0  0
    1.9231    1.1648   -3.5784 C   0  0  0  0  0  0  0  0  0  0  0  0
    1.0525    0.7655   -2.5978 N   0  0  0  0  0  0  0  0  0  0  0  0
    0.0786   -0.0021   -3.2060 C   0  0  0  0  0  0  0  0  0  0  0  0
   -1.0596   -0.6770   -2.7156 C   0  0  0  0  0  0  0  0  0  0  0  0
   -1.6689   -0.6778   -1.4778 N   0  0  0  0  0  0  0  0  0  0  0  0
   -2.6084   -1.6761   -1.4896 C   0  0  0  0  0  0  0  0  0  0  0  0
   -3.4901   -2.2538   -0.5758 C   0  0  0  0  0  0  0  0  0  0  0  0
   -3.8899   -2.0227    1.0814 S   0  0  0  0  0  0  0  0  0  0  0  0
   -1.7981    0.4207   -0.5455 C   0  0  0  0  0  0  0  0  0  0  0  0
   -3.1455    1.1239   -0.7024 C   0  0  0  0  0  0  0  0  0  0  0  0
    1.4705    0.8111   -1.2102 C   0  0  0  0  0  0  0  0  0  0  0  0
    1.6067   -0.5813   -0.6047 C   0  0  0  0  0  0  0  0  0  0  0  0
    6.3769    3.9328   -3.7324 C   0  0  0  0  0  0  0  0  0  0  0  0
    6.9687    4.4751   -2.6137 C   0  0  0  0  0  0  0  0  0  0  0  0
    6.4740    4.3778   -1.2411 C   0  0  0  0  0  0  0  0  0  0  0  0
    5.4684    3.8120   -0.8435 O   0  0  0  0  0  0  0  0  0  0  0  0
    7.4364    5.1116   -0.4007 C   0  0  0  0  0  0  0  0  0  0  0  0
    7.3996    5.3018    0.9584 C   0  0  0  0  0  0  0  0  0  0  0  0
    8.4334    6.0438    1.5394 C   0  0  0  0  0  0  0  0  0  0  0  0
    8.6250    6.3799    2.9074 C   0  0  0  0  0  0  0  0  0  0  0  0
    9.7457    7.1161    3.0962 C   0  0  0  0  0  0  0  0  0  0  0  0
   10.3790    7.7736    4.7349 Br  0  0  0  0  0  0  0  0  0  0  0  0
   10.6355    7.4465    1.6337 S   0  0  0  0  0  0  0  0  0  0  0  0
    9.4586    6.5596    0.7126 C   0  0  0  0  0  0  0  0  0  0  0  0
    9.4939    6.3655   -0.6636 C   0  0  0  0  0  0  0  0  0  0  0  0
    8.4659    5.6303   -1.2228 C   0  0  0  0  0  0  0  0  0  0  0  0
    8.1964    5.2441   -2.6062 C   0  0  0  0  0  0  0  0  0  0  0  0
    8.9877    5.5689   -3.6808 C   0  0  0  0  0  0  0  0  0  0  0  0
    8.7506    5.2062   -5.0220 C   0  0  0  0  0  0  0  0  0  0  0  0
    8.6340    4.9501   -6.1365 N   0  0  0  0  0  0  0  0  0  0  0  0
   10.1730    6.3269   -3.5877 C   0  0  0  0  0  0  0  0  0  0  0  0
   11.1465    6.9361   -3.5814 N   0  0  0  0  0  0  0  0  0  0  0  0
   -6.2885   -4.7815    1.8692 H   0  0  0  0  0  0  0  0  0  0  0  0
   -4.2546   -0.5934    6.0819 H   0  0  0  0  0  0  0  0  0  0  0  0
   -7.1833   -4.5382    7.3140 H   0  0  0  0  0  0  0  0  0  0  0  0
   -7.1425   -2.2486    9.8556 H   0  0  0  0  0  0  0  0  0  0  0  0
   -5.5574   -4.2849   10.5164 H   0  0  0  0  0  0  0  0  0  0  0  0
   -5.6365   -2.6029   12.5334 H   0  0  0  0  0  0  0  0  0  0  0  0
   -4.1126   -0.5127   11.9279 H   0  0  0  0  0  0  0  0  0  0  0  0
   -3.0946   -0.9078    9.5384 H   0  0  0  0  0  0  0  0  0  0  0  0
   -3.0599   -3.4216   10.3666 H   0  0  0  0  0  0  0  0  0  0  0  0
   -3.7611   -3.3832    8.7329 H   0  0  0  0  0  0  0  0  0  0  0  0
   -5.6481   -0.2001    9.2583 H   0  0  0  0  0  0  0  0  0  0  0  0
   -6.0549   -5.1055   -1.7363 H   0  0  0  0  0  0  0  0  0  0  0  0
   -6.8178   -5.1774   -0.1417 H   0  0  0  0  0  0  0  0  0  0  0  0
   -4.8937   -6.5467    0.6995 H   0  0  0  0  0  0  0  0  0  0  0  0
   -4.1546   -6.4736   -0.9047 H   0  0  0  0  0  0  0  0  0  0  0  0
   -5.6930   -7.3128   -0.6718 H   0  0  0  0  0  0  0  0  0  0  0  0
   -0.4481   -1.9359   -8.5517 H   0  0  0  0  0  0  0  0  0  0  0  0
   -2.1822   -3.4887   -7.5506 H   0  0  0  0  0  0  0  0  0  0  0  0
    4.7365    2.7107   -7.2221 H   0  0  0  0  0  0  0  0  0  0  0  0
    5.9151    3.8251   -6.5153 H   0  0  0  0  0  0  0  0  0  0  0  0
    6.1241    0.7739   -6.5201 H   0  0  0  0  0  0  0  0  0  0  0  0
    7.0547    1.8854   -7.5313 H   0  0  0  0  0  0  0  0  0  0  0  0
    7.3031    1.8663   -5.7858 H   0  0  0  0  0  0  0  0  0  0  0  0
   -1.0103    1.1409   -0.7422 H   0  0  0  0  0  0  0  0  0  0  0  0
   -1.7000    0.0317    0.4725 H   0  0  0  0  0  0  0  0  0  0  0  0
   -3.2726    1.4732   -1.7251 H   0  0  0  0  0  0  0  0  0  0  0  0
   -3.9646    0.4552   -0.4553 H   0  0  0  0  0  0  0  0  0  0  0  0
   -3.1875    1.9782   -0.0327 H   0  0  0  0  0  0  0  0  0  0  0  0
    0.7971    1.4293   -0.6111 H   0  0  0  0  0  0  0  0  0  0  0  0
    2.4446    1.3060   -1.2004 H   0  0  0  0  0  0  0  0  0  0  0  0
    2.2970   -1.1790   -1.1956 H   0  0  0  0  0  0  0  0  0  0  0  0
    0.6504   -1.0951   -0.5669 H   0  0  0  0  0  0  0  0  0  0  0  0
    1.9966   -0.4988    0.4057 H   0  0  0  0  0  0  0  0  0  0  0  0
    6.8911    4.1071   -4.6675 H   0  0  0  0  0  0  0  0  0  0  0  0
    6.5994    4.8919    1.5545 H   0  0  0  0  0  0  0  0  0  0  0  0
    7.9599    6.0853    3.6985 H   0  0  0  0  0  0  0  0  0  0  0  0
   10.2983    6.7810   -1.2468 H   0  0  0  0  0  0  0  0  0  0  0  0
  1  2  2  0  0  0  0
  2  3  1  0  0  0  0
  3  4  2  0  0  0  0
  3  5  1  0  0  0  0
  5  6  2  0  0  0  0
  6  7  1  0  0  0  0
  7  8  2  0  0  0  0
  8  9  1  0  0  0  0
  9 10  2  0  0  0  0
 10 11  1  0  0  0  0
 11 12  2  0  0  0  0
 12 13  1  0  0  0  0
 13 14  3  0  0  0  0
 12 15  1  0  0  0  0
 15 16  3  0  0  0  0
  8 17  1  0  0  0  0
 17 18  1  0  0  0  0
 18 19  1  0  0  0  0
 19 20  2  0  0  0  0
 20 21  1  0  0  0  0
 21 22  1  0  0  0  0
 21 23  1  0  0  0  0
  1 24  1  0  0  0  0
 24 25  2  0  0  0  0
 25 26  1  0  0  0  0
 26 27  1  0  0  0  0
 25 28  1  0  0  0  0
 28 29  1  0  0  0  0
 29 30  1  0  0  0  0
 30 31  1  0  0  0  0
 31 32  2  0  0  0  0
 32 33  1  0  0  0  0
 33 34  1  0  0  0  0
 34 35  2  0  0  0  0
 35 36  1  0  0  0  0
 36 37  2  0  0  0  0
 33 38  2  0  0  0  0
 38 39  1  0  0  0  0
 39 40  1  0  0  0  0
 40 41  1  0  0  0  0
 41 42  1  0  0  0  0
 42 43  1  0  0  0  0
 43 44  1  0  0  0  0
 42 45  2  0  0  0  0
 45 46  1  0  0  0  0
 46 47  1  0  0  0  0
 47 48  1  0  0  0  0
 48 49  1  0  0  0  0
 49 50  1  0  0  0  0
 50 51  2  0  0  0  0
 51 52  1  0  0  0  0
 52 53  1  0  0  0  0
 53 54  1  0  0  0  0
 54 55  1  0  0  0  0
 52 56  1  0  0  0  0
 56 57  1  0  0  0  0
 49 58  1  0  0  0  0
 58 59  1  0  0  0  0
 45 60  1  0  0  0  0
 60 61  2  0  0  0  0
 61 62  1  0  0  0  0
 62 63  2  0  0  0  0
 62 64  1  0  0  0  0
 64 65  2  0  0  0  0
 65 66  1  0  0  0  0
 66 67  1  0  0  0  0
 67 68  2  0  0  0  0
 68 69  1  0  0  0  0
 68 70  1  0  0  0  0
 70 71  1  0  0  0  0
 71 72  1  0  0  0  0
 72 73  2  0  0  0  0
 73 74  1  0  0  0  0
 74 75  2  0  0  0  0
 75 76  1  0  0  0  0
 76 77  3  0  0  0  0
 75 78  1  0  0  0  0
 78 79  3  0  0  0  0
 11  2  1  0  0  0  0
 23 17  1  0  0  0  0
 55 24  1  0  0  0  0
 74 61  1  0  0  0  0
 10  5  1  0  0  0  0
 22 18  1  0  0  0  0
 54 28  2  0  0  0  0
 73 64  1  0  0  0  0
 23  7  1  0  0  0  0
 53 30  2  0  0  0  0
 71 66  2  0  0  0  0
 51 31  1  0  0  0  0
 37 32  1  0  0  0  0
 50 38  1  0  0  0  0
 48 39  2  0  0  0  0
 47 41  2  0  0  0  0
  1 80  1  0  0  0  0
  6 81  1  0  0  0  0
  9 82  1  0  0  0  0
 17 83  1  0  0  0  0
 18 84  1  0  0  0  0
 19 85  1  0  0  0  0
 20 86  1  0  0  0  0
 21 87  1  0  0  0  0
 22 88  1  0  0  0  0
 22 89  1  0  0  0  0
 23 90  1  0  0  0  0
 26 91  1  0  0  0  0
 26 92  1  0  0  0  0
 27 93  1  0  0  0  0
 27 94  1  0  0  0  0
 27 95  1  0  0  0  0
 35 96  1  0  0  0  0
 36 97  1  0  0  0  0
 43 98  1  0  0  0  0
 43 99  1  0  0  0  0
 44100  1  0  0  0  0
 44101  1  0  0  0  0
 44102  1  0  0  0  0
 56103  1  0  0  0  0
 56104  1  0  0  0  0
 57105  1  0  0  0  0
 57106  1  0  0  0  0
 57107  1  0  0  0  0
 58108  1  0  0  0  0
 58109  1  0  0  0  0
 59110  1  0  0  0  0
 59111  1  0  0  0  0
 59112  1  0  0  0  0
 60113  1  0  0  0  0
 65114  1  0  0  0  0
 67115  1  0  0  0  0
 72116  1  0  0  0  0
M  END
