113

C         -2.98510       -0.16290       -5.57220
C         -2.73790       -1.48420       -5.84480
C         -1.98270       -2.41770       -5.00460
O         -1.40950       -2.17540       -3.95460
C         -2.04400       -3.72540       -5.67600
C         -1.48370       -4.92120       -5.23400
C         -1.71200       -5.98750       -6.06990
C         -2.44980       -5.87350       -7.25560
C         -3.00760       -4.69900       -7.70260
C         -2.78130       -3.59890       -6.87080
C         -3.20850       -2.20730       -7.01070
C         -3.91670       -1.70050       -8.07080
C         -4.33460       -2.45480       -9.18740
N         -4.70710       -2.99710      -10.12860
C         -4.33120       -0.36120       -8.22380
N         -4.70680        0.70600       -8.42760
C         -2.27850       -7.33260       -7.59640
C         -1.24390       -7.70040       -8.68830
C         -0.21310       -6.59880       -8.68900
C          0.49040       -6.70240       -7.56940
C         -0.05150       -7.87620       -6.79160
C         -0.46470       -8.79970       -7.94860
C         -1.45180       -7.45810       -6.27780
C         -2.61500        0.63410       -4.48190
C         -3.01890        1.97220       -4.34290
C         -3.90250        2.72110       -5.28640
C         -5.37750        2.41700       -5.01010
C         -2.54350        2.52520       -3.16010
S         -2.74910        4.10700       -2.42910
C         -1.78800        3.57750       -1.09430
C         -1.33990        4.05690        0.14390
C         -1.63370        5.29040        0.78190
C         -1.15590        5.48580        2.09940
N         -1.44670        6.59700        2.78460
C         -2.18410        7.49520        2.16760
C         -2.64090        7.31050        0.85740
N         -2.37420        6.22110        0.16990
C         -0.33160        4.47750        2.66420
C          0.32740        4.46960        3.89970
S          0.47140        5.46130        5.30620
C          1.58370        4.28290        5.98050
C          2.27260        4.23080        7.18130
C          2.12350        5.26780        8.24530
C          1.07370        4.84000        9.27510
C          3.05700        3.06270        7.27550
S          2.91500        2.05190        5.83260
C          1.81840        3.18090        5.13440
C          1.09020        3.29590        3.94950
N          0.90410        2.56860        2.80350
C          0.02730        3.26860        1.99640
C         -0.56850        3.01300        0.73620
N         -0.57630        1.92740       -0.11990
C         -1.32450        2.26280       -1.21540
C         -1.76040        1.64670       -2.39300
S         -1.62020        0.09440       -3.12910
C         -0.22910        0.54220        0.10370
C         -1.11070       -0.08540        1.18080
C          1.81160        1.48520        2.49690
C          2.81330        1.88780        1.41720
C          3.83910        2.76210        8.38820
C          4.65270        1.68190        8.65920
C          4.90360        0.54840        7.77350
O          4.44750        0.34190        6.66190
C          5.84980       -0.32890        8.49410
C          6.39880       -1.52420        8.08270
C          7.27800       -2.17150        8.94150
Br         8.05200       -3.81200        8.40690
C          7.58710       -1.61520       10.18270
Br         8.78720       -2.50130       11.34620
C          7.02980       -0.40860       10.59390
C          6.15310        0.24130        9.74220
C          5.41390        1.49840        9.87570
C          5.45960        2.32040       10.97400
C          4.74570        3.52590       11.13380
N          4.19980        4.51490       11.34490
C          6.24210        2.06330       12.11920
N          6.85580        1.91240       13.07750
H         -3.58030        0.36780       -6.30230
H         -0.92780       -4.96470       -4.31040
H         -3.57310       -4.63170       -8.61670
H         -3.19530       -7.91270       -7.68010
H         -1.67610       -7.95410       -9.65230
H         -0.14210       -5.84630       -9.45230
H          1.26710       -6.05290       -7.21010
H          0.60350       -8.29050       -6.02960
H          0.38700       -9.16800       -8.51830
H         -1.08710       -9.63650       -7.63480
H         -1.82500       -8.12470       -5.50270
H         -3.72660        3.78880       -5.14130
H         -3.66960        2.47380       -6.32320
H         -5.58630        1.35910       -5.15090
H         -6.00390        2.98480       -5.69200
H         -5.63480        2.68940       -3.98910
H         -2.41820        8.38930        2.72840
H         -3.23790        8.05910        0.35530
H          1.79960        6.19680        7.77230
H          3.07200        5.45330        8.75110
H          1.36750        3.91430        9.76420
H          0.96860        5.61020       10.03350
H          0.11090        4.68890        8.79270
H          0.82990        0.44680        0.34100
H         -0.39590        0.02260       -0.84290
H         -2.15060       -0.06670        0.86360
H         -1.03310        0.45560        2.12140
H         -0.81860       -1.11940        1.34180
H          1.25850        0.58830        2.22030
H          2.35010        1.25930        3.42040
H          3.46750        1.05100        1.18880
H          2.30810        2.20090        0.50600
H          3.42350        2.71670        1.76810
H          3.78760        3.51420        9.16340
H          6.15180       -1.94300        7.11960
H          7.29360       -0.01240       11.56090
