
  xtb     02022206593D
 energy: -210.575695558886 gnorm: 0.000197076196 xtb: 6.4.1 (unknown)
113127  0     0  0            999 V2000
    3.3661    5.5896    1.5080 C   0  0  0  0  0  0  0  0  0  0  0  0
    4.0568    5.4591    2.6737 C   0  0  0  0  0  0  0  0  0  0  0  0
    4.5652    4.1627    3.1908 C   0  0  0  0  0  0  0  0  0  0  0  0
    4.7460    3.1337    2.5763 O   0  0  0  0  0  0  0  0  0  0  0  0
    4.6905    4.3535    4.6485 C   0  0  0  0  0  0  0  0  0  0  0  0
    4.9945    3.3730    5.5910 C   0  0  0  0  0  0  0  0  0  0  0  0
    4.9745    3.8208    6.8899 C   0  0  0  0  0  0  0  0  0  0  0  0
    4.6786    5.1480    7.2316 C   0  0  0  0  0  0  0  0  0  0  0  0
    4.3897    6.1287    6.3127 C   0  0  0  0  0  0  0  0  0  0  0  0
    4.3974    5.6913    4.9845 C   0  0  0  0  0  0  0  0  0  0  0  0
    4.0902    6.4193    3.7598 C   0  0  0  0  0  0  0  0  0  0  0  0
    3.9309    7.7721    3.6246 C   0  0  0  0  0  0  0  0  0  0  0  0
    3.9981    8.6919    4.6907 C   0  0  0  0  0  0  0  0  0  0  0  0
    4.0374    9.4823    5.5222 N   0  0  0  0  0  0  0  0  0  0  0  0
    3.7296    8.4080    2.3808 C   0  0  0  0  0  0  0  0  0  0  0  0
    3.5873    8.9756    1.3932 N   0  0  0  0  0  0  0  0  0  0  0  0
    4.7955    4.8769    8.7108 C   0  0  0  0  0  0  0  0  0  0  0  0
    3.4686    4.7378    9.4877 C   0  0  0  0  0  0  0  0  0  0  0  0
    3.8647    4.0150   10.7550 C   0  0  0  0  0  0  0  0  0  0  0  0
    4.1483    2.7597   10.4318 C   0  0  0  0  0  0  0  0  0  0  0  0
    3.9486    2.6130    8.9406 C   0  0  0  0  0  0  0  0  0  0  0  0
    2.7839    3.5901    8.7339 C   0  0  0  0  0  0  0  0  0  0  0  0
    5.1289    3.3988    8.3296 C   0  0  0  0  0  0  0  0  0  0  0  0
    3.3350    4.6158    0.4744 C   0  0  0  0  0  0  0  0  0  0  0  0
    4.3524    3.8757   -0.0993 C   0  0  0  0  0  0  0  0  0  0  0  0
    5.8091    4.1109    0.1193 C   0  0  0  0  0  0  0  0  0  0  0  0
    6.5129    4.4936   -1.1826 C   0  0  0  0  0  0  0  0  0  0  0  0
    3.8391    2.9344   -1.0082 C   0  0  0  0  0  0  0  0  0  0  0  0
    4.5891    1.6681   -1.9533 S   0  0  0  0  0  0  0  0  0  0  0  0
    3.0215    1.1195   -2.4306 C   0  0  0  0  0  0  0  0  0  0  0  0
    2.4352    0.0270   -3.0902 C   0  0  0  0  0  0  0  0  0  0  0  0
    3.0419   -1.1346   -3.6376 C   0  0  0  0  0  0  0  0  0  0  0  0
    2.2026   -2.2209   -3.9961 C   0  0  0  0  0  0  0  0  0  0  0  0
    2.7177   -3.3772   -4.4282 N   0  0  0  0  0  0  0  0  0  0  0  0
    4.0281   -3.4458   -4.5215 C   0  0  0  0  0  0  0  0  0  0  0  0
    4.8548   -2.3659   -4.1908 C   0  0  0  0  0  0  0  0  0  0  0  0
    4.3716   -1.2254   -3.7482 N   0  0  0  0  0  0  0  0  0  0  0  0
    0.7975   -2.0432   -3.8968 C   0  0  0  0  0  0  0  0  0  0  0  0
   -0.2529   -2.9399   -4.1480 C   0  0  0  0  0  0  0  0  0  0  0  0
   -0.4809   -4.6025   -4.5598 S   0  0  0  0  0  0  0  0  0  0  0  0
   -2.2148   -4.3706   -4.4134 C   0  0  0  0  0  0  0  0  0  0  0  0
   -3.2878   -5.2429   -4.4981 C   0  0  0  0  0  0  0  0  0  0  0  0
   -3.1394   -6.6858   -4.8534 C   0  0  0  0  0  0  0  0  0  0  0  0
   -3.4499   -6.9184   -6.3348 C   0  0  0  0  0  0  0  0  0  0  0  0
   -4.5058   -4.5868   -4.2239 C   0  0  0  0  0  0  0  0  0  0  0  0
   -4.2764   -2.8672   -3.8888 S   0  0  0  0  0  0  0  0  0  0  0  0
   -2.5768   -3.0486   -4.0872 C   0  0  0  0  0  0  0  0  0  0  0  0
   -1.4499   -2.2409   -3.9436 C   0  0  0  0  0  0  0  0  0  0  0  0
   -1.1817   -0.9425   -3.5843 N   0  0  0  0  0  0  0  0  0  0  0  0
    0.1911   -0.8164   -3.5024 C   0  0  0  0  0  0  0  0  0  0  0  0
    1.0265    0.1947   -2.9780 C   0  0  0  0  0  0  0  0  0  0  0  0
    0.7714    1.3435   -2.2566 N   0  0  0  0  0  0  0  0  0  0  0  0
    1.9767    1.8979   -1.9205 C   0  0  0  0  0  0  0  0  0  0  0  0
    2.4436    2.9422   -1.1161 C   0  0  0  0  0  0  0  0  0  0  0  0
    1.7460    4.1999   -0.1664 S   0  0  0  0  0  0  0  0  0  0  0  0
   -0.4372    1.8002   -1.6080 C   0  0  0  0  0  0  0  0  0  0  0  0
   -0.9672    3.0893   -2.2352 C   0  0  0  0  0  0  0  0  0  0  0  0
   -2.1734    0.0801   -3.8449 C   0  0  0  0  0  0  0  0  0  0  0  0
   -2.5528    0.1170   -5.3251 C   0  0  0  0  0  0  0  0  0  0  0  0
   -5.7249   -5.2578   -4.1491 C   0  0  0  0  0  0  0  0  0  0  0  0
   -6.9879   -4.8103   -3.8284 C   0  0  0  0  0  0  0  0  0  0  0  0
   -7.3790   -3.4269   -3.5841 C   0  0  0  0  0  0  0  0  0  0  0  0
   -6.6654   -2.4408   -3.5622 O   0  0  0  0  0  0  0  0  0  0  0  0
   -8.8483   -3.4457   -3.3989 C   0  0  0  0  0  0  0  0  0  0  0  0
   -9.7109   -2.3795   -3.2223 C   0  0  0  0  0  0  0  0  0  0  0  0
   -9.1316   -0.7863   -3.0296 Cl  0  0  0  0  0  0  0  0  0  0  0  0
  -11.0891   -2.6371   -3.2112 C   0  0  0  0  0  0  0  0  0  0  0  0
  -12.1945   -1.3577   -2.9551 Cl  0  0  0  0  0  0  0  0  0  0  0  0
  -11.5595   -3.9259   -3.4539 C   0  0  0  0  0  0  0  0  0  0  0  0
  -13.2463   -4.1979   -3.5396 Cl  0  0  0  0  0  0  0  0  0  0  0  0
  -10.6771   -5.0029   -3.6436 C   0  0  0  0  0  0  0  0  0  0  0  0
  -11.3333   -6.5142   -4.1198 Cl  0  0  0  0  0  0  0  0  0  0  0  0
   -9.3121   -4.7700   -3.5364 C   0  0  0  0  0  0  0  0  0  0  0  0
   -8.1500   -5.6531   -3.6308 C   0  0  0  0  0  0  0  0  0  0  0  0
   -8.1287   -6.9969   -3.3498 C   0  0  0  0  0  0  0  0  0  0  0  0
   -9.1725   -7.7289   -2.7441 C   0  0  0  0  0  0  0  0  0  0  0  0
   -9.9064   -8.3844   -2.1531 N   0  0  0  0  0  0  0  0  0  0  0  0
   -6.9893   -7.8228   -3.4577 C   0  0  0  0  0  0  0  0  0  0  0  0
   -6.1171   -8.5667   -3.5390 N   0  0  0  0  0  0  0  0  0  0  0  0
    2.6895    6.4291    1.3910 H   0  0  0  0  0  0  0  0  0  0  0  0
    5.2125    2.3613    5.2869 H   0  0  0  0  0  0  0  0  0  0  0  0
    4.1574    7.1450    6.5853 H   0  0  0  0  0  0  0  0  0  0  0  0
    5.5427    5.4600    9.2451 H   0  0  0  0  0  0  0  0  0  0  0  0
    2.9114    5.6631    9.6056 H   0  0  0  0  0  0  0  0  0  0  0  0
    3.9475    4.4893   11.7151 H   0  0  0  0  0  0  0  0  0  0  0  0
    4.5155    1.9758   11.0677 H   0  0  0  0  0  0  0  0  0  0  0  0
    3.8284    1.6024    8.5597 H   0  0  0  0  0  0  0  0  0  0  0  0
    1.8745    3.2567    9.2311 H   0  0  0  0  0  0  0  0  0  0  0  0
    2.5676    3.8096    7.6899 H   0  0  0  0  0  0  0  0  0  0  0  0
    6.1000    2.9945    8.6082 H   0  0  0  0  0  0  0  0  0  0  0  0
    5.9445    4.9049    0.8543 H   0  0  0  0  0  0  0  0  0  0  0  0
    6.2492    3.1960    0.5225 H   0  0  0  0  0  0  0  0  0  0  0  0
    7.5662    4.6791   -0.9896 H   0  0  0  0  0  0  0  0  0  0  0  0
    6.0738    5.3980   -1.5986 H   0  0  0  0  0  0  0  0  0  0  0  0
    6.4323    3.6965   -1.9168 H   0  0  0  0  0  0  0  0  0  0  0  0
    4.4343   -4.3840   -4.8730 H   0  0  0  0  0  0  0  0  0  0  0  0
    5.9303   -2.4264   -4.2837 H   0  0  0  0  0  0  0  0  0  0  0  0
   -2.1067   -6.9796   -4.6564 H   0  0  0  0  0  0  0  0  0  0  0  0
   -3.7937   -7.3083   -4.2406 H   0  0  0  0  0  0  0  0  0  0  0  0
   -4.4708   -6.6244   -6.5676 H   0  0  0  0  0  0  0  0  0  0  0  0
   -3.3295   -7.9710   -6.5750 H   0  0  0  0  0  0  0  0  0  0  0  0
   -2.7727   -6.3390   -6.9580 H   0  0  0  0  0  0  0  0  0  0  0  0
   -1.1783    1.0012   -1.6258 H   0  0  0  0  0  0  0  0  0  0  0  0
   -0.1925    2.0004   -0.5589 H   0  0  0  0  0  0  0  0  0  0  0  0
   -1.9212    3.3515   -1.7870 H   0  0  0  0  0  0  0  0  0  0  0  0
   -1.0992    2.9887   -3.3104 H   0  0  0  0  0  0  0  0  0  0  0  0
   -0.2689    3.9030   -2.0583 H   0  0  0  0  0  0  0  0  0  0  0  0
   -3.0620   -0.1348   -3.2430 H   0  0  0  0  0  0  0  0  0  0  0  0
   -1.7703    1.0488   -3.5718 H   0  0  0  0  0  0  0  0  0  0  0  0
   -3.2545    0.9284   -5.4969 H   0  0  0  0  0  0  0  0  0  0  0  0
   -1.6688    0.2817   -5.9379 H   0  0  0  0  0  0  0  0  0  0  0  0
   -3.0236   -0.8125   -5.6312 H   0  0  0  0  0  0  0  0  0  0  0  0
   -5.6475   -6.3122   -4.3750 H   0  0  0  0  0  0  0  0  0  0  0  0
  1  2  2  0  0  0  0
  2  3  1  0  0  0  0
  3  4  2  0  0  0  0
  3  5  1  0  0  0  0
  5  6  2  0  0  0  0
  6  7  1  0  0  0  0
  7  8  2  0  0  0  0
  8  9  1  0  0  0  0
  9 10  2  0  0  0  0
 10 11  1  0  0  0  0
 11 12  2  0  0  0  0
 12 13  1  0  0  0  0
 13 14  3  0  0  0  0
 12 15  1  0  0  0  0
 15 16  3  0  0  0  0
  8 17  1  0  0  0  0
 17 18  1  0  0  0  0
 18 19  1  0  0  0  0
 19 20  2  0  0  0  0
 20 21  1  0  0  0  0
 21 22  1  0  0  0  0
 21 23  1  0  0  0  0
  1 24  1  0  0  0  0
 24 25  2  0  0  0  0
 25 26  1  0  0  0  0
 26 27  1  0  0  0  0
 25 28  1  0  0  0  0
 28 29  1  0  0  0  0
 29 30  1  0  0  0  0
 30 31  1  0  0  0  0
 31 32  2  0  0  0  0
 32 33  1  0  0  0  0
 33 34  1  0  0  0  0
 34 35  2  0  0  0  0
 35 36  1  0  0  0  0
 36 37  2  0  0  0  0
 33 38  2  0  0  0  0
 38 39  1  0  0  0  0
 39 40  1  0  0  0  0
 40 41  1  0  0  0  0
 41 42  1  0  0  0  0
 42 43  1  0  0  0  0
 43 44  1  0  0  0  0
 42 45  2  0  0  0  0
 45 46  1  0  0  0  0
 46 47  1  0  0  0  0
 47 48  1  0  0  0  0
 48 49  1  0  0  0  0
 49 50  1  0  0  0  0
 50 51  2  0  0  0  0
 51 52  1  0  0  0  0
 52 53  1  0  0  0  0
 53 54  1  0  0  0  0
 54 55  1  0  0  0  0
 52 56  1  0  0  0  0
 56 57  1  0  0  0  0
 49 58  1  0  0  0  0
 58 59  1  0  0  0  0
 45 60  1  0  0  0  0
 60 61  2  0  0  0  0
 61 62  1  0  0  0  0
 62 63  2  0  0  0  0
 62 64  1  0  0  0  0
 64 65  2  0  0  0  0
 65 66  1  0  0  0  0
 65 67  1  0  0  0  0
 67 68  1  0  0  0  0
 67 69  2  0  0  0  0
 69 70  1  0  0  0  0
 69 71  1  0  0  0  0
 71 72  1  0  0  0  0
 71 73  2  0  0  0  0
 73 74  1  0  0  0  0
 74 75  2  0  0  0  0
 75 76  1  0  0  0  0
 76 77  3  0  0  0  0
 75 78  1  0  0  0  0
 78 79  3  0  0  0  0
 11  2  1  0  0  0  0
 23 17  1  0  0  0  0
 55 24  1  0  0  0  0
 74 61  1  0  0  0  0
 10  5  1  0  0  0  0
 22 18  1  0  0  0  0
 54 28  2  0  0  0  0
 73 64  1  0  0  0  0
 23  7  1  0  0  0  0
 53 30  2  0  0  0  0
 51 31  1  0  0  0  0
 37 32  1  0  0  0  0
 50 38  1  0  0  0  0
 48 39  2  0  0  0  0
 47 41  2  0  0  0  0
  1 80  1  0  0  0  0
  6 81  1  0  0  0  0
  9 82  1  0  0  0  0
 17 83  1  0  0  0  0
 18 84  1  0  0  0  0
 19 85  1  0  0  0  0
 20 86  1  0  0  0  0
 21 87  1  0  0  0  0
 22 88  1  0  0  0  0
 22 89  1  0  0  0  0
 23 90  1  0  0  0  0
 26 91  1  0  0  0  0
 26 92  1  0  0  0  0
 27 93  1  0  0  0  0
 27 94  1  0  0  0  0
 27 95  1  0  0  0  0
 35 96  1  0  0  0  0
 36 97  1  0  0  0  0
 43 98  1  0  0  0  0
 43 99  1  0  0  0  0
 44100  1  0  0  0  0
 44101  1  0  0  0  0
 44102  1  0  0  0  0
 56103  1  0  0  0  0
 56104  1  0  0  0  0
 57105  1  0  0  0  0
 57106  1  0  0  0  0
 57107  1  0  0  0  0
 58108  1  0  0  0  0
 58109  1  0  0  0  0
 59110  1  0  0  0  0
 59111  1  0  0  0  0
 59112  1  0  0  0  0
 60113  1  0  0  0  0
M  END
