
  xtb     02022214283D
 energy: -238.323110558128 gnorm: 0.000309643179 xtb: 6.4.1 (unknown)
130146  0     0  0            999 V2000
   -3.1778    3.4154   -5.5301 C   0  0  0  0  0  0  0  0  0  0  0  0
   -4.0352    2.5843   -6.2065 C   0  0  0  0  0  0  0  0  0  0  0  0
   -4.2619    1.1645   -5.9277 C   0  0  0  0  0  0  0  0  0  0  0  0
   -3.6851    0.4649   -5.1101 O   0  0  0  0  0  0  0  0  0  0  0  0
   -5.3322    0.7270   -6.8377 C   0  0  0  0  0  0  0  0  0  0  0  0
   -5.9001   -0.5430   -6.9143 C   0  0  0  0  0  0  0  0  0  0  0  0
   -6.8930   -0.6544   -7.8574 C   0  0  0  0  0  0  0  0  0  0  0  0
   -7.2882    0.4176   -8.6684 C   0  0  0  0  0  0  0  0  0  0  0  0
   -6.7310    1.6731   -8.6073 C   0  0  0  0  0  0  0  0  0  0  0  0
   -5.7211    1.8110   -7.6501 C   0  0  0  0  0  0  0  0  0  0  0  0
   -4.9140    2.9772   -7.2902 C   0  0  0  0  0  0  0  0  0  0  0  0
   -4.9923    4.2080   -7.8909 C   0  0  0  0  0  0  0  0  0  0  0  0
   -4.2158    5.3421   -7.5719 C   0  0  0  0  0  0  0  0  0  0  0  0
   -3.6341    6.3161   -7.3879 N   0  0  0  0  0  0  0  0  0  0  0  0
   -5.8748    4.5270   -8.9443 C   0  0  0  0  0  0  0  0  0  0  0  0
   -6.5629    4.8663   -9.7989 N   0  0  0  0  0  0  0  0  0  0  0  0
   -8.3406   -0.4004   -9.3748 C   0  0  0  0  0  0  0  0  0  0  0  0
   -9.8026   -0.1637   -8.9402 C   0  0  0  0  0  0  0  0  0  0  0  0
  -10.5283   -1.3982   -9.4246 C   0  0  0  0  0  0  0  0  0  0  0  0
  -10.1544   -2.4136   -8.6567 C   0  0  0  0  0  0  0  0  0  0  0  0
   -9.1693   -1.8825   -7.6404 C   0  0  0  0  0  0  0  0  0  0  0  0
   -9.7344   -0.4706   -7.4385 C   0  0  0  0  0  0  0  0  0  0  0  0
   -7.8998   -1.5958   -8.4703 C   0  0  0  0  0  0  0  0  0  0  0  0
   -2.3074    3.1528   -4.4654 C   0  0  0  0  0  0  0  0  0  0  0  0
   -1.5449    4.1627   -3.8475 C   0  0  0  0  0  0  0  0  0  0  0  0
   -1.6727    5.5930   -4.1128 C   0  0  0  0  0  0  0  0  0  0  0  0
   -2.9201    6.2142   -4.1475 C   0  0  0  0  0  0  0  0  0  0  0  0
   -3.0060    7.5725   -4.3831 C   0  0  0  0  0  0  0  0  0  0  0  0
   -1.8590    8.3220   -4.5756 C   0  0  0  0  0  0  0  0  0  0  0  0
   -0.6061    7.7236   -4.5260 C   0  0  0  0  0  0  0  0  0  0  0  0
    0.6468    8.5386   -4.6647 C   0  0  0  0  0  0  0  0  0  0  0  0
    1.1730    8.9339   -3.2832 C   0  0  0  0  0  0  0  0  0  0  0  0
   -0.5251    6.3606   -4.2901 C   0  0  0  0  0  0  0  0  0  0  0  0
   -0.6612    3.6328   -2.9092 C   0  0  0  0  0  0  0  0  0  0  0  0
    0.5035    4.3658   -1.8218 S   0  0  0  0  0  0  0  0  0  0  0  0
    0.8467    2.7962   -1.1787 C   0  0  0  0  0  0  0  0  0  0  0  0
    1.6661    2.1958   -0.2108 C   0  0  0  0  0  0  0  0  0  0  0  0
    2.6805    2.7203    0.6213 C   0  0  0  0  0  0  0  0  0  0  0  0
    3.3945    1.8311    1.4931 C   0  0  0  0  0  0  0  0  0  0  0  0
    4.3474    2.4474    2.1737 N   0  0  0  0  0  0  0  0  0  0  0  0
    4.3447    4.0122    1.7590 S   0  0  0  0  0  0  0  0  0  0  0  0
    3.1271    3.9641    0.6940 N   0  0  0  0  0  0  0  0  0  0  0  0
    2.9748    0.4848    1.5886 C   0  0  0  0  0  0  0  0  0  0  0  0
    3.3217   -0.5303    2.4901 C   0  0  0  0  0  0  0  0  0  0  0  0
    4.3937   -0.7788    3.8230 S   0  0  0  0  0  0  0  0  0  0  0  0
    3.6486   -2.3360    4.0984 C   0  0  0  0  0  0  0  0  0  0  0  0
    3.8584   -3.3229    5.0677 C   0  0  0  0  0  0  0  0  0  0  0  0
    4.9027   -3.2430    6.0859 C   0  0  0  0  0  0  0  0  0  0  0  0
    5.0931   -2.0588    6.7937 C   0  0  0  0  0  0  0  0  0  0  0  0
    6.0843   -1.9831    7.7558 C   0  0  0  0  0  0  0  0  0  0  0  0
    6.8792   -3.0812    8.0260 C   0  0  0  0  0  0  0  0  0  0  0  0
    6.6944   -4.2770    7.3375 C   0  0  0  0  0  0  0  0  0  0  0  0
    7.5653   -5.4654    7.6252 C   0  0  0  0  0  0  0  0  0  0  0  0
    8.8574   -5.3981    6.8089 C   0  0  0  0  0  0  0  0  0  0  0  0
    5.7148   -4.3410    6.3607 C   0  0  0  0  0  0  0  0  0  0  0  0
    2.9905   -4.4040    4.8878 C   0  0  0  0  0  0  0  0  0  0  0  0
    1.9698   -4.1973    3.4669 S   0  0  0  0  0  0  0  0  0  0  0  0
    2.6431   -2.6426    3.1671 C   0  0  0  0  0  0  0  0  0  0  0  0
    2.4561   -1.6062    2.2499 C   0  0  0  0  0  0  0  0  0  0  0  0
    1.6086   -1.3003    1.2180 N   0  0  0  0  0  0  0  0  0  0  0  0
    1.9150   -0.0255    0.7847 C   0  0  0  0  0  0  0  0  0  0  0  0
    1.3529    0.8054   -0.2164 C   0  0  0  0  0  0  0  0  0  0  0  0
    0.4172    0.5643   -1.2066 N   0  0  0  0  0  0  0  0  0  0  0  0
    0.1035    1.7717   -1.7760 C   0  0  0  0  0  0  0  0  0  0  0  0
   -0.7567    2.2394   -2.7731 C   0  0  0  0  0  0  0  0  0  0  0  0
   -1.9450    1.5546   -3.8183 S   0  0  0  0  0  0  0  0  0  0  0  0
    0.2065   -0.6356   -1.9890 C   0  0  0  0  0  0  0  0  0  0  0  0
    1.0813   -0.6317   -3.2426 C   0  0  0  0  0  0  0  0  0  0  0  0
    0.4229   -2.0986    0.9957 C   0  0  0  0  0  0  0  0  0  0  0  0
    0.7362   -3.3967    0.2516 C   0  0  0  0  0  0  0  0  0  0  0  0
    2.7905   -5.5777    5.6341 C   0  0  0  0  0  0  0  0  0  0  0  0
    3.1101   -5.8802    6.9294 C   0  0  0  0  0  0  0  0  0  0  0  0
    3.1682   -7.3014    7.3302 C   0  0  0  0  0  0  0  0  0  0  0  0
    2.7670   -8.2529    6.7021 O   0  0  0  0  0  0  0  0  0  0  0  0
    3.8892   -7.3038    8.6271 C   0  0  0  0  0  0  0  0  0  0  0  0
    4.3554   -8.3878    9.3490 C   0  0  0  0  0  0  0  0  0  0  0  0
    4.0192   -9.9895    8.8657 Cl  0  0  0  0  0  0  0  0  0  0  0  0
    5.1273   -8.1408   10.4934 C   0  0  0  0  0  0  0  0  0  0  0  0
    5.7178   -9.4485   11.4233 Cl  0  0  0  0  0  0  0  0  0  0  0  0
    5.4369   -6.8323   10.8560 C   0  0  0  0  0  0  0  0  0  0  0  0
    6.4432   -6.5563   12.2115 Cl  0  0  0  0  0  0  0  0  0  0  0  0
    4.9507   -5.7352   10.1253 C   0  0  0  0  0  0  0  0  0  0  0  0
    5.4675   -4.1669   10.5799 Cl  0  0  0  0  0  0  0  0  0  0  0  0
    4.1397   -5.9735    9.0247 C   0  0  0  0  0  0  0  0  0  0  0  0
    3.4736   -5.0787    8.0762 C   0  0  0  0  0  0  0  0  0  0  0  0
    2.9838   -3.8222    8.3210 C   0  0  0  0  0  0  0  0  0  0  0  0
    2.1572   -3.1425    7.4006 C   0  0  0  0  0  0  0  0  0  0  0  0
    1.4557   -2.5581    6.7051 N   0  0  0  0  0  0  0  0  0  0  0  0
    3.0268   -3.1007    9.5317 C   0  0  0  0  0  0  0  0  0  0  0  0
    2.9326   -2.4476   10.4707 N   0  0  0  0  0  0  0  0  0  0  0  0
   -3.1545    4.4500   -5.8492 H   0  0  0  0  0  0  0  0  0  0  0  0
   -5.5619   -1.3408   -6.2717 H   0  0  0  0  0  0  0  0  0  0  0  0
   -7.0458    2.4838   -9.2424 H   0  0  0  0  0  0  0  0  0  0  0  0
   -8.2266   -0.4924  -10.4531 H   0  0  0  0  0  0  0  0  0  0  0  0
  -10.2159    0.7960   -9.2379 H   0  0  0  0  0  0  0  0  0  0  0  0
  -11.1749   -1.4161  -10.2822 H   0  0  0  0  0  0  0  0  0  0  0  0
  -10.4260   -3.4492   -8.7447 H   0  0  0  0  0  0  0  0  0  0  0  0
   -9.0067   -2.4890   -6.7533 H   0  0  0  0  0  0  0  0  0  0  0  0
   -9.0791    0.1942   -6.8787 H   0  0  0  0  0  0  0  0  0  0  0  0
  -10.7200   -0.4842   -6.9762 H   0  0  0  0  0  0  0  0  0  0  0  0
   -7.4917   -2.4859   -8.9456 H   0  0  0  0  0  0  0  0  0  0  0  0
   -3.8145    5.6377   -3.9605 H   0  0  0  0  0  0  0  0  0  0  0  0
   -3.9740    8.0490   -4.4157 H   0  0  0  0  0  0  0  0  0  0  0  0
   -1.9363    9.3828   -4.7633 H   0  0  0  0  0  0  0  0  0  0  0  0
    0.4418    9.4388   -5.2465 H   0  0  0  0  0  0  0  0  0  0  0  0
    1.4100    7.9589   -5.1874 H   0  0  0  0  0  0  0  0  0  0  0  0
    0.4288    9.5205   -2.7492 H   0  0  0  0  0  0  0  0  0  0  0  0
    1.3952    8.0467   -2.6943 H   0  0  0  0  0  0  0  0  0  0  0  0
    2.0802    9.5262   -3.3770 H   0  0  0  0  0  0  0  0  0  0  0  0
    0.4421    5.8795   -4.2658 H   0  0  0  0  0  0  0  0  0  0  0  0
    4.4538   -1.2104    6.6027 H   0  0  0  0  0  0  0  0  0  0  0  0
    6.2289   -1.0630    8.3014 H   0  0  0  0  0  0  0  0  0  0  0  0
    7.6503   -3.0166    8.7793 H   0  0  0  0  0  0  0  0  0  0  0  0
    7.8121   -5.4888    8.6886 H   0  0  0  0  0  0  0  0  0  0  0  0
    7.0284   -6.3852    7.3811 H   0  0  0  0  0  0  0  0  0  0  0  0
    8.6327   -5.3867    5.7448 H   0  0  0  0  0  0  0  0  0  0  0  0
    9.4116   -4.4945    7.0515 H   0  0  0  0  0  0  0  0  0  0  0  0
    9.4852   -6.2595    7.0228 H   0  0  0  0  0  0  0  0  0  0  0  0
    5.5834   -5.2535    5.7962 H   0  0  0  0  0  0  0  0  0  0  0  0
    0.4496   -1.5105   -1.3989 H   0  0  0  0  0  0  0  0  0  0  0  0
   -0.8486   -0.6696   -2.2763 H   0  0  0  0  0  0  0  0  0  0  0  0
    0.9212   -1.5502   -3.8002 H   0  0  0  0  0  0  0  0  0  0  0  0
    2.1328   -0.5642   -2.9701 H   0  0  0  0  0  0  0  0  0  0  0  0
    0.8329    0.2079   -3.8856 H   0  0  0  0  0  0  0  0  0  0  0  0
    0.0062   -2.3524    1.9769 H   0  0  0  0  0  0  0  0  0  0  0  0
   -0.3178   -1.4946    0.4709 H   0  0  0  0  0  0  0  0  0  0  0  0
    1.3016   -3.2131   -0.6596 H   0  0  0  0  0  0  0  0  0  0  0  0
    1.3261   -4.0563    0.8821 H   0  0  0  0  0  0  0  0  0  0  0  0
   -0.1891   -3.9048   -0.0048 H   0  0  0  0  0  0  0  0  0  0  0  0
    2.3459   -6.4044    5.0855 H   0  0  0  0  0  0  0  0  0  0  0  0
  1  2  2  0  0  0  0
  2  3  1  0  0  0  0
  3  4  2  0  0  0  0
  3  5  1  0  0  0  0
  5  6  2  0  0  0  0
  6  7  1  0  0  0  0
  7  8  2  0  0  0  0
  8  9  1  0  0  0  0
  9 10  2  0  0  0  0
 10 11  1  0  0  0  0
 11 12  2  0  0  0  0
 12 13  1  0  0  0  0
 13 14  3  0  0  0  0
 12 15  1  0  0  0  0
 15 16  3  0  0  0  0
  8 17  1  0  0  0  0
 17 18  1  0  0  0  0
 18 19  1  0  0  0  0
 19 20  2  0  0  0  0
 20 21  1  0  0  0  0
 21 22  1  0  0  0  0
 21 23  1  0  0  0  0
  1 24  1  0  0  0  0
 24 25  2  0  0  0  0
 25 26  1  0  0  0  0
 26 27  2  0  0  0  0
 27 28  1  0  0  0  0
 28 29  2  0  0  0  0
 29 30  1  0  0  0  0
 30 31  1  0  0  0  0
 31 32  1  0  0  0  0
 30 33  2  0  0  0  0
 25 34  1  0  0  0  0
 34 35  1  0  0  0  0
 35 36  1  0  0  0  0
 36 37  1  0  0  0  0
 37 38  1  0  0  0  0
 38 39  1  0  0  0  0
 39 40  2  0  0  0  0
 40 41  1  0  0  0  0
 41 42  1  0  0  0  0
 39 43  1  0  0  0  0
 43 44  1  0  0  0  0
 44 45  1  0  0  0  0
 45 46  1  0  0  0  0
 46 47  1  0  0  0  0
 47 48  1  0  0  0  0
 48 49  2  0  0  0  0
 49 50  1  0  0  0  0
 50 51  2  0  0  0  0
 51 52  1  0  0  0  0
 52 53  1  0  0  0  0
 53 54  1  0  0  0  0
 52 55  2  0  0  0  0
 47 56  2  0  0  0  0
 56 57  1  0  0  0  0
 57 58  1  0  0  0  0
 58 59  1  0  0  0  0
 59 60  1  0  0  0  0
 60 61  1  0  0  0  0
 61 62  1  0  0  0  0
 62 63  1  0  0  0  0
 63 64  1  0  0  0  0
 64 65  1  0  0  0  0
 65 66  1  0  0  0  0
 63 67  1  0  0  0  0
 67 68  1  0  0  0  0
 60 69  1  0  0  0  0
 69 70  1  0  0  0  0
 56 71  1  0  0  0  0
 71 72  2  0  0  0  0
 72 73  1  0  0  0  0
 73 74  2  0  0  0  0
 73 75  1  0  0  0  0
 75 76  2  0  0  0  0
 76 77  1  0  0  0  0
 76 78  1  0  0  0  0
 78 79  1  0  0  0  0
 78 80  2  0  0  0  0
 80 81  1  0  0  0  0
 80 82  1  0  0  0  0
 82 83  1  0  0  0  0
 82 84  2  0  0  0  0
 84 85  1  0  0  0  0
 85 86  2  0  0  0  0
 86 87  1  0  0  0  0
 87 88  3  0  0  0  0
 86 89  1  0  0  0  0
 89 90  3  0  0  0  0
 11  2  1  0  0  0  0
 23 17  1  0  0  0  0
 66 24  1  0  0  0  0
 85 72  1  0  0  0  0
 10  5  1  0  0  0  0
 22 18  1  0  0  0  0
 33 26  1  0  0  0  0
 65 34  2  0  0  0  0
 84 75  1  0  0  0  0
 23  7  1  0  0  0  0
 64 36  2  0  0  0  0
 62 37  2  0  0  0  0
 42 38  2  0  0  0  0
 61 43  2  0  0  0  0
 59 44  2  0  0  0  0
 58 46  2  0  0  0  0
 55 48  1  0  0  0  0
  1 91  1  0  0  0  0
  6 92  1  0  0  0  0
  9 93  1  0  0  0  0
 17 94  1  0  0  0  0
 18 95  1  0  0  0  0
 19 96  1  0  0  0  0
 20 97  1  0  0  0  0
 21 98  1  0  0  0  0
 22 99  1  0  0  0  0
 22100  1  0  0  0  0
 23101  1  0  0  0  0
 27102  1  0  0  0  0
 28103  1  0  0  0  0
 29104  1  0  0  0  0
 31105  1  0  0  0  0
 31106  1  0  0  0  0
 32107  1  0  0  0  0
 32108  1  0  0  0  0
 32109  1  0  0  0  0
 33110  1  0  0  0  0
 49111  1  0  0  0  0
 50112  1  0  0  0  0
 51113  1  0  0  0  0
 53114  1  0  0  0  0
 53115  1  0  0  0  0
 54116  1  0  0  0  0
 54117  1  0  0  0  0
 54118  1  0  0  0  0
 55119  1  0  0  0  0
 67120  1  0  0  0  0
 67121  1  0  0  0  0
 68122  1  0  0  0  0
 68123  1  0  0  0  0
 68124  1  0  0  0  0
 69125  1  0  0  0  0
 69126  1  0  0  0  0
 70127  1  0  0  0  0
 70128  1  0  0  0  0
 70129  1  0  0  0  0
 71130  1  0  0  0  0
M  END
