110

C         -3.06120        0.34340       -4.77810
C         -4.29880        0.13680       -5.31360
C         -5.46590       -0.37850       -4.55690
O         -5.52400       -0.62720       -3.37140
C         -6.49280       -0.68410       -5.57070
C         -7.76590       -1.19970       -5.33930
C         -8.50470       -1.40160       -6.48020
C         -8.00700       -1.13090       -7.76220
C         -6.75030       -0.63120       -8.00600
C         -5.98820       -0.40190       -6.85670
C         -4.63530        0.12790       -6.72170
C         -3.85470        0.61790       -7.73740
C         -2.59200        1.22030       -7.55760
N         -1.57110        1.74270       -7.48840
C         -4.22020        0.61730       -9.09890
N         -4.45040        0.64080      -10.22360
C         -9.28090       -1.57310       -8.43730
C        -10.23720       -0.47370       -8.96140
C         -9.98940        0.74920       -8.11350
C        -10.46190        0.50200       -6.89910
C        -11.03810       -0.89240       -6.90390
C        -11.55850       -0.96490       -8.34850
C         -9.83840       -1.86680       -7.00880
C         -2.74370        0.55660       -3.41440
C         -3.37490        1.31100       -2.43470
C         -4.58910        2.16220       -2.62310
C         -5.70870        1.80480       -1.64620
C         -2.61790        1.33320       -1.25310
S         -2.86050        2.11490        0.29340
C         -1.36050        1.45970        0.84310
C         -0.53800        1.49630        1.98430
C         -0.63250        2.24900        3.18550
C          0.45900        2.20490        4.09650
N          0.46740        2.96690        5.19560
C         -0.58290        3.73180        5.40010
C         -1.67200        3.74910        4.52150
N         -1.69660        3.02300        3.42510
C          1.51610        1.29170        3.83810
C          2.64420        0.93370        4.59660
S          3.44000        1.41260        6.05350
C          4.63550        0.15970        5.77770
C          5.76960       -0.22500        6.48160
C          6.17780        0.41250        7.76940
C          5.65670       -0.39060        8.96430
C          6.42050       -1.30010        5.85360
S          5.59830       -1.80930        4.37750
C          4.40410       -0.58980        4.61140
C          3.26630       -0.13720        3.93940
N          2.58150       -0.44250        2.78770
C          1.53160        0.44710        2.69650
C          0.57980        0.67600        1.68510
N          0.48220        0.20450        0.38960
C         -0.70450        0.67900       -0.11660
C         -1.41700        0.61420       -1.31660
S         -1.18970       -0.08420       -2.87330
C          1.58410       -0.09500       -0.50360
C          1.97760        1.13230       -1.32520
C          2.64020       -1.77710        2.22560
C          2.23410       -2.83000        3.25610
C          7.59380       -1.87730        6.35340
C          8.35090       -2.92380        5.89470
C          8.09110       -3.75330        4.70280
O          7.16900       -3.64820        3.91420
C          9.18270       -4.73580        4.66340
C          9.59850       -5.80940        3.85880
C         10.74440       -6.36680        4.34510
S         11.33880       -5.60730        5.77770
C         10.02580       -4.50710        5.74040
C          9.56630       -3.40000        6.53630
C         10.20160       -2.93470        7.66160
C         11.38870       -3.54430        8.11790
N         12.35420       -4.03680        8.49560
C          9.78660       -1.85360        8.45990
N          9.49770       -0.98310        9.15260
H         -2.20390        0.30670       -5.44140
H         -8.10700       -1.40420       -4.33640
H         -6.37690       -0.43760       -8.99780
H         -9.18810       -2.40750       -9.12960
H        -10.20800       -0.32560      -10.03750
H         -9.46110        1.61900       -8.45760
H        -10.40710        1.12430       -6.02500
H        -11.73960       -1.12460       -6.10690
H        -11.83390       -1.97130       -8.66060
H        -12.38730       -0.28290       -8.53240
H        -10.11540       -2.89180       -6.76970
H         -4.29090        3.20240       -2.45380
H         -4.94790        2.07450       -3.64890
H         -6.57320        2.43720       -1.83250
H         -5.99690        0.76610       -1.77710
H         -5.38350        1.95310       -0.61990
H         -0.56200        4.34550        6.29000
H         -2.54000        4.36670        4.70630
H          7.26320        0.49990        7.83770
H          5.75110        1.41690        7.80210
H          5.95350        0.09320        9.89030
H          6.06300       -1.39930        8.95720
H          4.57140       -0.45260        8.93350
H          1.27810       -0.90730       -1.17000
H          2.44710       -0.40750        0.08030
H          2.24790        1.95420       -0.66540
H          2.83190        0.89110       -1.95120
H          1.16130        1.45260       -1.96620
H          1.95150       -1.83870        1.38480
H          3.66200       -1.97070        1.88440
H          2.22680       -3.80950        2.78660
H          2.93380       -2.85370        4.08620
H          1.23830       -2.61730        3.63960
H          7.95080       -1.40480        7.25900
H          9.08460       -6.14790        2.97840
H         11.29040       -7.19710        3.94160
