119

C         -1.55200       -3.37280        6.73770
C         -2.75340       -2.77420        6.95820
C         -3.33840       -2.73370        8.32440
O         -2.97780       -3.37550        9.28570
C         -4.40200       -1.71110        8.26220
C         -5.17490       -1.22950        9.31750
C         -6.08280       -0.26420        8.95310
C         -6.20750        0.20440        7.63780
C         -5.45640       -0.26190        6.58580
C         -4.53790       -1.25590        6.93340
C         -3.63130       -2.02400        6.08610
C         -3.78230       -2.21990        4.73720
C         -3.09510       -3.22320        4.02230
N         -2.59840       -4.06490        3.41950
C         -4.69040       -1.51230        3.92700
N         -5.38590       -0.94660        3.20900
C         -7.31000        1.16750        7.99940
C         -8.74300        0.74490        7.61150
C         -9.62360        1.60360        8.49020
C         -9.51060        1.15620        9.73430
C         -8.55200       -0.01270        9.71740
C         -8.87710       -0.59980        8.33770
C         -7.17650        0.64090        9.46430
C         -0.67210       -3.18160        5.64520
C          0.28160       -4.06820        5.16960
C          0.55530       -5.42370        5.73230
C          1.72530       -5.36630        6.71780
C          0.95800       -3.54430        4.06110
S          2.16080       -4.21280        2.98400
C          2.09770       -2.76440        2.04500
C          2.65260       -2.23520        0.86430
C          3.66190       -2.72280       -0.00770
C          4.05790       -1.90930       -1.10600
N          5.05410       -2.28590       -1.91560
C          5.62620       -3.44210       -1.66080
C          5.21580       -4.25670       -0.59920
N          4.25120       -3.90180        0.22090
C          3.32900       -0.71710       -1.35970
C          3.36170        0.18160       -2.44320
S          4.24300        0.43810       -3.90570
C          3.18150        1.77210       -4.30270
C          3.07310        2.61800       -5.42100
C          4.02200        2.62910       -6.57140
C          5.48610        2.54610       -6.15000
C          2.01040        3.49700       -5.27440
S          1.19040        3.32230       -3.72330
C          2.21330        1.99810       -3.31660
C          2.31100        1.08710       -2.26190
N          1.63460        0.80550       -1.09890
C          2.26330       -0.28600       -0.52920
C          2.03130       -0.97410        0.67530
N          1.19040       -0.70080        1.73600
C          1.21320       -1.80410        2.55440
C          0.56070       -2.25010        3.70400
S         -0.67710       -1.66120        4.74770
C          0.86650        0.61040        2.26090
C          1.70910        0.93840        3.49330
C          0.23150        1.15330       -0.98450
C         -0.59690        0.47400       -2.07440
C          1.52530        4.52060       -6.12920
C          1.42760        4.46200       -7.48260
S          1.00870        5.86510       -8.45140
C          1.02390        4.91080       -9.92140
C          0.75800        5.52110      -11.12200
C          0.68800        4.91700      -12.38760
N          0.61260        4.49560      -13.45430
C          0.50440        6.90910      -11.14480
N          0.29930        8.03720      -11.17640
N          1.28380        3.60630       -9.65800
C          1.45310        2.54640      -10.64570
C          2.92500        2.31990      -10.89140
C          3.60470        1.34080      -10.17800
C          4.96760        1.17220      -10.34780
C          5.66110        1.97750      -11.23500
C          4.98690        2.94860      -11.95580
C          3.62500        3.12310      -11.78270
C          1.48960        3.27260       -8.32180
O          1.61830        2.12620       -7.95240
H         -1.20030       -4.02090        7.53400
H         -5.04460       -1.60980       10.31850
H         -5.55220        0.10860        5.57830
H         -7.10760        2.21860        7.80270
H         -8.94890        0.76130        6.54480
H        -10.17660        2.45410        8.13700
H         -9.95040        1.55850       10.62800
H         -8.58650       -0.68600       10.56960
H         -8.17380       -1.35880        8.00030
H         -9.89020       -0.99500        8.28740
H         -6.88810        1.34110       10.24620
H          0.81140       -6.09360        4.90930
H         -0.33310       -5.81270        6.22930
H          2.62050       -4.99980        6.22100
H          1.49430       -4.70380        7.54910
H          1.92870       -6.35850        7.11140
H          6.43230       -3.73310       -2.32010
H          5.68110       -5.21330       -0.40560
H          3.86430        3.54000       -7.15340
H          3.77800        1.78450       -7.22240
H          5.72830        3.34410       -5.45140
H          5.70770        1.59300       -5.67930
H          6.11980        2.65040       -7.02730
H          1.07810        1.35560        1.49520
H         -0.19690        0.63850        2.52150
H          1.48290        0.26360        4.31390
H          2.76800        0.85930        3.25610
H          1.49830        1.95420        3.81580
H          0.14070        2.24070       -1.06810
H         -0.14600        0.83040       -0.01760
H         -0.48340       -0.60620       -2.01230
H         -0.28790        0.80090       -3.06330
H         -1.64580        0.72250       -1.94040
H          1.17050        5.42120       -5.64110
H          1.00360        1.64770      -10.21360
H          0.92940        2.81650      -11.56120
H          3.06190        0.71390       -9.48660
H          5.48740        0.40960       -9.78710
H          6.72450        1.84570      -11.36880
H          5.52090        3.57340      -12.65590
H          3.10350        3.87540      -12.35580
