119

C          5.14750       -0.58260        4.01870
C          4.66680       -0.44350        5.28130
C          5.35450       -1.09130        6.42970
O          6.25190       -1.90170        6.36990
C          4.74230       -0.50350        7.63660
C          5.09610       -0.74470        8.96330
C          4.33700       -0.05820        9.88030
C          3.30460        0.81460        9.50890
C          2.94320        1.06260        8.20700
C          3.69550        0.36400        7.25780
C          3.54400        0.30870        5.80660
C          2.41550        0.67610        5.12090
C          2.12630        0.31980        3.78760
N          1.76250        0.00440        2.74470
C          1.32450        1.36230        5.69330
N          0.41600        1.94420        6.08610
C          2.96760        1.15500       10.93850
C          3.46530        2.51830       11.46250
C          3.41760        2.36610       12.96570
C          4.39420        1.54010       13.31870
C          5.11900        1.12040       12.06010
C          4.97800        2.40510       11.23350
C          4.11760        0.18200       11.35370
C          4.79500        0.18780        2.87820
C          4.54020        1.54380        2.76070
C          4.76390        2.56510        3.82880
C          5.77890        3.61850        3.38420
C          4.09090        1.86320        1.46970
S          3.47010        3.34140        0.77110
C          2.95830        2.44590       -0.61510
C          2.12630        2.62130       -1.73220
C          1.35760        3.74910       -2.12480
C          0.33640        3.55680       -3.09230
N         -0.49190        4.55210       -3.42710
C         -0.29930        5.71060       -2.83440
C          0.72390        5.90720       -1.90020
N          1.54010        4.93930       -1.54310
C          0.22450        2.28030       -3.70270
C         -0.71310        1.78370       -4.62470
S         -2.19470        2.27170       -5.36270
C         -2.35920        0.67230       -6.05300
C         -3.38990        0.04220       -6.76320
C         -4.58620        0.75910       -7.30240
C         -5.38130        1.48880       -6.22070
C         -3.07230       -1.28390       -7.02790
S         -1.45650       -1.71850       -6.46590
C         -1.26540       -0.15830       -5.76430
C         -0.33570        0.47210       -4.93570
N          0.80320        0.13510       -4.24520
C          1.12440        1.21250       -3.44020
C          2.00750        1.34430       -2.34700
N          2.73850        0.42630       -1.62210
C          3.30200        1.09060       -0.56570
C          3.96770        0.75910        0.61860
S          4.55950       -0.67620        1.36340
C          2.66060       -1.01800       -1.60250
C          3.97710       -1.66490       -2.02860
C          1.69530       -0.88560       -4.75220
C          2.09900       -0.60050       -6.19850
C         -3.82180       -2.30130       -7.66490
C         -5.14600       -2.55320       -7.43320
C         -5.84050       -2.13600       -6.19130
O         -5.43720       -1.39170       -5.32510
C         -7.08100       -2.93970       -6.15370
C         -8.04230       -2.97510       -5.16650
C         -9.12400       -3.83900       -5.33810
C        -10.20040       -3.95120       -4.31830
O        -11.16260       -4.67010       -4.42540
O         -9.97790       -3.16760       -3.25630
C        -10.95370       -3.22410       -2.22650
C         -9.21310       -4.63640       -6.47940
C         -8.24180       -4.60280       -7.46790
C         -7.16230       -3.74730       -7.30320
C         -5.98650       -3.49730       -8.13360
C         -5.75600       -4.00040       -9.38770
C         -4.64520       -3.64550      -10.18170
N         -3.77500       -3.37640      -10.88070
C         -6.61310       -4.90190      -10.05040
N         -7.26970       -5.64100      -10.63390
H          5.87700       -1.37350        3.87320
H          5.89380       -1.42860        9.20730
H          2.14890        1.73720        7.93430
H          1.95100        0.92420       11.25060
H          2.95660        3.38100       11.04120
H          2.66790        2.81520       13.59030
H          4.62330        1.16140       14.29740
H          6.11790        0.71090       12.18410
H          5.26140        2.29340       10.18840
H          5.52420        3.23850       11.67200
H          3.86780       -0.69690       11.94490
H          3.81170        3.05650        4.05280
H          5.12280        2.08080        4.73840
H          6.73060        3.14830        3.14670
H          5.93770        4.33810        4.18310
H          5.42340        4.15010        2.50580
H         -0.97330        6.50870       -3.11320
H          0.88510        6.86740       -1.42990
H         -4.22980        1.49090       -8.03510
H         -5.23100        0.05010       -7.82310
H         -4.79060        2.28690       -5.77980
H         -6.27900        1.92110       -6.65560
H         -5.66810        0.79390       -5.43710
H          2.43840       -1.32140       -0.57340
H          1.82940       -1.34010       -2.22880
H          4.29640       -1.32010       -3.01000
H          4.76000       -1.42170       -1.31510
H          3.86250       -2.74460       -2.05760
H          2.59320       -0.89800       -4.14150
H          1.19500       -1.85800       -4.69370
H          2.55710        0.38340       -6.27490
H          1.23850       -0.63750       -6.86020
H          2.81660       -1.34690       -6.52780
H         -3.26310       -2.97730       -8.30250
H         -7.95560       -2.35310       -4.28990
H        -11.06520       -4.24860       -1.86570
H        -10.59490       -2.57460       -1.43240
H        -11.91940       -2.87730       -2.59970
H        -10.06440       -5.29390       -6.57300
H         -8.33060       -5.23920       -8.33340
