
  xtb     02022219593D
 energy: -196.388405132966 gnorm: 0.000827746420 xtb: 6.4.1 (unknown)
110124  0     0  0            999 V2000
    4.3681    1.3685   -4.8594 C   0  0  0  0  0  0  0  0  0  0  0  0
    4.1241    2.7176   -4.9192 C   0  0  0  0  0  0  0  0  0  0  0  0
    3.2058    3.4719   -4.0624 C   0  0  0  0  0  0  0  0  0  0  0  0
    2.5426    3.0487   -3.1292 O   0  0  0  0  0  0  0  0  0  0  0  0
    3.2269    4.8603   -4.5506 C   0  0  0  0  0  0  0  0  0  0  0  0
    2.4844    5.9321   -4.0619 C   0  0  0  0  0  0  0  0  0  0  0  0
    2.6992    7.1124   -4.7319 C   0  0  0  0  0  0  0  0  0  0  0  0
    3.5856    7.2175   -5.8118 C   0  0  0  0  0  0  0  0  0  0  0  0
    4.3236    6.1669   -6.3037 C   0  0  0  0  0  0  0  0  0  0  0  0
    4.1237    4.9569   -5.6337 C   0  0  0  0  0  0  0  0  0  0  0  0
    4.7131    3.6393   -5.8705 C   0  0  0  0  0  0  0  0  0  0  0  0
    5.6617    3.3578   -6.8214 C   0  0  0  0  0  0  0  0  0  0  0  0
    6.2425    2.0955   -7.0621 C   0  0  0  0  0  0  0  0  0  0  0  0
    6.7655    1.1059   -7.3242 N   0  0  0  0  0  0  0  0  0  0  0  0
    6.2137    4.3076   -7.7062 C   0  0  0  0  0  0  0  0  0  0  0  0
    6.7138    5.0202   -8.4553 N   0  0  0  0  0  0  0  0  0  0  0  0
    3.3049    8.6869   -6.0025 C   0  0  0  0  0  0  0  0  0  0  0  0
    4.3597    9.6967   -5.4870 C   0  0  0  0  0  0  0  0  0  0  0  0
    5.0919    9.0129   -4.3592 C   0  0  0  0  0  0  0  0  0  0  0  0
    4.2552    8.9131   -3.3350 C   0  0  0  0  0  0  0  0  0  0  0  0
    2.9417    9.5275   -3.7518 C   0  0  0  0  0  0  0  0  0  0  0  0
    3.4470   10.6388   -4.6856 C   0  0  0  0  0  0  0  0  0  0  0  0
    2.3186    8.5702   -4.7977 C   0  0  0  0  0  0  0  0  0  0  0  0
    3.8592    0.3794   -4.0102 C   0  0  0  0  0  0  0  0  0  0  0  0
    4.2165   -0.9752   -4.1169 C   0  0  0  0  0  0  0  0  0  0  0  0
    5.2090   -1.5466   -5.0758 C   0  0  0  0  0  0  0  0  0  0  0  0
    6.6346   -1.3851   -4.5408 C   0  0  0  0  0  0  0  0  0  0  0  0
    3.5663   -1.7481   -3.1635 C   0  0  0  0  0  0  0  0  0  0  0  0
    3.6002   -3.4679   -2.8183 S   0  0  0  0  0  0  0  0  0  0  0  0
    2.4585   -3.1991   -1.5503 C   0  0  0  0  0  0  0  0  0  0  0  0
    1.7720   -3.9320   -0.5737 C   0  0  0  0  0  0  0  0  0  0  0  0
    1.8576   -5.3190   -0.2888 C   0  0  0  0  0  0  0  0  0  0  0  0
    1.0906   -5.8212    0.7877 C   0  0  0  0  0  0  0  0  0  0  0  0
    1.1418   -7.1127    1.1328 N   0  0  0  0  0  0  0  0  0  0  0  0
    1.9339   -7.8826    0.4182 C   0  0  0  0  0  0  0  0  0  0  0  0
    2.6867   -7.3872   -0.6530 C   0  0  0  0  0  0  0  0  0  0  0  0
    2.6533   -6.1204   -1.0060 N   0  0  0  0  0  0  0  0  0  0  0  0
    0.2436   -4.9157    1.4770 C   0  0  0  0  0  0  0  0  0  0  0  0
   -0.6548   -5.1844    2.5174 C   0  0  0  0  0  0  0  0  0  0  0  0
   -1.1888   -6.5280    3.4616 S   0  0  0  0  0  0  0  0  0  0  0  0
   -2.3156   -5.4601    4.2782 C   0  0  0  0  0  0  0  0  0  0  0  0
   -3.2510   -5.6807    5.2802 C   0  0  0  0  0  0  0  0  0  0  0  0
   -3.5141   -7.0336    5.8557 C   0  0  0  0  0  0  0  0  0  0  0  0
   -4.6902   -7.7057    5.1417 C   0  0  0  0  0  0  0  0  0  0  0  0
   -3.9343   -4.4987    5.6132 C   0  0  0  0  0  0  0  0  0  0  0  0
   -3.3823   -3.1204    4.6595 S   0  0  0  0  0  0  0  0  0  0  0  0
   -2.2598   -4.1291    3.8272 C   0  0  0  0  0  0  0  0  0  0  0  0
   -1.3044   -3.9826    2.8174 C   0  0  0  0  0  0  0  0  0  0  0  0
   -0.8231   -2.9801    2.0177 N   0  0  0  0  0  0  0  0  0  0  0  0
    0.1270   -3.5259    1.1735 C   0  0  0  0  0  0  0  0  0  0  0  0
    0.9598   -3.0063    0.1482 C   0  0  0  0  0  0  0  0  0  0  0  0
    1.1691   -1.7463   -0.3831 N   0  0  0  0  0  0  0  0  0  0  0  0
    2.0779   -1.8620   -1.4007 C   0  0  0  0  0  0  0  0  0  0  0  0
    2.7096   -1.0192   -2.3212 C   0  0  0  0  0  0  0  0  0  0  0  0
    2.7041    0.6616   -2.7062 S   0  0  0  0  0  0  0  0  0  0  0  0
    0.8355   -0.4289    0.1078 C   0  0  0  0  0  0  0  0  0  0  0  0
    1.6089   -0.0988    1.3830 C   0  0  0  0  0  0  0  0  0  0  0  0
   -1.5265   -1.7184    1.9835 C   0  0  0  0  0  0  0  0  0  0  0  0
   -2.4642   -1.6394    0.7803 C   0  0  0  0  0  0  0  0  0  0  0  0
   -4.9349   -4.4440    6.5883 C   0  0  0  0  0  0  0  0  0  0  0  0
   -5.6966   -3.3981    7.0446 C   0  0  0  0  0  0  0  0  0  0  0  0
   -5.6303   -1.9942    6.6048 C   0  0  0  0  0  0  0  0  0  0  0  0
   -4.9076   -1.5148    5.7511 O   0  0  0  0  0  0  0  0  0  0  0  0
   -6.6265   -1.2805    7.4223 C   0  0  0  0  0  0  0  0  0  0  0  0
   -7.1022    0.0307    7.5691 C   0  0  0  0  0  0  0  0  0  0  0  0
   -8.0733    0.0850    8.5318 C   0  0  0  0  0  0  0  0  0  0  0  0
   -8.9210    1.4743    9.0349 Cl  0  0  0  0  0  0  0  0  0  0  0  0
   -8.4219   -1.4582    9.2724 S   0  0  0  0  0  0  0  0  0  0  0  0
   -7.2384   -2.1905    8.2688 C   0  0  0  0  0  0  0  0  0  0  0  0
   -6.7102   -3.5151    8.0807 C   0  0  0  0  0  0  0  0  0  0  0  0
   -7.1301   -4.6238    8.7747 C   0  0  0  0  0  0  0  0  0  0  0  0
   -8.1451   -4.5160    9.7480 C   0  0  0  0  0  0  0  0  0  0  0  0
   -8.9676   -4.4399   10.5447 N   0  0  0  0  0  0  0  0  0  0  0  0
   -6.6431   -5.9338    8.6170 C   0  0  0  0  0  0  0  0  0  0  0  0
   -6.2855   -7.0229    8.5358 N   0  0  0  0  0  0  0  0  0  0  0  0
    5.0621    0.9813   -5.5926 H   0  0  0  0  0  0  0  0  0  0  0  0
    1.8081    5.8046   -3.2310 H   0  0  0  0  0  0  0  0  0  0  0  0
    4.9968    6.2663   -7.1385 H   0  0  0  0  0  0  0  0  0  0  0  0
    2.8962    8.9716   -6.9700 H   0  0  0  0  0  0  0  0  0  0  0  0
    4.9787   10.1384   -6.2632 H   0  0  0  0  0  0  0  0  0  0  0  0
    6.0934    8.6325   -4.4396 H   0  0  0  0  0  0  0  0  0  0  0  0
    4.4178    8.4320   -2.3882 H   0  0  0  0  0  0  0  0  0  0  0  0
    2.2700    9.8163   -2.9475 H   0  0  0  0  0  0  0  0  0  0  0  0
    2.6593   11.0935   -5.2849 H   0  0  0  0  0  0  0  0  0  0  0  0
    4.0009   11.4134   -4.1575 H   0  0  0  0  0  0  0  0  0  0  0  0
    1.2662    8.7812   -4.9782 H   0  0  0  0  0  0  0  0  0  0  0  0
    5.1336   -1.0689   -6.0536 H   0  0  0  0  0  0  0  0  0  0  0  0
    4.9918   -2.6098   -5.1964 H   0  0  0  0  0  0  0  0  0  0  0  0
    6.8822   -0.3336   -4.4168 H   0  0  0  0  0  0  0  0  0  0  0  0
    7.3414   -1.8237   -5.2390 H   0  0  0  0  0  0  0  0  0  0  0  0
    6.7358   -1.8832   -3.5793 H   0  0  0  0  0  0  0  0  0  0  0  0
    1.9721   -8.9251    0.7026 H   0  0  0  0  0  0  0  0  0  0  0  0
    3.3314   -8.0298   -1.2365 H   0  0  0  0  0  0  0  0  0  0  0  0
   -3.7255   -6.9732    6.9241 H   0  0  0  0  0  0  0  0  0  0  0  0
   -2.6186   -7.6424    5.7171 H   0  0  0  0  0  0  0  0  0  0  0  0
   -4.4825   -7.7998    4.0785 H   0  0  0  0  0  0  0  0  0  0  0  0
   -4.8542   -8.6964    5.5555 H   0  0  0  0  0  0  0  0  0  0  0  0
   -5.6009   -7.1251    5.2687 H   0  0  0  0  0  0  0  0  0  0  0  0
   -0.2397   -0.3339    0.2486 H   0  0  0  0  0  0  0  0  0  0  0  0
    1.1224    0.2771   -0.6755 H   0  0  0  0  0  0  0  0  0  0  0  0
    1.3215    0.8837    1.7473 H   0  0  0  0  0  0  0  0  0  0  0  0
    1.4216   -0.8355    2.1617 H   0  0  0  0  0  0  0  0  0  0  0  0
    2.6762   -0.0903    1.1752 H   0  0  0  0  0  0  0  0  0  0  0  0
   -2.1177   -1.6656    2.9011 H   0  0  0  0  0  0  0  0  0  0  0  0
   -0.8229   -0.8884    2.0055 H   0  0  0  0  0  0  0  0  0  0  0  0
   -3.2318   -2.4055    0.8598 H   0  0  0  0  0  0  0  0  0  0  0  0
   -2.9496   -0.6679    0.7502 H   0  0  0  0  0  0  0  0  0  0  0  0
   -1.9243   -1.7963   -0.1514 H   0  0  0  0  0  0  0  0  0  0  0  0
   -5.1299   -5.4005    7.0551 H   0  0  0  0  0  0  0  0  0  0  0  0
   -6.7580    0.8798    7.0094 H   0  0  0  0  0  0  0  0  0  0  0  0
  1  2  2  0  0  0  0
  2  3  1  0  0  0  0
  3  4  2  0  0  0  0
  3  5  1  0  0  0  0
  5  6  2  0  0  0  0
  6  7  1  0  0  0  0
  7  8  2  0  0  0  0
  8  9  1  0  0  0  0
  9 10  2  0  0  0  0
 10 11  1  0  0  0  0
 11 12  2  0  0  0  0
 12 13  1  0  0  0  0
 13 14  3  0  0  0  0
 12 15  1  0  0  0  0
 15 16  3  0  0  0  0
  8 17  1  0  0  0  0
 17 18  1  0  0  0  0
 18 19  1  0  0  0  0
 19 20  2  0  0  0  0
 20 21  1  0  0  0  0
 21 22  1  0  0  0  0
 21 23  1  0  0  0  0
  1 24  1  0  0  0  0
 24 25  2  0  0  0  0
 25 26  1  0  0  0  0
 26 27  1  0  0  0  0
 25 28  1  0  0  0  0
 28 29  1  0  0  0  0
 29 30  1  0  0  0  0
 30 31  1  0  0  0  0
 31 32  2  0  0  0  0
 32 33  1  0  0  0  0
 33 34  1  0  0  0  0
 34 35  2  0  0  0  0
 35 36  1  0  0  0  0
 36 37  2  0  0  0  0
 33 38  2  0  0  0  0
 38 39  1  0  0  0  0
 39 40  1  0  0  0  0
 40 41  1  0  0  0  0
 41 42  1  0  0  0  0
 42 43  1  0  0  0  0
 43 44  1  0  0  0  0
 42 45  2  0  0  0  0
 45 46  1  0  0  0  0
 46 47  1  0  0  0  0
 47 48  1  0  0  0  0
 48 49  1  0  0  0  0
 49 50  1  0  0  0  0
 50 51  2  0  0  0  0
 51 52  1  0  0  0  0
 52 53  1  0  0  0  0
 53 54  1  0  0  0  0
 54 55  1  0  0  0  0
 52 56  1  0  0  0  0
 56 57  1  0  0  0  0
 49 58  1  0  0  0  0
 58 59  1  0  0  0  0
 45 60  1  0  0  0  0
 60 61  2  0  0  0  0
 61 62  1  0  0  0  0
 62 63  2  0  0  0  0
 62 64  1  0  0  0  0
 64 65  1  0  0  0  0
 65 66  2  0  0  0  0
 66 67  1  0  0  0  0
 66 68  1  0  0  0  0
 68 69  1  0  0  0  0
 69 70  1  0  0  0  0
 70 71  2  0  0  0  0
 71 72  1  0  0  0  0
 72 73  3  0  0  0  0
 71 74  1  0  0  0  0
 74 75  3  0  0  0  0
 11  2  1  0  0  0  0
 23 17  1  0  0  0  0
 55 24  1  0  0  0  0
 70 61  1  0  0  0  0
 10  5  1  0  0  0  0
 22 18  1  0  0  0  0
 54 28  2  0  0  0  0
 69 64  2  0  0  0  0
 23  7  1  0  0  0  0
 53 30  2  0  0  0  0
 51 31  1  0  0  0  0
 37 32  1  0  0  0  0
 50 38  1  0  0  0  0
 48 39  2  0  0  0  0
 47 41  2  0  0  0  0
  1 76  1  0  0  0  0
  6 77  1  0  0  0  0
  9 78  1  0  0  0  0
 17 79  1  0  0  0  0
 18 80  1  0  0  0  0
 19 81  1  0  0  0  0
 20 82  1  0  0  0  0
 21 83  1  0  0  0  0
 22 84  1  0  0  0  0
 22 85  1  0  0  0  0
 23 86  1  0  0  0  0
 26 87  1  0  0  0  0
 26 88  1  0  0  0  0
 27 89  1  0  0  0  0
 27 90  1  0  0  0  0
 27 91  1  0  0  0  0
 35 92  1  0  0  0  0
 36 93  1  0  0  0  0
 43 94  1  0  0  0  0
 43 95  1  0  0  0  0
 44 96  1  0  0  0  0
 44 97  1  0  0  0  0
 44 98  1  0  0  0  0
 56 99  1  0  0  0  0
 56100  1  0  0  0  0
 57101  1  0  0  0  0
 57102  1  0  0  0  0
 57103  1  0  0  0  0
 58104  1  0  0  0  0
 58105  1  0  0  0  0
 59106  1  0  0  0  0
 59107  1  0  0  0  0
 59108  1  0  0  0  0
 60109  1  0  0  0  0
 65110  1  0  0  0  0
M  END
