110

C          4.36810        1.36850       -4.85940
C          4.12410        2.71760       -4.91920
C          3.20580        3.47190       -4.06240
O          2.54260        3.04870       -3.12920
C          3.22690        4.86030       -4.55060
C          2.48440        5.93210       -4.06190
C          2.69920        7.11240       -4.73190
C          3.58560        7.21750       -5.81180
C          4.32360        6.16690       -6.30370
C          4.12370        4.95690       -5.63370
C          4.71310        3.63930       -5.87050
C          5.66170        3.35780       -6.82140
C          6.24250        2.09550       -7.06210
N          6.76550        1.10590       -7.32420
C          6.21370        4.30760       -7.70620
N          6.71380        5.02020       -8.45530
C          3.30490        8.68690       -6.00250
C          4.35970        9.69670       -5.48700
C          5.09190        9.01290       -4.35920
C          4.25520        8.91310       -3.33500
C          2.94170        9.52750       -3.75180
C          3.44700       10.63880       -4.68560
C          2.31860        8.57020       -4.79770
C          3.85920        0.37940       -4.01020
C          4.21650       -0.97520       -4.11690
C          5.20900       -1.54660       -5.07580
C          6.63460       -1.38510       -4.54080
C          3.56630       -1.74810       -3.16350
S          3.60020       -3.46790       -2.81830
C          2.45850       -3.19910       -1.55030
C          1.77200       -3.93200       -0.57370
C          1.85760       -5.31900       -0.28880
C          1.09060       -5.82120        0.78770
N          1.14180       -7.11270        1.13280
C          1.93390       -7.88260        0.41820
C          2.68670       -7.38720       -0.65300
N          2.65330       -6.12040       -1.00600
C          0.24360       -4.91570        1.47700
C         -0.65480       -5.18440        2.51740
S         -1.18880       -6.52800        3.46160
C         -2.31560       -5.46010        4.27820
C         -3.25100       -5.68070        5.28020
C         -3.51410       -7.03360        5.85570
C         -4.69020       -7.70570        5.14170
C         -3.93430       -4.49870        5.61320
S         -3.38230       -3.12040        4.65950
C         -2.25980       -4.12910        3.82720
C         -1.30440       -3.98260        2.81740
N         -0.82310       -2.98010        2.01770
C          0.12700       -3.52590        1.17350
C          0.95980       -3.00630        0.14820
N          1.16910       -1.74630       -0.38310
C          2.07790       -1.86200       -1.40070
C          2.70960       -1.01920       -2.32120
S          2.70410        0.66160       -2.70620
C          0.83550       -0.42890        0.10780
C          1.60890       -0.09880        1.38300
C         -1.52650       -1.71840        1.98350
C         -2.46420       -1.63940        0.78030
C         -4.93490       -4.44400        6.58830
C         -5.69660       -3.39810        7.04460
C         -5.63030       -1.99420        6.60480
O         -4.90760       -1.51480        5.75110
C         -6.62650       -1.28050        7.42230
C         -7.10220        0.03070        7.56910
C         -8.07330        0.08500        8.53180
Cl        -8.92100        1.47430        9.03490
S         -8.42190       -1.45820        9.27240
C         -7.23840       -2.19050        8.26880
C         -6.71020       -3.51510        8.08070
C         -7.13010       -4.62380        8.77470
C         -8.14510       -4.51600        9.74800
N         -8.96760       -4.43990       10.54470
C         -6.64310       -5.93380        8.61700
N         -6.28550       -7.02290        8.53580
H          5.06210        0.98130       -5.59260
H          1.80810        5.80460       -3.23100
H          4.99680        6.26630       -7.13850
H          2.89620        8.97160       -6.97000
H          4.97870       10.13840       -6.26320
H          6.09340        8.63250       -4.43960
H          4.41780        8.43200       -2.38820
H          2.27000        9.81630       -2.94750
H          2.65930       11.09350       -5.28490
H          4.00090       11.41340       -4.15750
H          1.26620        8.78120       -4.97820
H          5.13360       -1.06890       -6.05360
H          4.99180       -2.60980       -5.19640
H          6.88220       -0.33360       -4.41680
H          7.34140       -1.82370       -5.23900
H          6.73580       -1.88320       -3.57930
H          1.97210       -8.92510        0.70260
H          3.33140       -8.02980       -1.23650
H         -3.72550       -6.97320        6.92410
H         -2.61860       -7.64240        5.71710
H         -4.48250       -7.79980        4.07850
H         -4.85420       -8.69640        5.55550
H         -5.60090       -7.12510        5.26870
H         -0.23970       -0.33390        0.24860
H          1.12240        0.27710       -0.67550
H          1.32150        0.88370        1.74730
H          1.42160       -0.83550        2.16170
H          2.67620       -0.09030        1.17520
H         -2.11770       -1.66560        2.90110
H         -0.82290       -0.88840        2.00550
H         -3.23180       -2.40550        0.85980
H         -2.94960       -0.66790        0.75020
H         -1.92430       -1.79630       -0.15140
H         -5.12990       -5.40050        7.05510
H         -6.75800        0.87980        7.00940
