130

C          0.66660        4.39300       -4.62300
C          1.71840        3.89420       -5.35130
C          2.42950        2.64030       -5.09320
O          2.20320        1.82180       -4.21560
C          3.48590        2.54070       -6.11170
C          4.41570        1.51320       -6.25520
C          5.29010        1.69430       -7.29930
C          5.24070        2.81400       -8.14000
C          4.32380        3.83070       -8.01250
C          3.42470        3.66870       -6.95390
C          2.32860        4.52760       -6.50400
C          1.97410        5.71970       -7.08260
C          2.61570        6.28430       -8.20520
N          3.08580        6.81050       -9.11130
C          0.93610        6.57750       -6.66220
N          0.12650        7.34900       -6.39730
C          6.41800        2.34910       -8.96080
C          7.76890        3.04190       -8.68250
C          8.79020        2.08460       -9.25320
C          8.83590        1.02250       -8.45910
C          7.84620        1.24430       -7.33810
C          7.95790        2.76670       -7.18510
C          6.47140        1.09930       -8.02440
C          0.02250        3.88120       -3.49000
C         -1.02390        4.56230       -2.83890
C         -1.48740        5.90780       -3.17250
C         -2.85080        6.14440       -3.33220
C         -3.29560        7.41400       -3.64590
C         -2.39450        8.45440       -3.78740
C         -1.03300        8.24250       -3.60890
C         -0.06310        9.38330       -3.69980
C          0.06680       10.08340       -2.34580
C         -0.59120        6.96630       -3.29810
C         -1.55870        3.80580       -1.79900
S         -2.80280        4.14050       -0.60980
C         -2.45270        2.61860        0.13640
C         -2.80050        1.89850        1.28710
C         -3.59360        2.24570        2.40480
C         -3.54270        1.41800        3.57730
N         -4.25830        1.91100        4.57530
S         -4.94690        3.29050        4.08120
N         -4.35140        3.31670        2.57680
C         -2.81380        0.20820        3.53050
C         -2.62300       -0.80980        4.47730
S         -3.01050       -1.15680        6.12490
C         -2.21770       -2.70730        5.96040
C         -1.99120       -3.75630        6.85790
C         -2.40530       -3.69670        8.25840
C         -1.51180       -3.97990        9.28960
C         -1.91840       -3.84970       10.60360
C         -3.20540       -3.43470       10.90090
C         -4.10610       -3.14070        9.88480
C         -5.48020       -2.62150       10.19130
C         -5.48760       -1.09220       10.13300
C         -3.69400       -3.27330        8.56770
C         -1.34550       -4.82870        6.23450
S         -0.90610       -4.45090        4.56620
C         -1.68460       -2.92020        4.68090
C         -1.91120       -1.83400        3.83810
N         -1.63990       -1.48530        2.53880
C         -2.15420       -0.21440        2.34200
C         -2.02710        0.70070        1.26870
N         -1.20720        0.72360        0.16090
C         -1.45590        1.88380       -0.52070
C         -0.92800        2.56420       -1.62220
S          0.34290        2.30960       -2.76020
C         -0.04430       -0.07440       -0.15790
C         -0.25240       -0.91370       -1.41850
C         -1.46720       -2.54120        1.56080
C         -2.71580       -3.41830        1.46430
C         -1.05280       -6.07360        6.81180
C         -0.67440       -7.24160        6.20590
C          0.06990       -8.25470        6.98910
O          0.21700       -8.29300        8.18950
C          0.64960       -9.16990        5.97590
C          1.52530      -10.21870        6.16220
C          1.94210      -10.90820        5.03090
Br         3.15180      -12.36150        5.22410
C          1.50210      -10.56270        3.76030
C          0.61300       -9.51270        3.58360
C          0.18230       -8.81130        4.69830
C         -0.76420       -7.70630        4.84330
C         -1.75100       -7.39450        3.94120
C         -1.82190       -7.91930        2.63750
N         -1.90710       -8.28700        1.55280
C         -2.85310       -6.57210        4.25310
N         -3.79430       -5.95440        4.48080
H          0.24870        5.33480       -4.95720
H          4.41440        0.66740       -5.58550
H          4.29840        4.68030       -8.67360
H          6.22760        2.19850      -10.02160
H          7.82710        4.07500       -9.01390
H          9.31630        2.24820      -10.17530
H          9.40740        0.12170       -8.58530
H          7.97560        0.63960       -6.44440
H          8.94080        3.07360       -6.83120
H          7.18950        3.20690       -6.55220
H          6.31470        0.11460       -8.46080
H         -3.55010        5.32770       -3.23420
H         -4.35180        7.59160       -3.78360
H         -2.74940        9.44310       -4.03840
H          0.91380        9.01240       -4.01440
H         -0.40960       10.09840       -4.44700
H          0.76960       10.91060       -2.41120
H         -0.89760       10.47140       -2.02560
H          0.42110        9.38560       -1.58980
H          0.46290        6.79450       -3.12790
H         -0.49470       -4.26380        9.06340
H         -1.22360       -4.06600       11.40130
H         -3.51200       -3.33320       11.93180
H         -5.78940       -2.94850       11.18570
H         -6.19390       -3.01220        9.46360
H         -5.18920       -0.74910        9.14500
H         -6.48180       -0.70900       10.34940
H         -4.79130       -0.68280       10.86160
H         -4.38820       -3.06290        7.76750
H          0.78980        0.61290       -0.33700
H          0.21090       -0.68910        0.70590
H          0.57960       -1.60060       -1.54290
H         -1.17790       -1.48430       -1.37490
H         -0.29480       -0.26930       -2.29190
H         -1.27540       -2.10630        0.58660
H         -0.60800       -3.14810        1.86380
H         -3.57600       -2.81830        1.17510
H         -2.93710       -3.90300        2.41160
H         -2.56000       -4.19000        0.71530
H         -1.05900       -6.10720        7.89590
H          1.86580      -10.48650        7.15030
H          1.85490      -11.11760        2.90470
H          0.28260       -9.25330        2.59070
