
  xtb     02022217403D
 energy: -201.112392395772 gnorm: 0.000294908893 xtb: 6.4.1 (unknown)
116130  0     0  0            999 V2000
    6.0673   -0.0171   -5.3091 C   0  0  0  0  0  0  0  0  0  0  0  0
    6.7701   -0.9872   -4.6636 C   0  0  0  0  0  0  0  0  0  0  0  0
    8.2563   -0.9653   -4.6733 C   0  0  0  0  0  0  0  0  0  0  0  0
    8.9670   -0.3169   -5.4085 O   0  0  0  0  0  0  0  0  0  0  0  0
    8.6626   -1.8474   -3.5609 C   0  0  0  0  0  0  0  0  0  0  0  0
    9.9522   -2.0574   -3.0780 C   0  0  0  0  0  0  0  0  0  0  0  0
   10.0173   -2.9186   -2.0089 C   0  0  0  0  0  0  0  0  0  0  0  0
    8.8845   -3.5312   -1.4553 C   0  0  0  0  0  0  0  0  0  0  0  0
    7.6070   -3.3425   -1.9263 C   0  0  0  0  0  0  0  0  0  0  0  0
    7.5201   -2.4691   -3.0126 C   0  0  0  0  0  0  0  0  0  0  0  0
    6.3552   -2.0650   -3.7936 C   0  0  0  0  0  0  0  0  0  0  0  0
    5.1753   -2.7573   -3.8885 C   0  0  0  0  0  0  0  0  0  0  0  0
    4.8145   -3.8357   -3.0591 C   0  0  0  0  0  0  0  0  0  0  0  0
    4.4498   -4.6964   -2.3920 N   0  0  0  0  0  0  0  0  0  0  0  0
    4.2244   -2.5042   -4.8991 C   0  0  0  0  0  0  0  0  0  0  0  0
    3.4589   -2.3577   -5.7423 N   0  0  0  0  0  0  0  0  0  0  0  0
    9.6893   -4.2505   -0.4024 C   0  0  0  0  0  0  0  0  0  0  0  0
    9.6634   -3.6841    1.0389 C   0  0  0  0  0  0  0  0  0  0  0  0
    9.3751   -2.2086    0.9149 C   0  0  0  0  0  0  0  0  0  0  0  0
   10.4468   -1.6293    0.3905 C   0  0  0  0  0  0  0  0  0  0  0  0
   11.4795   -2.7027    0.1507 C   0  0  0  0  0  0  0  0  0  0  0  0
   11.1724   -3.6417    1.3282 C   0  0  0  0  0  0  0  0  0  0  0  0
   10.9514   -3.5694   -1.0195 C   0  0  0  0  0  0  0  0  0  0  0  0
    4.7388    0.4088   -5.0883 C   0  0  0  0  0  0  0  0  0  0  0  0
    3.9554    1.1624   -5.9529 C   0  0  0  0  0  0  0  0  0  0  0  0
    4.3398    1.5208   -7.3482 C   0  0  0  0  0  0  0  0  0  0  0  0
    4.1159    0.3299   -8.2834 C   0  0  0  0  0  0  0  0  0  0  0  0
    2.7079    1.4542   -5.3903 C   0  0  0  0  0  0  0  0  0  0  0  0
    1.3196    2.3376   -5.9833 S   0  0  0  0  0  0  0  0  0  0  0  0
    0.5161    2.0345   -4.4846 C   0  0  0  0  0  0  0  0  0  0  0  0
   -0.6891    2.3539   -3.8393 C   0  0  0  0  0  0  0  0  0  0  0  0
   -1.7334    3.2183   -4.2578 C   0  0  0  0  0  0  0  0  0  0  0  0
   -2.7700    3.5039   -3.3345 C   0  0  0  0  0  0  0  0  0  0  0  0
   -3.7445    4.3700   -3.6347 N   0  0  0  0  0  0  0  0  0  0  0  0
   -3.6982    4.9231   -4.8272 C   0  0  0  0  0  0  0  0  0  0  0  0
   -2.6870    4.6237   -5.7479 C   0  0  0  0  0  0  0  0  0  0  0  0
   -1.7119    3.7864   -5.4689 N   0  0  0  0  0  0  0  0  0  0  0  0
   -2.7687    2.8119   -2.0957 C   0  0  0  0  0  0  0  0  0  0  0  0
   -3.7199    2.8316   -1.0629 C   0  0  0  0  0  0  0  0  0  0  0  0
   -5.1913    3.6415   -0.6572 S   0  0  0  0  0  0  0  0  0  0  0  0
   -5.2852    2.6835    0.8051 C   0  0  0  0  0  0  0  0  0  0  0  0
   -6.2072    2.6487    1.8538 C   0  0  0  0  0  0  0  0  0  0  0  0
   -7.4375    3.4941    1.8959 C   0  0  0  0  0  0  0  0  0  0  0  0
   -8.6370    2.7352    1.3229 C   0  0  0  0  0  0  0  0  0  0  0  0
   -5.8520    1.6982    2.8084 C   0  0  0  0  0  0  0  0  0  0  0  0
   -4.3563    0.8612    2.3928 S   0  0  0  0  0  0  0  0  0  0  0  0
   -4.2182    1.7830    0.9439 C   0  0  0  0  0  0  0  0  0  0  0  0
   -3.3203    1.8781   -0.1221 C   0  0  0  0  0  0  0  0  0  0  0  0
   -2.1418    1.2917   -0.5095 N   0  0  0  0  0  0  0  0  0  0  0  0
   -1.7780    1.8619   -1.7195 C   0  0  0  0  0  0  0  0  0  0  0  0
   -0.6479    1.7251   -2.5610 C   0  0  0  0  0  0  0  0  0  0  0  0
    0.5713    1.0952   -2.4224 N   0  0  0  0  0  0  0  0  0  0  0  0
    1.2723    1.2779   -3.5828 C   0  0  0  0  0  0  0  0  0  0  0  0
    2.5326    0.9584   -4.0920 C   0  0  0  0  0  0  0  0  0  0  0  0
    3.9323    0.1142   -3.5482 S   0  0  0  0  0  0  0  0  0  0  0  0
    1.2352    0.5307   -1.2709 C   0  0  0  0  0  0  0  0  0  0  0  0
    1.2907   -0.9950   -1.3368 C   0  0  0  0  0  0  0  0  0  0  0  0
   -1.8290   -0.0175    0.0250 C   0  0  0  0  0  0  0  0  0  0  0  0
   -2.5122   -1.1149   -0.7881 C   0  0  0  0  0  0  0  0  0  0  0  0
   -6.5506    1.3904    3.9887 C   0  0  0  0  0  0  0  0  0  0  0  0
   -6.2353    0.4606    4.9275 C   0  0  0  0  0  0  0  0  0  0  0  0
   -4.8593   -0.6230    4.9174 S   0  0  0  0  0  0  0  0  0  0  0  0
   -5.3727   -1.3368    6.4308 C   0  0  0  0  0  0  0  0  0  0  0  0
   -4.6942   -2.3897    6.9889 C   0  0  0  0  0  0  0  0  0  0  0  0
   -5.0884   -3.0790    8.1490 C   0  0  0  0  0  0  0  0  0  0  0  0
   -5.3617   -3.7020    9.0742 N   0  0  0  0  0  0  0  0  0  0  0  0
   -3.5288   -2.8724    6.3617 C   0  0  0  0  0  0  0  0  0  0  0  0
   -2.5760   -3.2541    5.8488 N   0  0  0  0  0  0  0  0  0  0  0  0
   -6.4973   -0.7447    6.9094 N   0  0  0  0  0  0  0  0  0  0  0  0
   -7.0618   -1.0616    8.1808 C   0  0  0  0  0  0  0  0  0  0  0  0
   -6.3867   -0.6945    9.3359 C   0  0  0  0  0  0  0  0  0  0  0  0
   -6.9422   -0.9929   10.5658 C   0  0  0  0  0  0  0  0  0  0  0  0
   -8.1636   -1.6410   10.6373 C   0  0  0  0  0  0  0  0  0  0  0  0
   -8.8388   -1.9857    9.4792 C   0  0  0  0  0  0  0  0  0  0  0  0
   -8.2915   -1.6961    8.2423 C   0  0  0  0  0  0  0  0  0  0  0  0
   -7.0544    0.2564    6.1181 C   0  0  0  0  0  0  0  0  0  0  0  0
   -8.0638    0.8563    6.4062 O   0  0  0  0  0  0  0  0  0  0  0  0
    6.6362    0.5625   -6.0302 H   0  0  0  0  0  0  0  0  0  0  0  0
   10.8009   -1.5704   -3.5322 H   0  0  0  0  0  0  0  0  0  0  0  0
    6.7393   -3.8136   -1.4938 H   0  0  0  0  0  0  0  0  0  0  0  0
    9.6350   -5.3370   -0.4221 H   0  0  0  0  0  0  0  0  0  0  0  0
    9.0359   -4.2396    1.7307 H   0  0  0  0  0  0  0  0  0  0  0  0
    8.4301   -1.7603    1.1600 H   0  0  0  0  0  0  0  0  0  0  0  0
   10.5759   -0.6003    0.1098 H   0  0  0  0  0  0  0  0  0  0  0  0
   12.5057   -2.3641    0.0347 H   0  0  0  0  0  0  0  0  0  0  0  0
   11.4036   -3.1954    2.2942 H   0  0  0  0  0  0  0  0  0  0  0  0
   11.6573   -4.6134    1.2462 H   0  0  0  0  0  0  0  0  0  0  0  0
   11.7223   -4.2116   -1.4407 H   0  0  0  0  0  0  0  0  0  0  0  0
    5.3893    1.8201   -7.3849 H   0  0  0  0  0  0  0  0  0  0  0  0
    3.7248    2.3618   -7.6743 H   0  0  0  0  0  0  0  0  0  0  0  0
    4.7187   -0.5187   -7.9693 H   0  0  0  0  0  0  0  0  0  0  0  0
    4.3872    0.5981   -9.3010 H   0  0  0  0  0  0  0  0  0  0  0  0
    3.0715    0.0296   -8.2666 H   0  0  0  0  0  0  0  0  0  0  0  0
   -4.4885    5.6229   -5.0614 H   0  0  0  0  0  0  0  0  0  0  0  0
   -2.6645    5.0744   -6.7304 H   0  0  0  0  0  0  0  0  0  0  0  0
   -7.6521    3.7994    2.9212 H   0  0  0  0  0  0  0  0  0  0  0  0
   -7.2604    4.3901    1.2981 H   0  0  0  0  0  0  0  0  0  0  0  0
   -9.5234    3.3629    1.3539 H   0  0  0  0  0  0  0  0  0  0  0  0
   -8.8295    1.8324    1.8978 H   0  0  0  0  0  0  0  0  0  0  0  0
   -8.4466    2.4546    0.2898 H   0  0  0  0  0  0  0  0  0  0  0  0
    2.2607    0.9170   -1.2653 H   0  0  0  0  0  0  0  0  0  0  0  0
    0.7476    0.8920   -0.3645 H   0  0  0  0  0  0  0  0  0  0  0  0
    1.7499   -1.3895   -0.4347 H   0  0  0  0  0  0  0  0  0  0  0  0
    0.2997   -1.4264   -1.4466 H   0  0  0  0  0  0  0  0  0  0  0  0
    1.8891   -1.3075   -2.1889 H   0  0  0  0  0  0  0  0  0  0  0  0
   -2.1991   -0.0356    1.0535 H   0  0  0  0  0  0  0  0  0  0  0  0
   -0.7580   -0.1866    0.0531 H   0  0  0  0  0  0  0  0  0  0  0  0
   -3.5916   -0.9827   -0.7709 H   0  0  0  0  0  0  0  0  0  0  0  0
   -2.2758   -2.0880   -0.3669 H   0  0  0  0  0  0  0  0  0  0  0  0
   -2.1797   -1.0869   -1.8241 H   0  0  0  0  0  0  0  0  0  0  0  0
   -7.4545    1.9526    4.1893 H   0  0  0  0  0  0  0  0  0  0  0  0
   -5.4352   -0.1871    9.2681 H   0  0  0  0  0  0  0  0  0  0  0  0
   -6.4181   -0.7187   11.4682 H   0  0  0  0  0  0  0  0  0  0  0  0
   -8.5912   -1.8764   11.5998 H   0  0  0  0  0  0  0  0  0  0  0  0
   -9.7934   -2.4860    9.5355 H   0  0  0  0  0  0  0  0  0  0  0  0
   -8.8076   -1.9580    7.3314 H   0  0  0  0  0  0  0  0  0  0  0  0
  1  2  2  0  0  0  0
  2  3  1  0  0  0  0
  3  4  2  0  0  0  0
  3  5  1  0  0  0  0
  5  6  2  0  0  0  0
  6  7  1  0  0  0  0
  7  8  2  0  0  0  0
  8  9  1  0  0  0  0
  9 10  2  0  0  0  0
 10 11  1  0  0  0  0
 11 12  2  0  0  0  0
 12 13  1  0  0  0  0
 13 14  3  0  0  0  0
 12 15  1  0  0  0  0
 15 16  3  0  0  0  0
  8 17  1  0  0  0  0
 17 18  1  0  0  0  0
 18 19  1  0  0  0  0
 19 20  2  0  0  0  0
 20 21  1  0  0  0  0
 21 22  1  0  0  0  0
 21 23  1  0  0  0  0
  1 24  1  0  0  0  0
 24 25  2  0  0  0  0
 25 26  1  0  0  0  0
 26 27  1  0  0  0  0
 25 28  1  0  0  0  0
 28 29  1  0  0  0  0
 29 30  1  0  0  0  0
 30 31  1  0  0  0  0
 31 32  2  0  0  0  0
 32 33  1  0  0  0  0
 33 34  1  0  0  0  0
 34 35  2  0  0  0  0
 35 36  1  0  0  0  0
 36 37  2  0  0  0  0
 33 38  2  0  0  0  0
 38 39  1  0  0  0  0
 39 40  1  0  0  0  0
 40 41  1  0  0  0  0
 41 42  1  0  0  0  0
 42 43  1  0  0  0  0
 43 44  1  0  0  0  0
 42 45  2  0  0  0  0
 45 46  1  0  0  0  0
 46 47  1  0  0  0  0
 47 48  1  0  0  0  0
 48 49  1  0  0  0  0
 49 50  1  0  0  0  0
 50 51  2  0  0  0  0
 51 52  1  0  0  0  0
 52 53  1  0  0  0  0
 53 54  1  0  0  0  0
 54 55  1  0  0  0  0
 52 56  1  0  0  0  0
 56 57  1  0  0  0  0
 49 58  1  0  0  0  0
 58 59  1  0  0  0  0
 45 60  1  0  0  0  0
 60 61  2  0  0  0  0
 61 62  1  0  0  0  0
 62 63  1  0  0  0  0
 63 64  2  0  0  0  0
 64 65  1  0  0  0  0
 65 66  3  0  0  0  0
 64 67  1  0  0  0  0
 67 68  3  0  0  0  0
 63 69  1  0  0  0  0
 69 70  1  0  0  0  0
 70 71  2  0  0  0  0
 71 72  1  0  0  0  0
 72 73  2  0  0  0  0
 73 74  1  0  0  0  0
 74 75  2  0  0  0  0
 69 76  1  0  0  0  0
 76 77  2  0  0  0  0
 11  2  1  0  0  0  0
 23 17  1  0  0  0  0
 55 24  1  0  0  0  0
 76 61  1  0  0  0  0
 10  5  1  0  0  0  0
 22 18  1  0  0  0  0
 54 28  2  0  0  0  0
 75 70  1  0  0  0  0
 23  7  1  0  0  0  0
 53 30  2  0  0  0  0
 51 31  1  0  0  0  0
 37 32  1  0  0  0  0
 50 38  1  0  0  0  0
 48 39  2  0  0  0  0
 47 41  2  0  0  0  0
  1 78  1  0  0  0  0
  6 79  1  0  0  0  0
  9 80  1  0  0  0  0
 17 81  1  0  0  0  0
 18 82  1  0  0  0  0
 19 83  1  0  0  0  0
 20 84  1  0  0  0  0
 21 85  1  0  0  0  0
 22 86  1  0  0  0  0
 22 87  1  0  0  0  0
 23 88  1  0  0  0  0
 26 89  1  0  0  0  0
 26 90  1  0  0  0  0
 27 91  1  0  0  0  0
 27 92  1  0  0  0  0
 27 93  1  0  0  0  0
 35 94  1  0  0  0  0
 36 95  1  0  0  0  0
 43 96  1  0  0  0  0
 43 97  1  0  0  0  0
 44 98  1  0  0  0  0
 44 99  1  0  0  0  0
 44100  1  0  0  0  0
 56101  1  0  0  0  0
 56102  1  0  0  0  0
 57103  1  0  0  0  0
 57104  1  0  0  0  0
 57105  1  0  0  0  0
 58106  1  0  0  0  0
 58107  1  0  0  0  0
 59108  1  0  0  0  0
 59109  1  0  0  0  0
 59110  1  0  0  0  0
 60111  1  0  0  0  0
 71112  1  0  0  0  0
 72113  1  0  0  0  0
 73114  1  0  0  0  0
 74115  1  0  0  0  0
 75116  1  0  0  0  0
M  END
