
  xtb     02032200033D
 energy: -169.020348189992 gnorm: 0.000654022023 xtb: 6.4.1 (unknown)
 99111  0     0  0            999 V2000
    0.1507   -4.5371   -1.6388 C   0  0  0  0  0  0  0  0  0  0  0  0
    0.2819   -5.0059   -2.9110 C   0  0  0  0  0  0  0  0  0  0  0  0
    0.3189   -4.1324   -4.1109 C   0  0  0  0  0  0  0  0  0  0  0  0
    0.1050   -2.9403   -4.1642 O   0  0  0  0  0  0  0  0  0  0  0  0
    0.8207   -4.9852   -5.2034 C   0  0  0  0  0  0  0  0  0  0  0  0
    1.0727   -4.5920   -6.5157 C   0  0  0  0  0  0  0  0  0  0  0  0
    1.5712   -5.5929   -7.3137 C   0  0  0  0  0  0  0  0  0  0  0  0
    1.8077   -6.8917   -6.8421 C   0  0  0  0  0  0  0  0  0  0  0  0
    1.5630   -7.2937   -5.5507 C   0  0  0  0  0  0  0  0  0  0  0  0
    1.0542   -6.2897   -4.7216 C   0  0  0  0  0  0  0  0  0  0  0  0
    0.6906   -6.3369   -3.3096 C   0  0  0  0  0  0  0  0  0  0  0  0
    0.6518   -7.4538   -2.5161 C   0  0  0  0  0  0  0  0  0  0  0  0
    1.0278   -8.7457   -2.9363 C   0  0  0  0  0  0  0  0  0  0  0  0
    1.3241   -9.8193   -3.2151 N   0  0  0  0  0  0  0  0  0  0  0  0
    0.1931   -7.4600   -1.1819 C   0  0  0  0  0  0  0  0  0  0  0  0
   -0.1891   -7.5378   -0.1018 N   0  0  0  0  0  0  0  0  0  0  0  0
    2.3319   -7.3651   -8.1744 C   0  0  0  0  0  0  0  0  0  0  0  0
    3.8656   -7.5114   -8.3341 C   0  0  0  0  0  0  0  0  0  0  0  0
    4.4932   -6.5449   -7.3606 C   0  0  0  0  0  0  0  0  0  0  0  0
    4.2674   -5.3166   -7.8069 C   0  0  0  0  0  0  0  0  0  0  0  0
    3.4830   -5.4304   -9.0907 C   0  0  0  0  0  0  0  0  0  0  0  0
    4.0645   -6.7393   -9.6482 C   0  0  0  0  0  0  0  0  0  0  0  0
    2.0660   -5.9194   -8.7001 C   0  0  0  0  0  0  0  0  0  0  0  0
   -0.3907   -3.2761   -1.2742 C   0  0  0  0  0  0  0  0  0  0  0  0
   -1.5306   -2.6212   -1.7106 C   0  0  0  0  0  0  0  0  0  0  0  0
   -2.5449   -3.1785   -2.6570 C   0  0  0  0  0  0  0  0  0  0  0  0
   -2.8088   -2.2526   -3.8437 C   0  0  0  0  0  0  0  0  0  0  0  0
   -1.7115   -1.4116   -1.0195 C   0  0  0  0  0  0  0  0  0  0  0  0
   -2.9350   -0.1649   -1.1139 S   0  0  0  0  0  0  0  0  0  0  0  0
   -2.0875    0.7312    0.0942 C   0  0  0  0  0  0  0  0  0  0  0  0
   -2.2014    1.9423    0.7944 C   0  0  0  0  0  0  0  0  0  0  0  0
   -3.2441    2.9031    0.7541 C   0  0  0  0  0  0  0  0  0  0  0  0
   -3.1516    4.0195    1.6199 C   0  0  0  0  0  0  0  0  0  0  0  0
   -4.1194    4.9422    1.6670 N   0  0  0  0  0  0  0  0  0  0  0  0
   -5.1482    4.7599    0.8677 C   0  0  0  0  0  0  0  0  0  0  0  0
   -5.2345    3.6622    0.0031 C   0  0  0  0  0  0  0  0  0  0  0  0
   -4.2968    2.7418   -0.0559 N   0  0  0  0  0  0  0  0  0  0  0  0
   -1.9800    4.1530    2.4083 C   0  0  0  0  0  0  0  0  0  0  0  0
   -1.5961    5.2112    3.2449 C   0  0  0  0  0  0  0  0  0  0  0  0
   -2.2189    6.7226    3.8027 S   0  0  0  0  0  0  0  0  0  0  0  0
   -0.7201    6.9872    4.6683 C   0  0  0  0  0  0  0  0  0  0  0  0
   -0.2698    8.0367    5.4714 C   0  0  0  0  0  0  0  0  0  0  0  0
   -1.0737    9.2705    5.7219 C   0  0  0  0  0  0  0  0  0  0  0  0
   -0.7255   10.3578    4.7018 C   0  0  0  0  0  0  0  0  0  0  0  0
    1.0229    7.7998    5.9363 C   0  0  0  0  0  0  0  0  0  0  0  0
    1.6607    6.2528    5.3767 S   0  0  0  0  0  0  0  0  0  0  0  0
    0.2008    5.9395    4.5174 C   0  0  0  0  0  0  0  0  0  0  0  0
   -0.3080    4.9218    3.7055 C   0  0  0  0  0  0  0  0  0  0  0  0
    0.1047    3.7122    3.2137 N   0  0  0  0  0  0  0  0  0  0  0  0
   -0.9068    3.2161    2.4107 C   0  0  0  0  0  0  0  0  0  0  0  0
   -1.0654    2.0319    1.6487 C   0  0  0  0  0  0  0  0  0  0  0  0
   -0.3073    0.8837    1.4907 N   0  0  0  0  0  0  0  0  0  0  0  0
   -0.9292    0.1007    0.5550 C   0  0  0  0  0  0  0  0  0  0  0  0
   -0.7210   -1.1338   -0.0694 C   0  0  0  0  0  0  0  0  0  0  0  0
    0.4260   -2.4151    0.0294 S   0  0  0  0  0  0  0  0  0  0  0  0
    0.7050    0.3036    2.3447 C   0  0  0  0  0  0  0  0  0  0  0  0
    0.1687    0.0485    3.7512 C   0  0  0  0  0  0  0  0  0  0  0  0
    1.4984    3.3401    3.3097 C   0  0  0  0  0  0  0  0  0  0  0  0
    2.2141    3.5043    1.9712 C   0  0  0  0  0  0  0  0  0  0  0  0
    1.7790    8.6603    6.7546 C   0  0  0  0  0  0  0  0  0  0  0  0
    3.0595    8.4785    7.1977 C   0  0  0  0  0  0  0  0  0  0  0  0
    3.6654    9.4545    8.0171 C   0  0  0  0  0  0  0  0  0  0  0  0
    4.1481   10.2550    8.6822 N   0  0  0  0  0  0  0  0  0  0  0  0
    3.8752    7.3696    6.9016 C   0  0  0  0  0  0  0  0  0  0  0  0
    4.5757    6.4857    6.6843 N   0  0  0  0  0  0  0  0  0  0  0  0
    0.5430   -5.1291   -0.8194 H   0  0  0  0  0  0  0  0  0  0  0  0
    0.8797   -3.5806   -6.8378 H   0  0  0  0  0  0  0  0  0  0  0  0
    1.7560   -8.2934   -5.1986 H   0  0  0  0  0  0  0  0  0  0  0  0
    1.7867   -8.1850   -8.6373 H   0  0  0  0  0  0  0  0  0  0  0  0
    4.2275   -8.5352   -8.2945 H   0  0  0  0  0  0  0  0  0  0  0  0
    4.9728   -6.8424   -6.4465 H   0  0  0  0  0  0  0  0  0  0  0  0
    4.5202   -4.3827   -7.3400 H   0  0  0  0  0  0  0  0  0  0  0  0
    3.4968   -4.5593   -9.7405 H   0  0  0  0  0  0  0  0  0  0  0  0
    5.1127   -6.6484   -9.9286 H   0  0  0  0  0  0  0  0  0  0  0  0
    3.4946   -7.1470  -10.4818 H   0  0  0  0  0  0  0  0  0  0  0  0
    1.3466   -5.7943   -9.5069 H   0  0  0  0  0  0  0  0  0  0  0  0
   -2.2158   -4.1552   -3.0135 H   0  0  0  0  0  0  0  0  0  0  0  0
   -3.4775   -3.3165   -2.1000 H   0  0  0  0  0  0  0  0  0  0  0  0
   -1.8807   -2.0517   -4.3705 H   0  0  0  0  0  0  0  0  0  0  0  0
   -3.2326   -1.3099   -3.5086 H   0  0  0  0  0  0  0  0  0  0  0  0
   -3.5085   -2.7249   -4.5287 H   0  0  0  0  0  0  0  0  0  0  0  0
   -5.9273    5.5082    0.9120 H   0  0  0  0  0  0  0  0  0  0  0  0
   -6.0823    3.5248   -0.6535 H   0  0  0  0  0  0  0  0  0  0  0  0
   -0.9007    9.6434    6.7327 H   0  0  0  0  0  0  0  0  0  0  0  0
   -2.1310    9.0161    5.6265 H   0  0  0  0  0  0  0  0  0  0  0  0
   -1.3275   11.2443    4.8820 H   0  0  0  0  0  0  0  0  0  0  0  0
    0.3253   10.6303    4.7718 H   0  0  0  0  0  0  0  0  0  0  0  0
   -0.9237   10.0032    3.6932 H   0  0  0  0  0  0  0  0  0  0  0  0
    1.5992    0.9264    2.3607 H   0  0  0  0  0  0  0  0  0  0  0  0
    0.9860   -0.6492    1.8893 H   0  0  0  0  0  0  0  0  0  0  0  0
   -0.6568   -0.6585    3.7107 H   0  0  0  0  0  0  0  0  0  0  0  0
    0.9519   -0.3707    4.3767 H   0  0  0  0  0  0  0  0  0  0  0  0
   -0.1945    0.9668    4.2075 H   0  0  0  0  0  0  0  0  0  0  0  0
    1.9522    4.0109    4.0433 H   0  0  0  0  0  0  0  0  0  0  0  0
    1.5973    2.3272    3.6994 H   0  0  0  0  0  0  0  0  0  0  0  0
    3.2538    3.2047    2.0687 H   0  0  0  0  0  0  0  0  0  0  0  0
    1.7434    2.9050    1.1950 H   0  0  0  0  0  0  0  0  0  0  0  0
    2.1835    4.5458    1.6597 H   0  0  0  0  0  0  0  0  0  0  0  0
    1.2860    9.5743    7.0625 H   0  0  0  0  0  0  0  0  0  0  0  0
  1  2  2  0  0  0  0
  2  3  1  0  0  0  0
  3  4  2  0  0  0  0
  3  5  1  0  0  0  0
  5  6  2  0  0  0  0
  6  7  1  0  0  0  0
  7  8  2  0  0  0  0
  8  9  1  0  0  0  0
  9 10  2  0  0  0  0
 10 11  1  0  0  0  0
 11 12  2  0  0  0  0
 12 13  1  0  0  0  0
 13 14  3  0  0  0  0
 12 15  1  0  0  0  0
 15 16  3  0  0  0  0
  8 17  1  0  0  0  0
 17 18  1  0  0  0  0
 18 19  1  0  0  0  0
 19 20  2  0  0  0  0
 20 21  1  0  0  0  0
 21 22  1  0  0  0  0
 21 23  1  0  0  0  0
  1 24  1  0  0  0  0
 24 25  2  0  0  0  0
 25 26  1  0  0  0  0
 26 27  1  0  0  0  0
 25 28  1  0  0  0  0
 28 29  1  0  0  0  0
 29 30  1  0  0  0  0
 30 31  1  0  0  0  0
 31 32  2  0  0  0  0
 32 33  1  0  0  0  0
 33 34  1  0  0  0  0
 34 35  2  0  0  0  0
 35 36  1  0  0  0  0
 36 37  2  0  0  0  0
 33 38  2  0  0  0  0
 38 39  1  0  0  0  0
 39 40  1  0  0  0  0
 40 41  1  0  0  0  0
 41 42  1  0  0  0  0
 42 43  1  0  0  0  0
 43 44  1  0  0  0  0
 42 45  2  0  0  0  0
 45 46  1  0  0  0  0
 46 47  1  0  0  0  0
 47 48  1  0  0  0  0
 48 49  1  0  0  0  0
 49 50  1  0  0  0  0
 50 51  2  0  0  0  0
 51 52  1  0  0  0  0
 52 53  1  0  0  0  0
 53 54  1  0  0  0  0
 54 55  1  0  0  0  0
 52 56  1  0  0  0  0
 56 57  1  0  0  0  0
 49 58  1  0  0  0  0
 58 59  1  0  0  0  0
 45 60  1  0  0  0  0
 60 61  2  0  0  0  0
 61 62  1  0  0  0  0
 62 63  3  0  0  0  0
 61 64  1  0  0  0  0
 64 65  3  0  0  0  0
 11  2  1  0  0  0  0
 23 17  1  0  0  0  0
 55 24  1  0  0  0  0
 10  5  1  0  0  0  0
 22 18  1  0  0  0  0
 54 28  2  0  0  0  0
 23  7  1  0  0  0  0
 53 30  2  0  0  0  0
 51 31  1  0  0  0  0
 37 32  1  0  0  0  0
 50 38  1  0  0  0  0
 48 39  2  0  0  0  0
 47 41  2  0  0  0  0
  1 66  1  0  0  0  0
  6 67  1  0  0  0  0
  9 68  1  0  0  0  0
 17 69  1  0  0  0  0
 18 70  1  0  0  0  0
 19 71  1  0  0  0  0
 20 72  1  0  0  0  0
 21 73  1  0  0  0  0
 22 74  1  0  0  0  0
 22 75  1  0  0  0  0
 23 76  1  0  0  0  0
 26 77  1  0  0  0  0
 26 78  1  0  0  0  0
 27 79  1  0  0  0  0
 27 80  1  0  0  0  0
 27 81  1  0  0  0  0
 35 82  1  0  0  0  0
 36 83  1  0  0  0  0
 43 84  1  0  0  0  0
 43 85  1  0  0  0  0
 44 86  1  0  0  0  0
 44 87  1  0  0  0  0
 44 88  1  0  0  0  0
 56 89  1  0  0  0  0
 56 90  1  0  0  0  0
 57 91  1  0  0  0  0
 57 92  1  0  0  0  0
 57 93  1  0  0  0  0
 58 94  1  0  0  0  0
 58 95  1  0  0  0  0
 59 96  1  0  0  0  0
 59 97  1  0  0  0  0
 59 98  1  0  0  0  0
 60 99  1  0  0  0  0
M  END
