
  xtb     02022217073D
 energy: -229.367950505884 gnorm: 0.000481236384 xtb: 6.4.1 (unknown)
134150  0     0  0            999 V2000
   -1.8329   -2.5093   -5.9850 C   0  0  0  0  0  0  0  0  0  0  0  0
   -1.2874   -3.7702   -5.9637 C   0  0  0  0  0  0  0  0  0  0  0  0
   -0.5492   -4.3737   -4.8528 C   0  0  0  0  0  0  0  0  0  0  0  0
   -0.3147   -3.8836   -3.7592 O   0  0  0  0  0  0  0  0  0  0  0  0
   -0.1388   -5.7138   -5.3029 C   0  0  0  0  0  0  0  0  0  0  0  0
    0.5894   -6.6549   -4.5784 C   0  0  0  0  0  0  0  0  0  0  0  0
    0.8228   -7.8252   -5.2597 C   0  0  0  0  0  0  0  0  0  0  0  0
    0.3631   -8.0436   -6.5647 C   0  0  0  0  0  0  0  0  0  0  0  0
   -0.3603   -7.1247   -7.2880 C   0  0  0  0  0  0  0  0  0  0  0  0
   -0.6077   -5.9246   -6.6147 C   0  0  0  0  0  0  0  0  0  0  0  0
   -1.3310   -4.7286   -7.0492 C   0  0  0  0  0  0  0  0  0  0  0  0
   -1.9297   -4.5726   -8.2740 C   0  0  0  0  0  0  0  0  0  0  0  0
   -2.6266   -3.4323   -8.7253 C   0  0  0  0  0  0  0  0  0  0  0  0
   -3.2052   -2.5559   -9.1924 N   0  0  0  0  0  0  0  0  0  0  0  0
   -1.9333   -5.5498   -9.2912 C   0  0  0  0  0  0  0  0  0  0  0  0
   -1.9788   -6.2898  -10.1684 N   0  0  0  0  0  0  0  0  0  0  0  0
    0.9602   -9.4275   -6.6294 C   0  0  0  0  0  0  0  0  0  0  0  0
    2.2699   -9.5787   -7.4315 C   0  0  0  0  0  0  0  0  0  0  0  0
    2.8544  -10.8784   -6.9272 C   0  0  0  0  0  0  0  0  0  0  0  0
    3.2893  -10.6725   -5.6906 C   0  0  0  0  0  0  0  0  0  0  0  0
    3.0062   -9.2299   -5.3384 C   0  0  0  0  0  0  0  0  0  0  0  0
    3.1899   -8.5809   -6.7162 C   0  0  0  0  0  0  0  0  0  0  0  0
    1.4723   -9.1841   -5.1734 C   0  0  0  0  0  0  0  0  0  0  0  0
   -1.8506   -1.5088   -5.0073 C   0  0  0  0  0  0  0  0  0  0  0  0
   -2.4431   -0.2486   -5.2207 C   0  0  0  0  0  0  0  0  0  0  0  0
   -2.9701    0.2210   -6.5001 C   0  0  0  0  0  0  0  0  0  0  0  0
   -4.2301    0.8134   -6.5508 C   0  0  0  0  0  0  0  0  0  0  0  0
   -4.7338    1.2554   -7.7585 C   0  0  0  0  0  0  0  0  0  0  0  0
   -3.9886    1.1228   -8.9168 C   0  0  0  0  0  0  0  0  0  0  0  0
   -2.7216    0.5537   -8.8830 C   0  0  0  0  0  0  0  0  0  0  0  0
   -1.8896    0.4617  -10.1281 C   0  0  0  0  0  0  0  0  0  0  0  0
   -1.0564    1.7316  -10.3111 C   0  0  0  0  0  0  0  0  0  0  0  0
   -2.2203    0.1122   -7.6688 C   0  0  0  0  0  0  0  0  0  0  0  0
   -2.4516    0.5172   -4.0574 C   0  0  0  0  0  0  0  0  0  0  0  0
   -3.0243    2.1373   -3.7062 S   0  0  0  0  0  0  0  0  0  0  0  0
   -2.4425    1.9562   -2.0865 C   0  0  0  0  0  0  0  0  0  0  0  0
   -2.3927    2.6800   -0.8881 C   0  0  0  0  0  0  0  0  0  0  0  0
   -2.9312    3.9412   -0.5511 C   0  0  0  0  0  0  0  0  0  0  0  0
   -2.8032    4.4096    0.7967 C   0  0  0  0  0  0  0  0  0  0  0  0
   -3.3910    5.5806    0.9850 N   0  0  0  0  0  0  0  0  0  0  0  0
   -4.0448    6.0556   -0.4183 S   0  0  0  0  0  0  0  0  0  0  0  0
   -3.6052    4.7838   -1.3178 N   0  0  0  0  0  0  0  0  0  0  0  0
   -2.0613    3.6381    1.7177 C   0  0  0  0  0  0  0  0  0  0  0  0
   -1.6794    3.9145    3.0378 C   0  0  0  0  0  0  0  0  0  0  0  0
   -1.8775    5.1517    4.2285 S   0  0  0  0  0  0  0  0  0  0  0  0
   -0.8248    4.2573    5.3004 C   0  0  0  0  0  0  0  0  0  0  0  0
   -0.3151    4.5262    6.5813 C   0  0  0  0  0  0  0  0  0  0  0  0
   -0.5779    5.7475    7.3303 C   0  0  0  0  0  0  0  0  0  0  0  0
    0.4423    6.3847    8.0361 C   0  0  0  0  0  0  0  0  0  0  0  0
    0.1755    7.5546    8.7212 C   0  0  0  0  0  0  0  0  0  0  0  0
   -1.0961    8.1013    8.7052 C   0  0  0  0  0  0  0  0  0  0  0  0
   -2.1225    7.4847    7.9994 C   0  0  0  0  0  0  0  0  0  0  0  0
   -3.4890    8.1013    7.9216 C   0  0  0  0  0  0  0  0  0  0  0  0
   -3.6197    8.9312    6.6427 C   0  0  0  0  0  0  0  0  0  0  0  0
   -1.8518    6.3107    7.3152 C   0  0  0  0  0  0  0  0  0  0  0  0
    0.5388    3.5143    7.0128 C   0  0  0  0  0  0  0  0  0  0  0  0
    0.6942    2.2258    5.8222 S   0  0  0  0  0  0  0  0  0  0  0  0
   -0.3643    3.0590    4.7443 C   0  0  0  0  0  0  0  0  0  0  0  0
   -0.8530    2.8642    3.4490 C   0  0  0  0  0  0  0  0  0  0  0  0
   -0.7303    1.9407    2.4463 N   0  0  0  0  0  0  0  0  0  0  0  0
   -1.4668    2.3923    1.3618 C   0  0  0  0  0  0  0  0  0  0  0  0
   -1.7156    1.8627    0.0666 C   0  0  0  0  0  0  0  0  0  0  0  0
   -1.4006    0.6609   -0.5433 N   0  0  0  0  0  0  0  0  0  0  0  0
   -1.8406    0.7178   -1.8382 C   0  0  0  0  0  0  0  0  0  0  0  0
   -1.8453   -0.1161   -2.9607 C   0  0  0  0  0  0  0  0  0  0  0  0
   -1.2615   -1.6909   -3.3558 S   0  0  0  0  0  0  0  0  0  0  0  0
   -1.0504   -0.6212    0.0260 C   0  0  0  0  0  0  0  0  0  0  0  0
   -2.1136   -1.1028    1.0103 C   0  0  0  0  0  0  0  0  0  0  0  0
    0.3398    0.9702    2.5147 C   0  0  0  0  0  0  0  0  0  0  0  0
    1.4887    1.3380    1.5794 C   0  0  0  0  0  0  0  0  0  0  0  0
    1.1210    3.4002    8.2941 C   0  0  0  0  0  0  0  0  0  0  0  0
    2.1510    2.6026    8.6891 C   0  0  0  0  0  0  0  0  0  0  0  0
    2.3266    2.2566   10.1203 C   0  0  0  0  0  0  0  0  0  0  0  0
    1.8081    2.7961   11.0717 O   0  0  0  0  0  0  0  0  0  0  0  0
    3.2176    1.0741   10.1202 C   0  0  0  0  0  0  0  0  0  0  0  0
    3.6036    0.2830   11.1833 C   0  0  0  0  0  0  0  0  0  0  0  0
    4.4142   -0.8106   10.9142 C   0  0  0  0  0  0  0  0  0  0  0  0
    4.7970   -1.1193    9.6197 C   0  0  0  0  0  0  0  0  0  0  0  0
    4.4072   -0.3280    8.5345 C   0  0  0  0  0  0  0  0  0  0  0  0
    4.6748   -0.6023    7.2432 O   0  0  0  0  0  0  0  0  0  0  0  0
    5.5421   -1.6645    6.9194 C   0  0  0  0  0  0  0  0  0  0  0  0
    3.6354    0.8075    8.8049 C   0  0  0  0  0  0  0  0  0  0  0  0
    3.1469    1.8671    7.9321 C   0  0  0  0  0  0  0  0  0  0  0  0
    3.7188    2.3133    6.7693 C   0  0  0  0  0  0  0  0  0  0  0  0
    3.3498    3.5466    6.1883 C   0  0  0  0  0  0  0  0  0  0  0  0
    3.1075    4.5662    5.7189 N   0  0  0  0  0  0  0  0  0  0  0  0
    4.8017    1.7347    6.0776 C   0  0  0  0  0  0  0  0  0  0  0  0
    5.6844    1.3741    5.4375 N   0  0  0  0  0  0  0  0  0  0  0  0
   -2.3443   -2.2200   -6.8949 H   0  0  0  0  0  0  0  0  0  0  0  0
    0.9201   -6.4453   -3.5731 H   0  0  0  0  0  0  0  0  0  0  0  0
   -0.7105   -7.3142   -8.2885 H   0  0  0  0  0  0  0  0  0  0  0  0
    0.2572  -10.2394   -6.8058 H   0  0  0  0  0  0  0  0  0  0  0  0
    2.1591   -9.4765   -8.5075 H   0  0  0  0  0  0  0  0  0  0  0  0
    2.8411  -11.7977   -7.4826 H   0  0  0  0  0  0  0  0  0  0  0  0
    3.7116  -11.3853   -5.0068 H   0  0  0  0  0  0  0  0  0  0  0  0
    3.5670   -8.8101   -4.5076 H   0  0  0  0  0  0  0  0  0  0  0  0
    4.2185   -8.6450   -7.0673 H   0  0  0  0  0  0  0  0  0  0  0  0
    2.8508   -7.5481   -6.7691 H   0  0  0  0  0  0  0  0  0  0  0  0
    1.1100   -9.8342   -4.3790 H   0  0  0  0  0  0  0  0  0  0  0  0
   -4.8167    0.9006   -5.6487 H   0  0  0  0  0  0  0  0  0  0  0  0
   -5.7162    1.7021   -7.7965 H   0  0  0  0  0  0  0  0  0  0  0  0
   -4.3926    1.4639   -9.8586 H   0  0  0  0  0  0  0  0  0  0  0  0
   -1.2272   -0.4033  -10.0652 H   0  0  0  0  0  0  0  0  0  0  0  0
   -2.5406    0.3265  -10.9928 H   0  0  0  0  0  0  0  0  0  0  0  0
   -1.7042    2.6020  -10.3885 H   0  0  0  0  0  0  0  0  0  0  0  0
   -0.3920    1.8758   -9.4617 H   0  0  0  0  0  0  0  0  0  0  0  0
   -0.4550    1.6648  -11.2147 H   0  0  0  0  0  0  0  0  0  0  0  0
   -1.2229   -0.3033   -7.6247 H   0  0  0  0  0  0  0  0  0  0  0  0
    1.4442    5.9838    8.0076 H   0  0  0  0  0  0  0  0  0  0  0  0
    0.9675    8.0482    9.2644 H   0  0  0  0  0  0  0  0  0  0  0  0
   -1.2937    9.0191    9.2401 H   0  0  0  0  0  0  0  0  0  0  0  0
   -3.6587    8.7417    8.7891 H   0  0  0  0  0  0  0  0  0  0  0  0
   -4.2493    7.3176    7.9199 H   0  0  0  0  0  0  0  0  0  0  0  0
   -2.8774    9.7262    6.6311 H   0  0  0  0  0  0  0  0  0  0  0  0
   -4.6089    9.3784    6.5793 H   0  0  0  0  0  0  0  0  0  0  0  0
   -3.4633    8.3048    5.7675 H   0  0  0  0  0  0  0  0  0  0  0  0
   -2.6463    5.8142    6.7773 H   0  0  0  0  0  0  0  0  0  0  0  0
   -0.9890   -1.3243   -0.8080 H   0  0  0  0  0  0  0  0  0  0  0  0
   -0.0620   -0.5828    0.4834 H   0  0  0  0  0  0  0  0  0  0  0  0
   -3.0633   -1.2294    0.4959 H   0  0  0  0  0  0  0  0  0  0  0  0
   -1.8203   -2.0598    1.4331 H   0  0  0  0  0  0  0  0  0  0  0  0
   -2.2590   -0.3887    1.8179 H   0  0  0  0  0  0  0  0  0  0  0  0
   -0.0376   -0.0330    2.3188 H   0  0  0  0  0  0  0  0  0  0  0  0
    0.7013    0.9797    3.5459 H   0  0  0  0  0  0  0  0  0  0  0  0
    1.9067    2.2998    1.8675 H   0  0  0  0  0  0  0  0  0  0  0  0
    1.1506    1.4091    0.5481 H   0  0  0  0  0  0  0  0  0  0  0  0
    2.2734    0.5893    1.6436 H   0  0  0  0  0  0  0  0  0  0  0  0
    0.6223    3.9508    9.0865 H   0  0  0  0  0  0  0  0  0  0  0  0
    3.2810    0.5196   12.1844 H   0  0  0  0  0  0  0  0  0  0  0  0
    4.7452   -1.4457   11.7220 H   0  0  0  0  0  0  0  0  0  0  0  0
    5.4039   -1.9950    9.4515 H   0  0  0  0  0  0  0  0  0  0  0  0
    5.6816   -1.5990    5.8421 H   0  0  0  0  0  0  0  0  0  0  0  0
    5.1017   -2.6326    7.1779 H   0  0  0  0  0  0  0  0  0  0  0  0
    6.5107   -1.5534    7.4141 H   0  0  0  0  0  0  0  0  0  0  0  0
  1  2  2  0  0  0  0
  2  3  1  0  0  0  0
  3  4  2  0  0  0  0
  3  5  1  0  0  0  0
  5  6  2  0  0  0  0
  6  7  1  0  0  0  0
  7  8  2  0  0  0  0
  8  9  1  0  0  0  0
  9 10  2  0  0  0  0
 10 11  1  0  0  0  0
 11 12  2  0  0  0  0
 12 13  1  0  0  0  0
 13 14  3  0  0  0  0
 12 15  1  0  0  0  0
 15 16  3  0  0  0  0
  8 17  1  0  0  0  0
 17 18  1  0  0  0  0
 18 19  1  0  0  0  0
 19 20  2  0  0  0  0
 20 21  1  0  0  0  0
 21 22  1  0  0  0  0
 21 23  1  0  0  0  0
  1 24  1  0  0  0  0
 24 25  2  0  0  0  0
 25 26  1  0  0  0  0
 26 27  2  0  0  0  0
 27 28  1  0  0  0  0
 28 29  2  0  0  0  0
 29 30  1  0  0  0  0
 30 31  1  0  0  0  0
 31 32  1  0  0  0  0
 30 33  2  0  0  0  0
 25 34  1  0  0  0  0
 34 35  1  0  0  0  0
 35 36  1  0  0  0  0
 36 37  1  0  0  0  0
 37 38  1  0  0  0  0
 38 39  1  0  0  0  0
 39 40  2  0  0  0  0
 40 41  1  0  0  0  0
 41 42  1  0  0  0  0
 39 43  1  0  0  0  0
 43 44  1  0  0  0  0
 44 45  1  0  0  0  0
 45 46  1  0  0  0  0
 46 47  1  0  0  0  0
 47 48  1  0  0  0  0
 48 49  2  0  0  0  0
 49 50  1  0  0  0  0
 50 51  2  0  0  0  0
 51 52  1  0  0  0  0
 52 53  1  0  0  0  0
 53 54  1  0  0  0  0
 52 55  2  0  0  0  0
 47 56  2  0  0  0  0
 56 57  1  0  0  0  0
 57 58  1  0  0  0  0
 58 59  1  0  0  0  0
 59 60  1  0  0  0  0
 60 61  1  0  0  0  0
 61 62  1  0  0  0  0
 62 63  1  0  0  0  0
 63 64  1  0  0  0  0
 64 65  1  0  0  0  0
 65 66  1  0  0  0  0
 63 67  1  0  0  0  0
 67 68  1  0  0  0  0
 60 69  1  0  0  0  0
 69 70  1  0  0  0  0
 56 71  1  0  0  0  0
 71 72  2  0  0  0  0
 72 73  1  0  0  0  0
 73 74  2  0  0  0  0
 73 75  1  0  0  0  0
 75 76  2  0  0  0  0
 76 77  1  0  0  0  0
 77 78  2  0  0  0  0
 78 79  1  0  0  0  0
 79 80  1  0  0  0  0
 80 81  1  0  0  0  0
 79 82  2  0  0  0  0
 82 83  1  0  0  0  0
 83 84  2  0  0  0  0
 84 85  1  0  0  0  0
 85 86  3  0  0  0  0
 84 87  1  0  0  0  0
 87 88  3  0  0  0  0
 11  2  1  0  0  0  0
 23 17  1  0  0  0  0
 66 24  1  0  0  0  0
 83 72  1  0  0  0  0
 10  5  1  0  0  0  0
 22 18  1  0  0  0  0
 33 26  1  0  0  0  0
 65 34  2  0  0  0  0
 82 75  1  0  0  0  0
 23  7  1  0  0  0  0
 64 36  2  0  0  0  0
 62 37  2  0  0  0  0
 42 38  2  0  0  0  0
 61 43  2  0  0  0  0
 59 44  2  0  0  0  0
 58 46  2  0  0  0  0
 55 48  1  0  0  0  0
  1 89  1  0  0  0  0
  6 90  1  0  0  0  0
  9 91  1  0  0  0  0
 17 92  1  0  0  0  0
 18 93  1  0  0  0  0
 19 94  1  0  0  0  0
 20 95  1  0  0  0  0
 21 96  1  0  0  0  0
 22 97  1  0  0  0  0
 22 98  1  0  0  0  0
 23 99  1  0  0  0  0
 27100  1  0  0  0  0
 28101  1  0  0  0  0
 29102  1  0  0  0  0
 31103  1  0  0  0  0
 31104  1  0  0  0  0
 32105  1  0  0  0  0
 32106  1  0  0  0  0
 32107  1  0  0  0  0
 33108  1  0  0  0  0
 49109  1  0  0  0  0
 50110  1  0  0  0  0
 51111  1  0  0  0  0
 53112  1  0  0  0  0
 53113  1  0  0  0  0
 54114  1  0  0  0  0
 54115  1  0  0  0  0
 54116  1  0  0  0  0
 55117  1  0  0  0  0
 67118  1  0  0  0  0
 67119  1  0  0  0  0
 68120  1  0  0  0  0
 68121  1  0  0  0  0
 68122  1  0  0  0  0
 69123  1  0  0  0  0
 69124  1  0  0  0  0
 70125  1  0  0  0  0
 70126  1  0  0  0  0
 70127  1  0  0  0  0
 71128  1  0  0  0  0
 76129  1  0  0  0  0
 77130  1  0  0  0  0
 78131  1  0  0  0  0
 81132  1  0  0  0  0
 81133  1  0  0  0  0
 81134  1  0  0  0  0
M  END
