113

C          1.43690       -6.84680       -0.97310
C          1.17670       -7.25980        0.29590
C          0.59310       -8.60690        0.53360
O          0.49910       -9.50580       -0.27210
C          0.11570       -8.58460        1.92970
C         -0.59320       -9.58320        2.59520
C         -0.90450       -9.27630        3.89790
C         -0.55290       -8.05850        4.49670
C          0.14560       -7.06410        3.85460
C          0.48680       -7.36400        2.53300
C          1.28160       -6.59760        1.57750
C          2.18580       -5.61900        1.90230
C          2.30670       -5.04000        3.18000
N          2.43320       -4.51030        4.19110
C          3.17060       -5.15140        1.00740
N          4.02400       -4.78970        0.32960
C         -1.17890       -8.43450        5.81620
C         -0.20790       -8.86530        6.93610
C         -1.08760       -9.61790        7.90800
C         -1.41650      -10.77270        7.34330
C         -0.76460      -10.82000        5.98010
C          0.52380      -10.04200        6.27750
C         -1.56640       -9.79400        5.15080
C          1.62280       -5.53280       -1.46410
C          2.27880       -5.17240       -2.63100
C          2.94820       -6.11550       -3.57530
C          2.01330       -6.45410       -4.73940
C          2.24910       -3.78720       -2.82740
S          2.95020       -2.76350       -4.05660
C          2.29820       -1.38860       -3.24350
C          2.32890        0.01000       -3.34500
C          3.06870        0.83090       -4.23510
C          3.05800        2.22980       -4.01110
N          3.79900        3.05570       -4.75820
C          4.51660        2.50560       -5.71350
C          4.50610        1.12600       -5.95240
N          3.79570        0.29470       -5.22170
C          2.20000        2.73480       -2.99980
C          1.89830        4.06610       -2.67430
S          2.34030        5.65980       -3.16560
C          1.12350        6.30220       -2.08540
C          0.67470        7.60040       -1.83610
C          1.28020        8.81120       -2.46450
C          2.45490        9.31460       -1.62090
C         -0.39750        7.60610       -0.94830
S         -0.78470        5.98400       -0.36660
C          0.43570        5.30640       -1.37490
C          0.88650        4.03000       -1.70760
N          0.57590        2.73090       -1.39300
C          1.37770        1.91570       -2.17470
C          1.54820        0.51410       -2.26600
N          1.10870       -0.55140       -1.50570
C          1.56040       -1.70200       -2.09560
C          1.54420       -3.07740       -1.84670
S          0.91980       -4.13990       -0.64000
C          0.56790       -0.59190       -0.16650
C         -0.89050       -1.04960       -0.15470
C         -0.72610        2.47550       -0.81340
C         -1.82840        2.60100       -1.86430
C         -1.09790        8.73420       -0.48030
C         -2.33640        8.79390        0.09410
C         -2.70340        9.95980        0.93320
O         -2.10590       11.00720        1.03050
C         -3.92230        9.53770        1.66230
C         -4.61980       10.20720        2.64610
C         -5.73470        9.58970        3.20080
Cl        -6.62960       10.39260        4.42750
C         -6.13010        8.32060        2.76510
Cl        -7.50250        7.56540        3.46940
C         -5.43160        7.65250        1.76510
C         -4.32190        8.26640        1.21120
C         -3.43010        7.85090        0.13040
C         -3.73840        6.92220       -0.83130
C         -4.83640        6.04380       -0.76060
N         -5.68740        5.27300       -0.74100
C         -3.02880        6.79090       -2.04330
N         -2.52060        6.68680       -3.06780
H          1.42720       -7.63400       -1.72090
H         -0.85050      -10.50520        2.09790
H          0.40480       -6.12700        4.31940
H         -1.97450       -7.78140        6.16970
H          0.39980       -8.06260        7.34460
H         -1.41390       -9.22270        8.85200
H         -2.07260      -11.53470        7.72120
H         -0.66420      -11.79910        5.51960
H          1.09410       -9.77050        5.39110
H          1.16960      -10.56850        6.97810
H         -2.62060      -10.04970        5.06170
H          3.24460       -7.02650       -3.05620
H          3.84640       -5.63320       -3.96540
H          1.73550       -5.55000       -5.27600
H          1.10720       -6.93430       -4.37650
H          2.51020       -7.12900       -5.43100
H          5.11590        3.17910       -6.31030
H          5.08820        0.68510       -6.74960
H          1.64240        8.54060       -3.45800
H          0.53380        9.59800       -2.57160
H          3.21370        8.54100       -1.53050
H          2.12140        9.59090       -0.62320
H          2.90250       10.18610       -2.09070
H          0.69860        0.38600        0.29910
H          1.16420       -1.30950        0.40860
H         -1.29190       -0.97760        0.85230
H         -1.50330       -0.45080       -0.82450
H         -0.95580       -2.08600       -0.47540
H         -0.87860        3.22080       -0.02710
H         -0.76100        1.49050       -0.36350
H         -1.82730        3.59370       -2.30870
H         -1.68280        1.86920       -2.65630
H         -2.79810        2.43320       -1.40370
H         -0.56090        9.67700       -0.50660
H         -4.30790       11.18630        2.97360
H         -5.76080        6.67510        1.45140
