151

C         -3.20230        1.99400       -6.59520
C         -4.39340        1.76470       -7.22560
C         -5.55630        0.97880       -6.74950
O         -5.61420        0.18000       -5.83670
C         -6.68490        1.37240       -7.61270
C         -8.01120        0.96780       -7.47890
C         -8.85860        1.51430       -8.41170
C         -8.41960        2.39570       -9.40940
C         -7.11270        2.79440       -9.55850
C         -6.23400        2.25220       -8.61580
C         -4.79670        2.44110       -8.44900
C         -3.97020        3.07350       -9.34040
C         -2.56420        3.15140       -9.24160
N         -1.41900        3.23980       -9.25510
C         -4.40860        3.69700      -10.52770
N         -4.69220        4.22900      -11.50490
C         -9.80580        2.56750       -9.97820
C        -10.56580        3.87440       -9.64120
C        -10.01550        4.36310       -8.32430
C        -10.42910        3.53020       -7.37870
C        -11.26700        2.46340       -8.03910
C        -11.90480        3.28310       -9.17210
C        -10.29440        1.58630       -8.86640
C         -2.65740        1.44530       -5.41690
C         -3.02950        0.36850       -4.62960
C         -2.18110        0.20230       -3.54400
S         -2.15660       -0.91860       -2.21220
C         -0.77720       -0.09410       -1.57150
C          0.01530       -0.21470       -0.38810
C         -0.07340       -1.09800        0.68400
C          0.79820       -0.90510        1.73010
C          0.91520       -1.70900        3.01300
C         -0.31810       -1.67120        3.89770
C         -0.41380       -2.56730        4.95590
C         -1.50300       -2.52070        5.80530
C         -2.50030       -1.58180        5.60870
C         -2.41450       -0.67420        4.56210
C         -3.46450        0.38250        4.37150
C         -3.08640        1.65230        5.13660
C         -1.31270       -0.72310        3.71770
C          1.29590       -3.13270        2.64390
C          2.62410       -3.52700        2.57050
C          2.94140       -4.82230        2.20160
C          1.94130       -5.72740        1.89780
C          0.60770       -5.34410        1.95160
C         -0.49290       -6.32650        1.67290
C         -1.00090       -6.93600        2.98100
C          0.29950       -4.04360        2.32340
C          2.01070       -0.95680        3.71740
C          2.45890        0.09910        2.93970
C          1.74520        0.14640        1.70190
C          1.85170        1.01310        0.61700
C          0.98270        0.81760       -0.43050
C          0.86000        1.62340       -1.71180
C          0.66710        3.08700       -1.36560
C         -0.60050        3.61910       -1.17690
C         -0.74670        4.95190       -0.83590
C          0.36500        5.75860       -0.67500
C          1.64080        5.23710       -0.84260
C          2.85890        6.10610       -0.71880
C          3.31450        6.57860       -2.10090
C          1.77710        3.89930       -1.18400
C          2.02410        1.42780       -2.67090
C          2.11020        2.24480       -3.79220
C          3.13340        2.06380       -4.70310
C          4.07490        1.06890       -4.50500
C          3.99830        0.24070       -3.39410
C          4.98450       -0.87420       -3.19360
C          4.46020       -2.16820       -3.81910
C          2.96210        0.42470       -2.48720
C         -0.34580        0.97610       -2.33780
C         -1.13530        1.14590       -3.47260
S         -1.20280        2.23970       -4.79460
S          3.69070        1.05800        3.68540
C          3.60460        0.03700        5.09500
C          4.25960        0.04490        6.31580
C          3.82870       -0.98350        7.14250
S          2.59150       -1.97990        6.35470
C          2.65450       -0.99840        4.95000
C          4.17200       -1.37200        8.44840
C          5.00630       -0.81520        9.38360
C          5.77360        0.44780        9.30270
O          5.91420        1.19830        8.35830
C          6.36130        0.64390       10.64190
C          7.13060        1.69820       11.09680
C          7.56940        1.67970       12.41060
C          7.23060        0.61300       13.23560
Cl         7.77910        0.60930       14.86870
C          6.45980       -0.45560       12.78800
C          6.02330       -0.43520       11.47380
C          5.21270       -1.38170       10.70650
C          4.77790       -2.59320       11.17690
C          5.03100       -3.07430       12.48010
N          5.19240       -3.53330       13.51970
C          4.04060       -3.56100       10.46070
N          3.45440       -4.41540        9.96440
H         -2.56910        2.75650       -7.03510
H         -8.30600        0.28720       -6.69550
H         -6.79110        3.47560      -10.32850
H         -9.93560        2.26800      -11.01620
H        -10.59420        4.60090      -10.44890
H         -9.35540        5.20510       -8.22660
H        -10.18310        3.53710       -6.33290
H        -11.93450        1.90570       -7.38730
H        -12.59480        4.04180       -8.80590
H        -12.39720        2.67100       -9.92650
H        -10.74600        0.64650       -9.17790
H         -3.88480       -0.24480       -4.84270
H         -0.81050       -1.88570        0.69110
H          0.36030       -3.30530        5.10730
H         -1.57260       -3.22080        6.62440
H         -3.35220       -1.55230        6.27260
H         -4.42740        0.01730        4.73380
H         -3.56460        0.61860        3.31010
H         -3.84710        2.41790        5.00360
H         -2.98980        1.43880        6.19880
H         -2.13560        2.04100        4.77810
H         -1.23830       -0.01170        2.90730
H          3.41360       -2.82750        2.80310
H          3.97690       -5.12550        2.15370
H          2.19650       -6.73840        1.61490
H         -1.31930       -5.82340        1.16620
H         -0.12550       -7.12170        1.02160
H         -0.19310       -7.45010        3.49680
H         -1.38470       -6.15750        3.63690
H         -1.79740       -7.64970        2.78430
H         -0.73690       -3.74200        2.37890
H          2.58300        1.80650        0.61170
H         -1.47480        2.99630       -1.29740
H         -1.73610        5.36270       -0.69740
H          0.24240        6.80000       -0.41470
H          2.63600        6.97330       -0.09460
H          3.66810        5.54410       -0.24750
H          2.52560        7.15170       -2.58310
H          4.19810        7.20680       -2.01630
H          3.55260        5.72580       -2.73290
H          2.76710        3.48870       -1.32540
H          1.38040        3.02650       -3.94450
H          3.19530        2.70220       -5.57170
H          4.87530        0.93410       -5.21800
H          5.93860       -0.61210       -3.65470
H          5.15160       -1.03330       -2.12620
H          3.51560       -2.45410       -3.36120
H          5.17380       -2.97620       -3.67660
H          4.29640       -2.03290       -4.88580
H          2.89660       -0.22460       -1.62550
H          5.00800        0.75620        6.61230
H          3.65030       -2.26890        8.76150
H          7.37660        2.51340       10.43420
H          8.17020        2.48530       12.80190
H          6.21990       -1.25960       13.46350
