127

C         -1.48450        5.68720       -2.37530
C         -0.77340        6.78120       -1.96720
C          0.54240        6.72320       -1.28970
O          1.25710        5.75600       -1.12570
C          0.75200        8.06610       -0.71790
C          1.82290        8.47330        0.07430
C          1.73110        9.77200        0.51360
C          0.65010       10.60520        0.19590
C         -0.41320       10.21640       -0.58420
C         -0.33610        8.89880       -1.04620
C         -1.26660        8.13700       -1.87300
C         -2.35910        8.63570       -2.53510
C         -3.15350        7.88010       -3.42210
N         -3.81920        7.32620       -4.17680
C         -2.79900        9.97190       -2.45500
N         -3.20880       11.04430       -2.42700
C          1.20760       11.76310        0.98650
C          1.87400       12.89620        0.17820
C          2.72520       13.61560        1.19950
C          3.74950       12.82700        1.49880
C          3.60770       11.56100        0.68500
C          2.96490       12.13350       -0.58470
C          2.41360       10.83420        1.33880
C         -0.94680        4.39780       -2.58760
C          0.29750        4.02380       -3.08640
C          1.24040        4.95900       -3.69080
C          0.79060        5.96920       -4.53900
C          1.68890        6.87890       -5.06020
C          3.03220        6.80230       -4.72990
C          3.49770        5.79310       -3.89780
C          4.93540        5.74190       -3.46970
C          5.09420        6.45610       -2.12550
C          2.59610        4.86620       -3.39620
C          0.48470        2.63660       -2.99520
S          1.83950        1.59730       -3.36950
C          0.94920        0.25110       -2.74740
C          1.16300       -1.09340       -2.40800
C          2.33520       -1.88380       -2.41570
C          2.33470       -3.13590       -1.71070
N          3.52250       -3.71880       -1.71780
S          4.55040       -2.78340       -2.54780
N          3.52150       -1.59120       -2.92330
C          1.12780       -3.60280       -1.14300
C          0.81430       -4.75360       -0.40240
S          1.61580       -6.09980        0.33180
C          0.07510       -6.62540        0.98430
C         -0.29610       -7.68720        1.80690
C          0.63220       -8.68970        2.32220
C          1.85210       -8.28850        2.86280
C          2.71980       -9.23180        3.37770
C          2.38670      -10.57440        3.35420
C          1.18420      -10.99640        2.80020
C          0.84740      -12.45680        2.73050
C          1.46610      -13.09310        1.48460
C          0.31980      -10.04710        2.27920
C         -1.67550       -7.65810        2.09300
S         -2.50130       -6.34220        1.26190
C         -0.99970       -5.80290        0.60980
C         -0.56770       -4.73340       -0.17720
N         -1.12220       -3.61500       -0.74750
C         -0.08950       -2.88130       -1.30110
C         -0.04180       -1.56090       -1.81170
N         -0.94630       -0.51840       -1.76760
C         -0.34390        0.57940       -2.32100
C         -0.61120        1.94460       -2.46220
S         -1.92070        3.01050       -2.11100
C         -2.15960       -0.36610       -0.99570
C         -3.39140       -0.22110       -1.88870
C         -2.51470       -3.63320       -1.14460
C         -2.80550       -4.79760       -2.09100
C         -2.26620       -8.49350        3.04810
C         -3.57000       -8.59660        3.46100
C         -4.72870       -7.85990        2.92390
O         -4.72980       -7.02690        2.03460
C         -5.88790       -8.33950        3.68810
C         -7.27310       -8.11370        3.74440
C         -7.85310       -8.88520        4.70780
S         -6.73970       -9.89360        5.56060
C         -5.45300       -9.27800        4.61150
C         -4.03080       -9.48080        4.51860
C         -3.31750      -10.34870        5.30830
C         -1.93280      -10.59070        5.24930
N         -0.81370      -10.85200        5.25710
C         -3.96990      -11.11100        6.29960
N         -4.49490      -11.73540        7.10700
H         -2.56190        5.77020       -2.46760
H          2.63080        7.79630        0.30400
H         -1.24670       10.86130       -0.80870
H          0.57930       12.13020        1.79580
H          1.18720       13.50490       -0.40340
H          2.47270       14.56820        1.62690
H          4.52340       12.98910        2.22610
H          4.50080       10.95330        0.56540
H          3.63640       12.80240       -1.12050
H          2.58210       11.37730       -1.26770
H          2.58910       10.58210        2.38310
H         -0.25720        6.02930       -4.79670
H          1.33950        7.65730       -5.72290
H          3.72480        7.53160       -5.12530
H          5.56890        6.22350       -4.21700
H          5.25350        4.70300       -3.36540
H          4.44420        5.99880       -1.38320
H          6.12320        6.39550       -1.77850
H          4.81890        7.50480       -2.22070
H          2.94180        4.09050       -2.73060
H          2.10060       -7.23880        2.90280
H          3.65850       -8.91560        3.80780
H          3.06440      -11.30460        3.77110
H         -0.23610      -12.58490        2.70510
H          1.22600      -12.95940        3.62170
H          2.54790      -12.98100        1.49890
H          1.22730      -14.15310        1.44110
H          1.08550      -12.61400        0.58500
H         -0.60330      -10.36590        1.81480
H         -2.25300       -1.20560       -0.30720
H         -2.05760        0.54560       -0.39610
H         -3.47100       -1.03850       -2.60200
H         -4.28800       -0.20230       -1.27600
H         -3.33900        0.70800       -2.44970
H         -2.74830       -2.70780       -1.66000
H         -3.13450       -3.72610       -0.24720
H         -2.15950       -4.74450       -2.96510
H         -3.84080       -4.74710       -2.41650
H         -2.64920       -5.75160       -1.59650
H         -1.55450       -9.13950        3.54890
H         -7.80610       -7.42620        3.11420
H         -8.89040       -8.92540        4.97740
