
  xtb     02022207393D
 energy: -195.217934988575 gnorm: 0.000756741158 xtb: 6.4.1 (unknown)
117130  0     0  0            999 V2000
   -3.5986   -0.5298    5.7845 C   0  0  0  0  0  0  0  0  0  0  0  0
   -4.4290   -1.5648    5.4291 C   0  0  0  0  0  0  0  0  0  0  0  0
   -4.3927   -2.3136    4.1713 C   0  0  0  0  0  0  0  0  0  0  0  0
   -3.6775   -2.1130    3.2023 O   0  0  0  0  0  0  0  0  0  0  0  0
   -5.3950   -3.3837    4.2931 C   0  0  0  0  0  0  0  0  0  0  0  0
   -5.6818   -4.3713    3.3536 C   0  0  0  0  0  0  0  0  0  0  0  0
   -6.6607   -5.2500    3.7497 C   0  0  0  0  0  0  0  0  0  0  0  0
   -7.3071   -5.1526    4.9888 C   0  0  0  0  0  0  0  0  0  0  0  0
   -7.0304   -4.1843    5.9254 C   0  0  0  0  0  0  0  0  0  0  0  0
   -6.0363   -3.2783    5.5432 C   0  0  0  0  0  0  0  0  0  0  0  0
   -5.4687   -2.1369    6.2619 C   0  0  0  0  0  0  0  0  0  0  0  0
   -5.8816   -1.6963    7.4942 C   0  0  0  0  0  0  0  0  0  0  0  0
   -5.3626   -0.5854    8.1906 C   0  0  0  0  0  0  0  0  0  0  0  0
   -5.0014    0.3026    8.8250 N   0  0  0  0  0  0  0  0  0  0  0  0
   -6.9147   -2.2889    8.2498 C   0  0  0  0  0  0  0  0  0  0  0  0
   -7.7425   -2.7139    8.9227 N   0  0  0  0  0  0  0  0  0  0  0  0
   -8.1748   -6.3574    4.7203 C   0  0  0  0  0  0  0  0  0  0  0  0
   -9.6387   -6.0800    4.3178 C   0  0  0  0  0  0  0  0  0  0  0  0
  -10.0846   -7.3696    3.6667 C   0  0  0  0  0  0  0  0  0  0  0  0
   -9.4707   -7.4632    2.4942 C   0  0  0  0  0  0  0  0  0  0  0  0
   -8.5992   -6.2386    2.3330 C   0  0  0  0  0  0  0  0  0  0  0  0
   -9.4584   -5.2041    3.0712 C   0  0  0  0  0  0  0  0  0  0  0  0
   -7.4518   -6.4669    3.3395 C   0  0  0  0  0  0  0  0  0  0  0  0
   -2.5668    0.0988    5.0789 C   0  0  0  0  0  0  0  0  0  0  0  0
   -1.7894    1.1408    5.6150 C   0  0  0  0  0  0  0  0  0  0  0  0
   -1.9614    1.7524    6.9670 C   0  0  0  0  0  0  0  0  0  0  0  0
   -3.0593    2.8192    6.9486 C   0  0  0  0  0  0  0  0  0  0  0  0
   -0.8396    1.5859    4.7044 C   0  0  0  0  0  0  0  0  0  0  0  0
    0.4143    2.8113    4.7974 S   0  0  0  0  0  0  0  0  0  0  0  0
    0.9013    2.3950    3.1909 C   0  0  0  0  0  0  0  0  0  0  0  0
    1.9125    2.7119    2.2700 C   0  0  0  0  0  0  0  0  0  0  0  0
    3.0566    3.5394    2.4187 C   0  0  0  0  0  0  0  0  0  0  0  0
    4.0455    3.5024    1.4013 C   0  0  0  0  0  0  0  0  0  0  0  0
    5.1889    4.1855    1.5256 N   0  0  0  0  0  0  0  0  0  0  0  0
    5.3368    4.9028    2.6182 C   0  0  0  0  0  0  0  0  0  0  0  0
    4.3490    4.9626    3.6079 C   0  0  0  0  0  0  0  0  0  0  0  0
    3.2250    4.2858    3.5159 N   0  0  0  0  0  0  0  0  0  0  0  0
    3.7745    2.7480    0.2300 C   0  0  0  0  0  0  0  0  0  0  0  0
    4.5337    2.5881   -0.9435 C   0  0  0  0  0  0  0  0  0  0  0  0
    6.0810    3.0316   -1.5751 S   0  0  0  0  0  0  0  0  0  0  0  0
    5.6888    2.1945   -3.0613 C   0  0  0  0  0  0  0  0  0  0  0  0
    6.4034    1.9819   -4.2475 C   0  0  0  0  0  0  0  0  0  0  0  0
    7.8037    2.4675   -4.4381 C   0  0  0  0  0  0  0  0  0  0  0  0
    8.8076    1.3906   -4.0186 C   0  0  0  0  0  0  0  0  0  0  0  0
    5.6727    1.2341   -5.1620 C   0  0  0  0  0  0  0  0  0  0  0  0
    4.0806    0.8082   -4.5289 S   0  0  0  0  0  0  0  0  0  0  0  0
    4.4153    1.6161   -3.0460 C   0  0  0  0  0  0  0  0  0  0  0  0
    3.7599    1.8369   -1.8315 C   0  0  0  0  0  0  0  0  0  0  0  0
    2.5606    1.5023   -1.2540 N   0  0  0  0  0  0  0  0  0  0  0  0
    2.5630    2.0338    0.0253 C   0  0  0  0  0  0  0  0  0  0  0  0
    1.6785    1.9041    1.1199 C   0  0  0  0  0  0  0  0  0  0  0  0
    0.5919    1.0930    1.3599 N   0  0  0  0  0  0  0  0  0  0  0  0
    0.1211    1.3867    2.6121 C   0  0  0  0  0  0  0  0  0  0  0  0
   -0.8690    0.9092    3.4732 C   0  0  0  0  0  0  0  0  0  0  0  0
   -2.0844   -0.3095    3.4314 S   0  0  0  0  0  0  0  0  0  0  0  0
    0.1307   -0.0915    0.6724 C   0  0  0  0  0  0  0  0  0  0  0  0
   -1.2336    0.1222    0.0161 C   0  0  0  0  0  0  0  0  0  0  0  0
    1.4375    1.2276   -2.1244 C   0  0  0  0  0  0  0  0  0  0  0  0
    1.0207    2.4810   -2.8940 C   0  0  0  0  0  0  0  0  0  0  0  0
    6.1474    0.8085   -6.4258 C   0  0  0  0  0  0  0  0  0  0  0  0
    5.5405    0.1301   -7.4299 C   0  0  0  0  0  0  0  0  0  0  0  0
    6.4004   -0.2190   -8.5668 C   0  0  0  0  0  0  0  0  0  0  0  0
    7.5922    0.0117   -8.5950 O   0  0  0  0  0  0  0  0  0  0  0  0
    5.8108   -0.9193   -9.6256 N   0  0  0  0  0  0  0  0  0  0  0  0
    6.7084   -1.4959  -10.6233 C   0  0  0  0  0  0  0  0  0  0  0  0
    7.0084   -0.4958  -11.7317 C   0  0  0  0  0  0  0  0  0  0  0  0
    4.4670   -1.0265   -9.8506 C   0  0  0  0  0  0  0  0  0  0  0  0
    3.9953   -1.6892  -10.7414 O   0  0  0  0  0  0  0  0  0  0  0  0
    3.5997   -0.2048   -8.8994 C   0  0  0  0  0  0  0  0  0  0  0  0
    3.6632    1.1684   -9.3390 C   0  0  0  0  0  0  0  0  0  0  0  0
    3.7354    2.2578   -9.6759 N   0  0  0  0  0  0  0  0  0  0  0  0
    4.1096   -0.3199   -7.4564 C   0  0  0  0  0  0  0  0  0  0  0  0
    3.9658   -1.7561   -6.9455 C   0  0  0  0  0  0  0  0  0  0  0  0
   -3.7452   -0.1249    6.7765 H   0  0  0  0  0  0  0  0  0  0  0  0
   -5.1549   -4.4108    2.4130 H   0  0  0  0  0  0  0  0  0  0  0  0
   -7.5317   -4.1316    6.8771 H   0  0  0  0  0  0  0  0  0  0  0  0
   -8.0765   -7.1793    5.4268 H   0  0  0  0  0  0  0  0  0  0  0  0
  -10.2649   -5.6927    5.1167 H   0  0  0  0  0  0  0  0  0  0  0  0
  -10.7357   -8.0841    4.1350 H   0  0  0  0  0  0  0  0  0  0  0  0
   -9.5062   -8.2715    1.7874 H   0  0  0  0  0  0  0  0  0  0  0  0
   -8.2783   -5.9956    1.3234 H   0  0  0  0  0  0  0  0  0  0  0  0
  -10.4017   -5.0139    2.5619 H   0  0  0  0  0  0  0  0  0  0  0  0
   -8.9507   -4.2603    3.2616 H   0  0  0  0  0  0  0  0  0  0  0  0
   -6.8696   -7.3616    3.1263 H   0  0  0  0  0  0  0  0  0  0  0  0
   -2.2066    0.9943    7.7123 H   0  0  0  0  0  0  0  0  0  0  0  0
   -1.0159    2.2189    7.2511 H   0  0  0  0  0  0  0  0  0  0  0  0
   -4.0174    2.3815    6.6792 H   0  0  0  0  0  0  0  0  0  0  0  0
   -3.1529    3.2669    7.9337 H   0  0  0  0  0  0  0  0  0  0  0  0
   -2.8167    3.5988    6.2303 H   0  0  0  0  0  0  0  0  0  0  0  0
    6.2650    5.4499    2.7097 H   0  0  0  0  0  0  0  0  0  0  0  0
    4.4721    5.5679    4.4953 H   0  0  0  0  0  0  0  0  0  0  0  0
    7.9471    3.3529   -3.8156 H   0  0  0  0  0  0  0  0  0  0  0  0
    7.9743    2.7465   -5.4783 H   0  0  0  0  0  0  0  0  0  0  0  0
    9.8221    1.7602   -4.1405 H   0  0  0  0  0  0  0  0  0  0  0  0
    8.6881    0.4973   -4.6272 H   0  0  0  0  0  0  0  0  0  0  0  0
    8.6590    1.1226   -2.9751 H   0  0  0  0  0  0  0  0  0  0  0  0
    0.0321   -0.8885    1.4174 H   0  0  0  0  0  0  0  0  0  0  0  0
    0.8911   -0.4031   -0.0452 H   0  0  0  0  0  0  0  0  0  0  0  0
   -2.0006    0.2165    0.7795 H   0  0  0  0  0  0  0  0  0  0  0  0
   -1.4798   -0.7318   -0.6084 H   0  0  0  0  0  0  0  0  0  0  0  0
   -1.2502    1.0243   -0.5922 H   0  0  0  0  0  0  0  0  0  0  0  0
    1.7457    0.4463   -2.8261 H   0  0  0  0  0  0  0  0  0  0  0  0
    0.5926    0.8728   -1.5472 H   0  0  0  0  0  0  0  0  0  0  0  0
    0.1690    2.2549   -3.5295 H   0  0  0  0  0  0  0  0  0  0  0  0
    0.7416    3.2726   -2.2016 H   0  0  0  0  0  0  0  0  0  0  0  0
    1.8334    2.8397   -3.5202 H   0  0  0  0  0  0  0  0  0  0  0  0
    7.1858    1.0550   -6.6162 H   0  0  0  0  0  0  0  0  0  0  0  0
    7.6286   -1.7791  -10.1096 H   0  0  0  0  0  0  0  0  0  0  0  0
    6.2152   -2.3815  -11.0285 H   0  0  0  0  0  0  0  0  0  0  0  0
    7.4873    0.3875  -11.3166 H   0  0  0  0  0  0  0  0  0  0  0  0
    6.0890   -0.2001  -12.2323 H   0  0  0  0  0  0  0  0  0  0  0  0
    7.6752   -0.9474  -12.4606 H   0  0  0  0  0  0  0  0  0  0  0  0
    2.5666   -0.5573   -8.9901 H   0  0  0  0  0  0  0  0  0  0  0  0
    3.5040    0.3414   -6.8283 H   0  0  0  0  0  0  0  0  0  0  0  0
    4.5329   -2.4463   -7.5669 H   0  0  0  0  0  0  0  0  0  0  0  0
    2.9213   -2.0593   -6.9546 H   0  0  0  0  0  0  0  0  0  0  0  0
    4.3368   -1.8241   -5.9259 H   0  0  0  0  0  0  0  0  0  0  0  0
  1  2  2  0  0  0  0
  2  3  1  0  0  0  0
  3  4  2  0  0  0  0
  3  5  1  0  0  0  0
  5  6  2  0  0  0  0
  6  7  1  0  0  0  0
  7  8  2  0  0  0  0
  8  9  1  0  0  0  0
  9 10  2  0  0  0  0
 10 11  1  0  0  0  0
 11 12  2  0  0  0  0
 12 13  1  0  0  0  0
 13 14  3  0  0  0  0
 12 15  1  0  0  0  0
 15 16  3  0  0  0  0
  8 17  1  0  0  0  0
 17 18  1  0  0  0  0
 18 19  1  0  0  0  0
 19 20  2  0  0  0  0
 20 21  1  0  0  0  0
 21 22  1  0  0  0  0
 21 23  1  0  0  0  0
  1 24  1  0  0  0  0
 24 25  2  0  0  0  0
 25 26  1  0  0  0  0
 26 27  1  0  0  0  0
 25 28  1  0  0  0  0
 28 29  1  0  0  0  0
 29 30  1  0  0  0  0
 30 31  1  0  0  0  0
 31 32  2  0  0  0  0
 32 33  1  0  0  0  0
 33 34  1  0  0  0  0
 34 35  2  0  0  0  0
 35 36  1  0  0  0  0
 36 37  2  0  0  0  0
 33 38  2  0  0  0  0
 38 39  1  0  0  0  0
 39 40  1  0  0  0  0
 40 41  1  0  0  0  0
 41 42  1  0  0  0  0
 42 43  1  0  0  0  0
 43 44  1  0  0  0  0
 42 45  2  0  0  0  0
 45 46  1  0  0  0  0
 46 47  1  0  0  0  0
 47 48  1  0  0  0  0
 48 49  1  0  0  0  0
 49 50  1  0  0  0  0
 50 51  2  0  0  0  0
 51 52  1  0  0  0  0
 52 53  1  0  0  0  0
 53 54  1  0  0  0  0
 54 55  1  0  0  0  0
 52 56  1  0  0  0  0
 56 57  1  0  0  0  0
 49 58  1  0  0  0  0
 58 59  1  0  0  0  0
 45 60  1  0  0  0  0
 60 61  2  0  0  0  0
 61 62  1  0  0  0  0
 62 63  2  0  0  0  0
 62 64  1  0  0  0  0
 64 65  1  0  0  0  0
 65 66  1  0  0  0  0
 64 67  1  0  0  0  0
 67 68  2  0  0  0  0
 67 69  1  0  0  0  0
 69 70  1  0  0  0  0
 70 71  3  0  0  0  0
 69 72  1  0  0  0  0
 72 73  1  0  0  0  0
 11  2  1  0  0  0  0
 23 17  1  0  0  0  0
 55 24  1  0  0  0  0
 72 61  1  0  0  0  0
 10  5  1  0  0  0  0
 22 18  1  0  0  0  0
 54 28  2  0  0  0  0
 23  7  1  0  0  0  0
 53 30  2  0  0  0  0
 51 31  1  0  0  0  0
 37 32  1  0  0  0  0
 50 38  1  0  0  0  0
 48 39  2  0  0  0  0
 47 41  2  0  0  0  0
  1 74  1  0  0  0  0
  6 75  1  0  0  0  0
  9 76  1  0  0  0  0
 17 77  1  0  0  0  0
 18 78  1  0  0  0  0
 19 79  1  0  0  0  0
 20 80  1  0  0  0  0
 21 81  1  0  0  0  0
 22 82  1  0  0  0  0
 22 83  1  0  0  0  0
 23 84  1  0  0  0  0
 26 85  1  0  0  0  0
 26 86  1  0  0  0  0
 27 87  1  0  0  0  0
 27 88  1  0  0  0  0
 27 89  1  0  0  0  0
 35 90  1  0  0  0  0
 36 91  1  0  0  0  0
 43 92  1  0  0  0  0
 43 93  1  0  0  0  0
 44 94  1  0  0  0  0
 44 95  1  0  0  0  0
 44 96  1  0  0  0  0
 56 97  1  0  0  0  0
 56 98  1  0  0  0  0
 57 99  1  0  0  0  0
 57100  1  0  0  0  0
 57101  1  0  0  0  0
 58102  1  0  0  0  0
 58103  1  0  0  0  0
 59104  1  0  0  0  0
 59105  1  0  0  0  0
 59106  1  0  0  0  0
 60107  1  0  0  0  0
 65108  1  0  0  0  0
 65109  1  0  0  0  0
 66110  1  0  0  0  0
 66111  1  0  0  0  0
 66112  1  0  0  0  0
 69113  1  0  0  0  0
 72114  1  0  0  0  0
 73115  1  0  0  0  0
 73116  1  0  0  0  0
 73117  1  0  0  0  0
M  END
