130

C         -3.17780        3.41540       -5.53010
C         -4.03520        2.58430       -6.20650
C         -4.26190        1.16450       -5.92770
O         -3.68510        0.46490       -5.11010
C         -5.33220        0.72700       -6.83770
C         -5.90010       -0.54300       -6.91430
C         -6.89300       -0.65440       -7.85740
C         -7.28820        0.41760       -8.66840
C         -6.73100        1.67310       -8.60730
C         -5.72110        1.81100       -7.65010
C         -4.91400        2.97720       -7.29020
C         -4.99230        4.20800       -7.89090
C         -4.21580        5.34210       -7.57190
N         -3.63410        6.31610       -7.38790
C         -5.87480        4.52700       -8.94430
N         -6.56290        4.86630       -9.79890
C         -8.34060       -0.40040       -9.37480
C         -9.80260       -0.16370       -8.94020
C        -10.52830       -1.39820       -9.42460
C        -10.15440       -2.41360       -8.65670
C         -9.16930       -1.88250       -7.64040
C         -9.73440       -0.47060       -7.43850
C         -7.89980       -1.59580       -8.47030
C         -2.30740        3.15280       -4.46540
C         -1.54490        4.16270       -3.84750
C         -1.67270        5.59300       -4.11280
C         -2.92010        6.21420       -4.14750
C         -3.00600        7.57250       -4.38310
C         -1.85900        8.32200       -4.57560
C         -0.60610        7.72360       -4.52600
C          0.64680        8.53860       -4.66470
C          1.17300        8.93390       -3.28320
C         -0.52510        6.36060       -4.29010
C         -0.66120        3.63280       -2.90920
S          0.50350        4.36580       -1.82180
C          0.84670        2.79620       -1.17870
C          1.66610        2.19580       -0.21080
C          2.68050        2.72030        0.62130
C          3.39450        1.83110        1.49310
N          4.34740        2.44740        2.17370
S          4.34470        4.01220        1.75900
N          3.12710        3.96410        0.69400
C          2.97480        0.48480        1.58860
C          3.32170       -0.53030        2.49010
S          4.39370       -0.77880        3.82300
C          3.64860       -2.33600        4.09840
C          3.85840       -3.32290        5.06770
C          4.90270       -3.24300        6.08590
C          5.09310       -2.05880        6.79370
C          6.08430       -1.98310        7.75580
C          6.87920       -3.08120        8.02600
C          6.69440       -4.27700        7.33750
C          7.56530       -5.46540        7.62520
C          8.85740       -5.39810        6.80890
C          5.71480       -4.34100        6.36070
C          2.99050       -4.40400        4.88780
S          1.96980       -4.19730        3.46690
C          2.64310       -2.64260        3.16710
C          2.45610       -1.60620        2.24990
N          1.60860       -1.30030        1.21800
C          1.91500       -0.02550        0.78470
C          1.35290        0.80540       -0.21640
N          0.41720        0.56430       -1.20660
C          0.10350        1.77170       -1.77600
C         -0.75670        2.23940       -2.77310
S         -1.94500        1.55460       -3.81830
C          0.20650       -0.63560       -1.98900
C          1.08130       -0.63170       -3.24260
C          0.42290       -2.09860        0.99570
C          0.73620       -3.39670        0.25160
C          2.79050       -5.57770        5.63410
C          3.11010       -5.88020        6.92940
C          3.16820       -7.30140        7.33020
O          2.76700       -8.25290        6.70210
C          3.88920       -7.30380        8.62710
C          4.35540       -8.38780        9.34900
Cl         4.01920       -9.98950        8.86570
C          5.12730       -8.14080       10.49340
Cl         5.71780       -9.44850       11.42330
C          5.43690       -6.83230       10.85600
Cl         6.44320       -6.55630       12.21150
C          4.95070       -5.73520       10.12530
Cl         5.46750       -4.16690       10.57990
C          4.13970       -5.97350        9.02470
C          3.47360       -5.07870        8.07620
C          2.98380       -3.82220        8.32100
C          2.15720       -3.14250        7.40060
N          1.45570       -2.55810        6.70510
C          3.02680       -3.10070        9.53170
N          2.93260       -2.44760       10.47070
H         -3.15450        4.45000       -5.84920
H         -5.56190       -1.34080       -6.27170
H         -7.04580        2.48380       -9.24240
H         -8.22660       -0.49240      -10.45310
H        -10.21590        0.79600       -9.23790
H        -11.17490       -1.41610      -10.28220
H        -10.42600       -3.44920       -8.74470
H         -9.00670       -2.48900       -6.75330
H         -9.07910        0.19420       -6.87870
H        -10.72000       -0.48420       -6.97620
H         -7.49170       -2.48590       -8.94560
H         -3.81450        5.63770       -3.96050
H         -3.97400        8.04900       -4.41570
H         -1.93630        9.38280       -4.76330
H          0.44180        9.43880       -5.24650
H          1.41000        7.95890       -5.18740
H          0.42880        9.52050       -2.74920
H          1.39520        8.04670       -2.69430
H          2.08020        9.52620       -3.37700
H          0.44210        5.87950       -4.26580
H          4.45380       -1.21040        6.60270
H          6.22890       -1.06300        8.30140
H          7.65030       -3.01660        8.77930
H          7.81210       -5.48880        8.68860
H          7.02840       -6.38520        7.38110
H          8.63270       -5.38670        5.74480
H          9.41160       -4.49450        7.05150
H          9.48520       -6.25950        7.02280
H          5.58340       -5.25350        5.79620
H          0.44960       -1.51050       -1.39890
H         -0.84860       -0.66960       -2.27630
H          0.92120       -1.55020       -3.80020
H          2.13280       -0.56420       -2.97010
H          0.83290        0.20790       -3.88560
H          0.00620       -2.35240        1.97690
H         -0.31780       -1.49460        0.47090
H          1.30160       -3.21310       -0.65960
H          1.32610       -4.05630        0.88210
H         -0.18910       -3.90480       -0.00480
H          2.34590       -6.40440        5.08550
