136

C          1.99740        6.15060        3.69140
C          3.00120        6.47760        4.56060
C          3.99970        5.52570        5.09950
O          4.04010        4.32280        4.94310
C          5.02550        6.35600        5.75720
C          6.18440        5.90520        6.38350
C          6.97360        6.90940        6.89050
C          6.64290        8.26590        6.77080
C          5.50560        8.72490        6.14980
C          4.68250        7.71760        5.63850
C          3.40670        7.81400        4.93570
C          2.66670        8.95590        4.76130
C          1.37940        8.98990        4.18640
N          0.31890        9.08520        3.75540
C          3.07150       10.24150        5.17310
N          3.34070       11.31550        5.47820
C          7.88390        8.71470        7.50130
C          7.73030        9.16440        8.97530
C          6.52120        8.44460        9.51900
C          6.83230        7.16050        9.63450
C          8.25770        6.98880        9.17090
C          8.85220        8.33360        9.61850
C          8.25060        7.20320        7.63710
C          1.48100        4.85720        3.46020
C          1.34900        3.76860        4.31880
C          1.57570        3.81060        5.75960
C          1.15980        4.90710        6.51310
C          1.39000        4.93190        7.87380
C          2.02740        3.87020        8.49550
C          2.43270        2.76340        7.76220
C          3.07000        1.57910        8.42950
C          2.02770        0.48780        8.68180
C          2.19700        2.74150        6.39560
C          0.85440        2.64430        3.64030
S          0.51590        1.00850        4.15760
C          0.02060        0.62850        2.54530
C         -0.39420       -0.47930        1.79550
C         -0.52660       -1.83120        2.17860
C         -0.84530       -2.80080        1.17640
N         -0.89560       -4.03280        1.65900
S         -0.57190       -3.97290        3.24420
N         -0.35280       -2.37410        3.37360
C         -1.09060       -2.35870       -0.14120
C         -1.47340       -3.08490       -1.27550
S         -1.76690       -4.72260       -1.74520
C         -2.18410       -4.15890       -3.34740
C         -2.54880       -4.83580       -4.51810
C         -2.53770       -6.28970       -4.63890
C         -1.92610       -6.90620       -5.72890
C         -1.94280       -8.28200       -5.83600
C         -2.56300       -9.05220       -4.86470
C         -3.16130       -8.45440       -3.76450
C         -3.79100       -9.27540       -2.67720
C         -2.83520       -9.41020       -1.49010
C         -3.13570       -7.07110       -3.65700
C         -2.79380       -3.94450       -5.56400
S         -2.47500       -2.27310       -5.09370
C         -2.09120       -2.76600       -3.48780
C         -1.67530       -2.15590       -2.30080
N         -1.42230       -0.89220       -1.84190
C         -1.03150       -0.98160       -0.51740
C         -0.60160       -0.03260        0.45460
N         -0.28100        1.31300        0.40820
C          0.08800        1.71030        1.66330
C          0.56760        2.86730        2.28710
S          0.89340        4.49960        1.83710
C         -0.19760        2.27320       -0.66650
C         -1.41570        3.19680       -0.69220
C         -1.69780        0.22360       -2.71670
C         -0.56640        0.45060       -3.72030
C         -3.20210       -4.15800       -6.89350
C         -3.93180       -5.20970       -7.38460
C         -4.78470       -6.10980       -6.57850
O         -5.01590       -6.04480       -5.39010
C         -5.41610       -7.02920       -7.54950
C         -6.26190       -8.08730       -7.28590
C         -6.73510       -8.81350       -8.37510
O         -7.54320       -9.92790       -8.28020
C         -8.37970      -10.16420       -7.24560
O         -8.54430       -9.43300       -6.31170
C         -9.08100      -11.47700       -7.46390
C         -6.36080       -8.47010       -9.67510
C         -5.51470       -7.40480       -9.92700
C         -5.03240       -6.67210       -8.85160
C         -4.11830       -5.53490       -8.78130
C         -3.49290       -4.95020       -9.85410
C         -2.53860       -3.91540       -9.77630
N         -1.73810       -3.09130       -9.79390
C         -3.71330       -5.32090      -11.19630
N         -3.84960       -5.56870      -12.30930
H          1.58280        6.93200        3.06400
H          6.40420        4.85090        6.44620
H          5.26930        9.77170        6.05450
H          8.56180        9.35540        6.94090
H          7.75520       10.24060        9.12360
H          5.57500        8.91890        9.70280
H          6.19730        6.34680        9.93280
H          8.76360        6.08410        9.49800
H          9.83660        8.53440        9.19770
H          8.88680        8.43950       10.70180
H          9.16860        6.85710        7.16570
H          0.64510        5.72700        6.03290
H          1.06720        5.78270        8.45610
H          2.20760        3.90230        9.56060
H          3.86040        1.18020        7.79090
H          3.51530        1.88200        9.37920
H          2.48660       -0.37150        9.16520
H          1.58370        0.16380        7.74350
H          1.23420        0.86450        9.32360
H          2.53570        1.90100        5.80990
H         -1.43130       -6.30610       -6.47910
H         -1.46810       -8.75960       -6.68100
H         -2.57930      -10.12820       -4.96440
H         -4.71270       -8.79450       -2.34480
H         -4.03990      -10.26790       -3.05740
H         -3.29340       -9.99920       -0.69920
H         -1.91480       -9.90080       -1.79960
H         -2.58280       -8.43000       -1.09260
H         -3.62420       -6.59110       -2.82310
H          0.69560        2.88080       -0.48620
H         -0.05710        1.75860       -1.61170
H         -2.34460        2.63080       -0.72700
H         -1.43330        3.81440        0.20190
H         -1.36680        3.84980       -1.55900
H         -2.60970       -0.02050       -3.27200
H         -1.90390        1.11150       -2.12590
H         -0.75060        1.35990       -4.28540
H          0.39880        0.53070       -3.22400
H         -0.51400       -0.38070       -4.41820
H         -2.91780       -3.37180       -7.58360
H         -6.53230       -8.32470       -6.27020
H         -8.34800      -12.28050       -7.47170
H         -9.58270      -11.46790       -8.42820
H         -9.80110      -11.64060       -6.66850
H         -6.74820       -9.06150      -10.49000
H         -5.25030       -7.16330      -10.94330
