
  xtb     02022216023D
 energy: -202.671738364223 gnorm: 0.000281483354 xtb: 6.4.1 (unknown)
113127  0     0  0            999 V2000
    3.6862   -1.2820    4.7690 C   0  0  0  0  0  0  0  0  0  0  0  0
    4.4799   -0.8359    5.7887 C   0  0  0  0  0  0  0  0  0  0  0  0
    4.6987    0.5857    6.1396 C   0  0  0  0  0  0  0  0  0  0  0  0
    4.1938    1.5625    5.6238 O   0  0  0  0  0  0  0  0  0  0  0  0
    5.7585    0.5865    7.1652 C   0  0  0  0  0  0  0  0  0  0  0  0
    6.2822    1.6982    7.8203 C   0  0  0  0  0  0  0  0  0  0  0  0
    7.2616    1.3985    8.7363 C   0  0  0  0  0  0  0  0  0  0  0  0
    7.6972    0.0882    8.9764 C   0  0  0  0  0  0  0  0  0  0  0  0
    7.1931   -1.0168    8.3334 C   0  0  0  0  0  0  0  0  0  0  0  0
    6.1901   -0.7343    7.4012 C   0  0  0  0  0  0  0  0  0  0  0  0
    5.4151   -1.6367    6.5548 C   0  0  0  0  0  0  0  0  0  0  0  0
    5.5075   -3.0048    6.5461 C   0  0  0  0  0  0  0  0  0  0  0  0
    4.6837   -3.8696    5.7953 C   0  0  0  0  0  0  0  0  0  0  0  0
    4.0412   -4.6409    5.2369 N   0  0  0  0  0  0  0  0  0  0  0  0
    6.4351   -3.7490    7.3042 C   0  0  0  0  0  0  0  0  0  0  0  0
    7.1672   -4.4186    7.8823 N   0  0  0  0  0  0  0  0  0  0  0  0
    8.7041    0.5272   10.0094 C   0  0  0  0  0  0  0  0  0  0  0  0
   10.1935    0.5827    9.5887 C   0  0  0  0  0  0  0  0  0  0  0  0
   10.2108    0.8133    8.0980 C   0  0  0  0  0  0  0  0  0  0  0  0
    9.7968    2.0535    7.8749 C   0  0  0  0  0  0  0  0  0  0  0  0
    9.4915    2.6840    9.2112 C   0  0  0  0  0  0  0  0  0  0  0  0
   10.5504    1.9930   10.0851 C   0  0  0  0  0  0  0  0  0  0  0  0
    8.2160    1.9866    9.7452 C   0  0  0  0  0  0  0  0  0  0  0  0
    2.6377   -0.5854    4.1305 C   0  0  0  0  0  0  0  0  0  0  0  0
    1.7068    0.3284    4.6140 C   0  0  0  0  0  0  0  0  0  0  0  0
    1.5833    0.7222    6.0466 C   0  0  0  0  0  0  0  0  0  0  0  0
    0.1426    0.7180    6.5506 C   0  0  0  0  0  0  0  0  0  0  0  0
    0.8268    0.7337    3.5976 C   0  0  0  0  0  0  0  0  0  0  0  0
   -0.4836    1.8945    3.5474 S   0  0  0  0  0  0  0  0  0  0  0  0
   -0.7141    1.5397    1.8752 C   0  0  0  0  0  0  0  0  0  0  0  0
   -1.5353    1.9368    0.8100 C   0  0  0  0  0  0  0  0  0  0  0  0
   -2.5209    2.9569    0.7787 C   0  0  0  0  0  0  0  0  0  0  0  0
   -3.1594    3.2228   -0.4557 C   0  0  0  0  0  0  0  0  0  0  0  0
   -4.0594    4.2054   -0.5729 N   0  0  0  0  0  0  0  0  0  0  0  0
   -4.3232    4.8969    0.5147 C   0  0  0  0  0  0  0  0  0  0  0  0
   -3.7062    4.6209    1.7407 C   0  0  0  0  0  0  0  0  0  0  0  0
   -2.8129    3.6648    1.8757 N   0  0  0  0  0  0  0  0  0  0  0  0
   -2.8458    2.3865   -1.5584 C   0  0  0  0  0  0  0  0  0  0  0  0
   -3.4255    2.3610   -2.8330 C   0  0  0  0  0  0  0  0  0  0  0  0
   -4.6251    3.2167   -3.7329 S   0  0  0  0  0  0  0  0  0  0  0  0
   -4.3827    2.0914   -5.0568 C   0  0  0  0  0  0  0  0  0  0  0  0
   -4.9780    1.9786   -6.3036 C   0  0  0  0  0  0  0  0  0  0  0  0
   -6.0689    2.8884   -6.7641 C   0  0  0  0  0  0  0  0  0  0  0  0
   -7.4431    2.2762   -6.4775 C   0  0  0  0  0  0  0  0  0  0  0  0
   -4.4695    0.8766   -7.0185 C   0  0  0  0  0  0  0  0  0  0  0  0
   -3.2307    0.0085   -6.1063 S   0  0  0  0  0  0  0  0  0  0  0  0
   -3.4076    1.1100   -4.7933 C   0  0  0  0  0  0  0  0  0  0  0  0
   -2.8604    1.2794   -3.5194 C   0  0  0  0  0  0  0  0  0  0  0  0
   -1.9267    0.6625   -2.7286 N   0  0  0  0  0  0  0  0  0  0  0  0
   -1.8981    1.3210   -1.5138 C   0  0  0  0  0  0  0  0  0  0  0  0
   -1.1552    1.1539   -0.3180 C   0  0  0  0  0  0  0  0  0  0  0  0
   -0.1065    0.3305    0.0566 N   0  0  0  0  0  0  0  0  0  0  0  0
    0.1625    0.5719    1.3775 C   0  0  0  0  0  0  0  0  0  0  0  0
    1.0517    0.1185    2.3575 C   0  0  0  0  0  0  0  0  0  0  0  0
    2.3552   -1.0028    2.4393 S   0  0  0  0  0  0  0  0  0  0  0  0
    0.8539   -0.3921   -0.7464 C   0  0  0  0  0  0  0  0  0  0  0  0
    1.6399    0.5489   -1.6563 C   0  0  0  0  0  0  0  0  0  0  0  0
   -1.4161   -0.6339   -3.1135 C   0  0  0  0  0  0  0  0  0  0  0  0
   -2.0605   -1.7510   -2.2960 C   0  0  0  0  0  0  0  0  0  0  0  0
   -4.9167    0.5300   -8.2931 C   0  0  0  0  0  0  0  0  0  0  0  0
   -4.5788   -0.5193   -9.1186 C   0  0  0  0  0  0  0  0  0  0  0  0
   -3.6181   -1.5798   -8.8198 C   0  0  0  0  0  0  0  0  0  0  0  0
   -2.9247   -1.7072   -7.8257 O   0  0  0  0  0  0  0  0  0  0  0  0
   -3.6445   -2.4928   -9.9827 C   0  0  0  0  0  0  0  0  0  0  0  0
   -2.9265   -3.6543  -10.1774 C   0  0  0  0  0  0  0  0  0  0  0  0
   -3.1229   -4.3589  -11.3593 C   0  0  0  0  0  0  0  0  0  0  0  0
   -2.2619   -5.8162  -11.6664 Cl  0  0  0  0  0  0  0  0  0  0  0  0
   -4.0311   -3.8733  -12.3018 C   0  0  0  0  0  0  0  0  0  0  0  0
   -4.2180   -4.5579  -13.4369 F   0  0  0  0  0  0  0  0  0  0  0  0
   -4.7541   -2.7051  -12.1123 C   0  0  0  0  0  0  0  0  0  0  0  0
   -4.5564   -2.0041  -10.9336 C   0  0  0  0  0  0  0  0  0  0  0  0
   -5.1459   -0.7641  -10.4281 C   0  0  0  0  0  0  0  0  0  0  0  0
   -6.0575    0.0056  -11.1062 C   0  0  0  0  0  0  0  0  0  0  0  0
   -6.5549   -0.3068  -12.3890 C   0  0  0  0  0  0  0  0  0  0  0  0
   -7.0002   -0.5003  -13.4292 N   0  0  0  0  0  0  0  0  0  0  0  0
   -6.6272    1.2106  -10.6460 C   0  0  0  0  0  0  0  0  0  0  0  0
   -7.1358    2.1966  -10.3457 N   0  0  0  0  0  0  0  0  0  0  0  0
    3.8919   -2.2632    4.3566 H   0  0  0  0  0  0  0  0  0  0  0  0
    5.9178    2.6904    7.6044 H   0  0  0  0  0  0  0  0  0  0  0  0
    7.5404   -2.0177    8.5281 H   0  0  0  0  0  0  0  0  0  0  0  0
    8.5709    0.1174   11.0087 H   0  0  0  0  0  0  0  0  0  0  0  0
   10.7962   -0.2447    9.9533 H   0  0  0  0  0  0  0  0  0  0  0  0
   10.4597    0.0558    7.3780 H   0  0  0  0  0  0  0  0  0  0  0  0
    9.6303    2.5394    6.9314 H   0  0  0  0  0  0  0  0  0  0  0  0
    9.4552    3.7701    9.2330 H   0  0  0  0  0  0  0  0  0  0  0  0
   10.3887    2.1308   11.1533 H   0  0  0  0  0  0  0  0  0  0  0  0
   11.5666    2.2862    9.8260 H   0  0  0  0  0  0  0  0  0  0  0  0
    7.7612    2.5288   10.5720 H   0  0  0  0  0  0  0  0  0  0  0  0
    2.1806    0.0360    6.6516 H   0  0  0  0  0  0  0  0  0  0  0  0
    2.0155    1.7203    6.1681 H   0  0  0  0  0  0  0  0  0  0  0  0
    0.1355    0.8858    7.6247 H   0  0  0  0  0  0  0  0  0  0  0  0
   -0.4439    1.5017    6.0804 H   0  0  0  0  0  0  0  0  0  0  0  0
   -0.3303   -0.2406    6.3485 H   0  0  0  0  0  0  0  0  0  0  0  0
   -5.0481    5.6924    0.4121 H   0  0  0  0  0  0  0  0  0  0  0  0
   -3.9387    5.1880    2.6314 H   0  0  0  0  0  0  0  0  0  0  0  0
   -5.9792    3.8302   -6.2193 H   0  0  0  0  0  0  0  0  0  0  0  0
   -5.9817    3.1002   -7.8307 H   0  0  0  0  0  0  0  0  0  0  0  0
   -8.2238    2.9548   -6.8088 H   0  0  0  0  0  0  0  0  0  0  0  0
   -7.5619    1.3315   -7.0030 H   0  0  0  0  0  0  0  0  0  0  0  0
   -7.5626    2.0986   -5.4113 H   0  0  0  0  0  0  0  0  0  0  0  0
    0.3633   -1.1838   -1.3120 H   0  0  0  0  0  0  0  0  0  0  0  0
    1.5418   -0.8752   -0.0482 H   0  0  0  0  0  0  0  0  0  0  0  0
    2.2005    1.2621   -1.0566 H   0  0  0  0  0  0  0  0  0  0  0  0
    2.3408   -0.0196   -2.2615 H   0  0  0  0  0  0  0  0  0  0  0  0
    0.9766    1.1067   -2.3138 H   0  0  0  0  0  0  0  0  0  0  0  0
   -0.3293   -0.6534   -3.0391 H   0  0  0  0  0  0  0  0  0  0  0  0
   -1.6699   -0.7687   -4.1677 H   0  0  0  0  0  0  0  0  0  0  0  0
   -1.6421   -2.7108   -2.5856 H   0  0  0  0  0  0  0  0  0  0  0  0
   -3.1320   -1.7727   -2.4800 H   0  0  0  0  0  0  0  0  0  0  0  0
   -1.9025   -1.6025   -1.2299 H   0  0  0  0  0  0  0  0  0  0  0  0
   -5.6674    1.2056   -8.6791 H   0  0  0  0  0  0  0  0  0  0  0  0
   -2.2325   -4.0045   -9.4301 H   0  0  0  0  0  0  0  0  0  0  0  0
   -5.4391   -2.3879  -12.8813 H   0  0  0  0  0  0  0  0  0  0  0  0
  1  2  2  0  0  0  0
  2  3  1  0  0  0  0
  3  4  2  0  0  0  0
  3  5  1  0  0  0  0
  5  6  2  0  0  0  0
  6  7  1  0  0  0  0
  7  8  2  0  0  0  0
  8  9  1  0  0  0  0
  9 10  2  0  0  0  0
 10 11  1  0  0  0  0
 11 12  2  0  0  0  0
 12 13  1  0  0  0  0
 13 14  3  0  0  0  0
 12 15  1  0  0  0  0
 15 16  3  0  0  0  0
  8 17  1  0  0  0  0
 17 18  1  0  0  0  0
 18 19  1  0  0  0  0
 19 20  2  0  0  0  0
 20 21  1  0  0  0  0
 21 22  1  0  0  0  0
 21 23  1  0  0  0  0
  1 24  1  0  0  0  0
 24 25  2  0  0  0  0
 25 26  1  0  0  0  0
 26 27  1  0  0  0  0
 25 28  1  0  0  0  0
 28 29  1  0  0  0  0
 29 30  1  0  0  0  0
 30 31  1  0  0  0  0
 31 32  2  0  0  0  0
 32 33  1  0  0  0  0
 33 34  1  0  0  0  0
 34 35  2  0  0  0  0
 35 36  1  0  0  0  0
 36 37  2  0  0  0  0
 33 38  2  0  0  0  0
 38 39  1  0  0  0  0
 39 40  1  0  0  0  0
 40 41  1  0  0  0  0
 41 42  1  0  0  0  0
 42 43  1  0  0  0  0
 43 44  1  0  0  0  0
 42 45  2  0  0  0  0
 45 46  1  0  0  0  0
 46 47  1  0  0  0  0
 47 48  1  0  0  0  0
 48 49  1  0  0  0  0
 49 50  1  0  0  0  0
 50 51  2  0  0  0  0
 51 52  1  0  0  0  0
 52 53  1  0  0  0  0
 53 54  1  0  0  0  0
 54 55  1  0  0  0  0
 52 56  1  0  0  0  0
 56 57  1  0  0  0  0
 49 58  1  0  0  0  0
 58 59  1  0  0  0  0
 45 60  1  0  0  0  0
 60 61  2  0  0  0  0
 61 62  1  0  0  0  0
 62 63  2  0  0  0  0
 62 64  1  0  0  0  0
 64 65  2  0  0  0  0
 65 66  1  0  0  0  0
 66 67  1  0  0  0  0
 66 68  2  0  0  0  0
 68 69  1  0  0  0  0
 68 70  1  0  0  0  0
 70 71  2  0  0  0  0
 71 72  1  0  0  0  0
 72 73  2  0  0  0  0
 73 74  1  0  0  0  0
 74 75  3  0  0  0  0
 73 76  1  0  0  0  0
 76 77  3  0  0  0  0
 11  2  1  0  0  0  0
 23 17  1  0  0  0  0
 55 24  1  0  0  0  0
 72 61  1  0  0  0  0
 10  5  1  0  0  0  0
 22 18  1  0  0  0  0
 54 28  2  0  0  0  0
 71 64  1  0  0  0  0
 23  7  1  0  0  0  0
 53 30  2  0  0  0  0
 51 31  1  0  0  0  0
 37 32  1  0  0  0  0
 50 38  1  0  0  0  0
 48 39  2  0  0  0  0
 47 41  2  0  0  0  0
  1 78  1  0  0  0  0
  6 79  1  0  0  0  0
  9 80  1  0  0  0  0
 17 81  1  0  0  0  0
 18 82  1  0  0  0  0
 19 83  1  0  0  0  0
 20 84  1  0  0  0  0
 21 85  1  0  0  0  0
 22 86  1  0  0  0  0
 22 87  1  0  0  0  0
 23 88  1  0  0  0  0
 26 89  1  0  0  0  0
 26 90  1  0  0  0  0
 27 91  1  0  0  0  0
 27 92  1  0  0  0  0
 27 93  1  0  0  0  0
 35 94  1  0  0  0  0
 36 95  1  0  0  0  0
 43 96  1  0  0  0  0
 43 97  1  0  0  0  0
 44 98  1  0  0  0  0
 44 99  1  0  0  0  0
 44100  1  0  0  0  0
 56101  1  0  0  0  0
 56102  1  0  0  0  0
 57103  1  0  0  0  0
 57104  1  0  0  0  0
 57105  1  0  0  0  0
 58106  1  0  0  0  0
 58107  1  0  0  0  0
 59108  1  0  0  0  0
 59109  1  0  0  0  0
 59110  1  0  0  0  0
 60111  1  0  0  0  0
 65112  1  0  0  0  0
 70113  1  0  0  0  0
M  END
