
  xtb     02022206423D
 energy: -212.456379555747 gnorm: 0.000987509183 xtb: 6.4.1 (unknown)
119134  0     0  0            999 V2000
   -2.8796   -6.1202    2.7240 C   0  0  0  0  0  0  0  0  0  0  0  0
   -3.0471   -5.5781    3.9728 C   0  0  0  0  0  0  0  0  0  0  0  0
   -2.6405   -4.2362    4.4003 C   0  0  0  0  0  0  0  0  0  0  0  0
   -2.1939   -3.3379    3.7059 O   0  0  0  0  0  0  0  0  0  0  0  0
   -2.8637   -4.1790    5.8545 C   0  0  0  0  0  0  0  0  0  0  0  0
   -2.5706   -3.1171    6.7078 C   0  0  0  0  0  0  0  0  0  0  0  0
   -2.8680   -3.3618    8.0270 C   0  0  0  0  0  0  0  0  0  0  0  0
   -3.4232   -4.5717    8.4643 C   0  0  0  0  0  0  0  0  0  0  0  0
   -3.7230   -5.6244    7.6325 C   0  0  0  0  0  0  0  0  0  0  0  0
   -3.4219   -5.3993    6.2859 C   0  0  0  0  0  0  0  0  0  0  0  0
   -3.5838   -6.2743    5.1257 C   0  0  0  0  0  0  0  0  0  0  0  0
   -4.1733   -7.5131    5.1448 C   0  0  0  0  0  0  0  0  0  0  0  0
   -4.3859   -8.3409    4.0230 C   0  0  0  0  0  0  0  0  0  0  0  0
   -4.6024   -9.0732    3.1637 N   0  0  0  0  0  0  0  0  0  0  0  0
   -4.6843   -8.1382    6.3014 C   0  0  0  0  0  0  0  0  0  0  0  0
   -5.1219   -8.7110    7.1954 N   0  0  0  0  0  0  0  0  0  0  0  0
   -3.4441   -4.1339    9.9073 C   0  0  0  0  0  0  0  0  0  0  0  0
   -2.3379   -4.7114   10.8156 C   0  0  0  0  0  0  0  0  0  0  0  0
   -2.3096   -3.7675   11.9959 C   0  0  0  0  0  0  0  0  0  0  0  0
   -1.7834   -2.6213   11.5834 C   0  0  0  0  0  0  0  0  0  0  0  0
   -1.4467   -2.7715   10.1172 C   0  0  0  0  0  0  0  0  0  0  0  0
   -1.0672   -4.2577   10.0851 C   0  0  0  0  0  0  0  0  0  0  0  0
   -2.8242   -2.7847    9.4204 C   0  0  0  0  0  0  0  0  0  0  0  0
   -2.3617   -5.5686    1.5456 C   0  0  0  0  0  0  0  0  0  0  0  0
   -2.2064   -6.3089    0.3614 C   0  0  0  0  0  0  0  0  0  0  0  0
   -2.6015   -7.7353    0.1591 C   0  0  0  0  0  0  0  0  0  0  0  0
   -4.0926   -7.8461   -0.1713 C   0  0  0  0  0  0  0  0  0  0  0  0
   -1.6735   -5.5281   -0.6565 C   0  0  0  0  0  0  0  0  0  0  0  0
   -1.2321   -5.8882   -2.3153 S   0  0  0  0  0  0  0  0  0  0  0  0
   -0.7108   -4.2512   -2.5003 C   0  0  0  0  0  0  0  0  0  0  0  0
   -0.1730   -3.4161   -3.4939 C   0  0  0  0  0  0  0  0  0  0  0  0
    0.0768   -3.6440   -4.8742 C   0  0  0  0  0  0  0  0  0  0  0  0
    0.4930   -2.5452   -5.6739 C   0  0  0  0  0  0  0  0  0  0  0  0
    0.6578   -2.6787   -6.9942 N   0  0  0  0  0  0  0  0  0  0  0  0
    0.4389   -3.8710   -7.5050 C   0  0  0  0  0  0  0  0  0  0  0  0
    0.0609   -4.9608   -6.7127 C   0  0  0  0  0  0  0  0  0  0  0  0
   -0.1238   -4.8504   -5.4150 N   0  0  0  0  0  0  0  0  0  0  0  0
    0.7802   -1.3127   -5.0275 C   0  0  0  0  0  0  0  0  0  0  0  0
    1.3097   -0.1095   -5.5209 C   0  0  0  0  0  0  0  0  0  0  0  0
    1.7590    0.5878   -7.0356 S   0  0  0  0  0  0  0  0  0  0  0  0
    2.2309    2.0486   -6.1870 C   0  0  0  0  0  0  0  0  0  0  0  0
    2.7266    3.2650   -6.6291 C   0  0  0  0  0  0  0  0  0  0  0  0
    3.0427    3.5359   -8.0633 C   0  0  0  0  0  0  0  0  0  0  0  0
    4.5268    3.2883   -8.3489 C   0  0  0  0  0  0  0  0  0  0  0  0
    2.9307    4.1563   -5.5568 C   0  0  0  0  0  0  0  0  0  0  0  0
    2.4958    3.4378   -4.0015 S   0  0  0  0  0  0  0  0  0  0  0  0
    2.0509    1.9733   -4.7925 C   0  0  0  0  0  0  0  0  0  0  0  0
    1.5260    0.7347   -4.4210 C   0  0  0  0  0  0  0  0  0  0  0  0
    1.1373    0.1033   -3.2631 N   0  0  0  0  0  0  0  0  0  0  0  0
    0.6444   -1.1332   -3.6246 C   0  0  0  0  0  0  0  0  0  0  0  0
    0.0126   -2.1480   -2.8807 C   0  0  0  0  0  0  0  0  0  0  0  0
   -0.4514   -2.1871   -1.5816 N   0  0  0  0  0  0  0  0  0  0  0  0
   -0.8784   -3.4717   -1.3473 C   0  0  0  0  0  0  0  0  0  0  0  0
   -1.4267   -4.1956   -0.2854 C   0  0  0  0  0  0  0  0  0  0  0  0
   -1.8328   -3.8947    1.3618 S   0  0  0  0  0  0  0  0  0  0  0  0
   -1.0023   -1.0869   -0.8151 C   0  0  0  0  0  0  0  0  0  0  0  0
   -2.5264   -1.0490   -0.9214 C   0  0  0  0  0  0  0  0  0  0  0  0
    1.7329    0.4633   -1.9913 C   0  0  0  0  0  0  0  0  0  0  0  0
    3.2581    0.3918   -2.0535 C   0  0  0  0  0  0  0  0  0  0  0  0
    3.4046    5.4557   -5.7372 C   0  0  0  0  0  0  0  0  0  0  0  0
    3.6330    6.4713   -4.8352 C   0  0  0  0  0  0  0  0  0  0  0  0
    3.4073    6.4081   -3.3919 C   0  0  0  0  0  0  0  0  0  0  0  0
    3.0293    5.4519   -2.7349 O   0  0  0  0  0  0  0  0  0  0  0  0
    3.7248    7.7491   -2.8663 C   0  0  0  0  0  0  0  0  0  0  0  0
    3.6476    8.2048   -1.5827 C   0  0  0  0  0  0  0  0  0  0  0  0
    3.9932    9.5476   -1.3104 C   0  0  0  0  0  0  0  0  0  0  0  0
    3.9272   10.0729   -0.0055 C   0  0  0  0  0  0  0  0  0  0  0  0
    4.2653   11.3763    0.2291 C   0  0  0  0  0  0  0  0  0  0  0  0
    4.2003   11.8748    1.4724 F   0  0  0  0  0  0  0  0  0  0  0  0
    4.6838   12.2087   -0.8275 C   0  0  0  0  0  0  0  0  0  0  0  0
    5.0099   13.4824   -0.5676 F   0  0  0  0  0  0  0  0  0  0  0  0
    4.7576   11.7273   -2.1048 C   0  0  0  0  0  0  0  0  0  0  0  0
    4.4149   10.3885   -2.3802 C   0  0  0  0  0  0  0  0  0  0  0  0
    4.4853    9.8845   -3.7000 C   0  0  0  0  0  0  0  0  0  0  0  0
    4.1439    8.5807   -3.9418 C   0  0  0  0  0  0  0  0  0  0  0  0
    4.1066    7.7959   -5.1756 C   0  0  0  0  0  0  0  0  0  0  0  0
    4.4688    8.2651   -6.4146 C   0  0  0  0  0  0  0  0  0  0  0  0
    4.9261    9.5764   -6.6590 C   0  0  0  0  0  0  0  0  0  0  0  0
    5.3059   10.6261   -6.9285 N   0  0  0  0  0  0  0  0  0  0  0  0
    4.4488    7.5292   -7.6167 C   0  0  0  0  0  0  0  0  0  0  0  0
    4.4666    7.0002   -8.6372 N   0  0  0  0  0  0  0  0  0  0  0  0
   -3.1733   -7.1554    2.6155 H   0  0  0  0  0  0  0  0  0  0  0  0
   -2.1466   -2.2012    6.3268 H   0  0  0  0  0  0  0  0  0  0  0  0
   -4.1496   -6.5474    7.9874 H   0  0  0  0  0  0  0  0  0  0  0  0
   -4.4217   -4.1166   10.3850 H   0  0  0  0  0  0  0  0  0  0  0  0
   -2.4382   -5.7703   11.0371 H   0  0  0  0  0  0  0  0  0  0  0  0
   -2.7128   -4.0043   12.9629 H   0  0  0  0  0  0  0  0  0  0  0  0
   -1.6591   -1.7091   12.1372 H   0  0  0  0  0  0  0  0  0  0  0  0
   -0.7336   -2.0629    9.7042 H   0  0  0  0  0  0  0  0  0  0  0  0
   -0.1661   -4.4647   10.6602 H   0  0  0  0  0  0  0  0  0  0  0  0
   -0.9608   -4.6676    9.0824 H   0  0  0  0  0  0  0  0  0  0  0  0
   -3.3881   -1.8665    9.5739 H   0  0  0  0  0  0  0  0  0  0  0  0
   -2.0209   -8.1328   -0.6758 H   0  0  0  0  0  0  0  0  0  0  0  0
   -2.3816   -8.3341    1.0440 H   0  0  0  0  0  0  0  0  0  0  0  0
   -4.3531   -8.8854   -0.3489 H   0  0  0  0  0  0  0  0  0  0  0  0
   -4.6988   -7.4787    0.6530 H   0  0  0  0  0  0  0  0  0  0  0  0
   -4.3263   -7.2685   -1.0626 H   0  0  0  0  0  0  0  0  0  0  0  0
    0.5720   -3.9657   -8.5738 H   0  0  0  0  0  0  0  0  0  0  0  0
   -0.1000   -5.9420   -7.1374 H   0  0  0  0  0  0  0  0  0  0  0  0
    2.7887    4.5608   -8.3369 H   0  0  0  0  0  0  0  0  0  0  0  0
    2.4445    2.8594   -8.6769 H   0  0  0  0  0  0  0  0  0  0  0  0
    4.7348    3.4768   -9.3980 H   0  0  0  0  0  0  0  0  0  0  0  0
    5.1500    3.9496   -7.7516 H   0  0  0  0  0  0  0  0  0  0  0  0
    4.7898    2.2586   -8.1184 H   0  0  0  0  0  0  0  0  0  0  0  0
   -0.6096   -0.1484   -1.2007 H   0  0  0  0  0  0  0  0  0  0  0  0
   -0.7085   -1.2098    0.2319 H   0  0  0  0  0  0  0  0  0  0  0  0
   -2.8297   -0.9742   -1.9637 H   0  0  0  0  0  0  0  0  0  0  0  0
   -2.9038   -0.1837   -0.3841 H   0  0  0  0  0  0  0  0  0  0  0  0
   -2.9699   -1.9412   -0.4894 H   0  0  0  0  0  0  0  0  0  0  0  0
    1.4220    1.4799   -1.7306 H   0  0  0  0  0  0  0  0  0  0  0  0
    1.3902   -0.2351   -1.2301 H   0  0  0  0  0  0  0  0  0  0  0  0
    3.5765   -0.6006   -2.3657 H   0  0  0  0  0  0  0  0  0  0  0  0
    3.6681    0.5968   -1.0686 H   0  0  0  0  0  0  0  0  0  0  0  0
    3.6562    1.1245   -2.7490 H   0  0  0  0  0  0  0  0  0  0  0  0
    3.6105    5.6943   -6.7716 H   0  0  0  0  0  0  0  0  0  0  0  0
    3.3250    7.5515   -0.7862 H   0  0  0  0  0  0  0  0  0  0  0  0
    3.6084    9.4486    0.8145 H   0  0  0  0  0  0  0  0  0  0  0  0
    5.0797   12.3781   -2.9027 H   0  0  0  0  0  0  0  0  0  0  0  0
    4.8058   10.5487   -4.4860 H   0  0  0  0  0  0  0  0  0  0  0  0
  1  2  2  0  0  0  0
  2  3  1  0  0  0  0
  3  4  2  0  0  0  0
  3  5  1  0  0  0  0
  5  6  2  0  0  0  0
  6  7  1  0  0  0  0
  7  8  2  0  0  0  0
  8  9  1  0  0  0  0
  9 10  2  0  0  0  0
 10 11  1  0  0  0  0
 11 12  2  0  0  0  0
 12 13  1  0  0  0  0
 13 14  3  0  0  0  0
 12 15  1  0  0  0  0
 15 16  3  0  0  0  0
  8 17  1  0  0  0  0
 17 18  1  0  0  0  0
 18 19  1  0  0  0  0
 19 20  2  0  0  0  0
 20 21  1  0  0  0  0
 21 22  1  0  0  0  0
 21 23  1  0  0  0  0
  1 24  1  0  0  0  0
 24 25  2  0  0  0  0
 25 26  1  0  0  0  0
 26 27  1  0  0  0  0
 25 28  1  0  0  0  0
 28 29  1  0  0  0  0
 29 30  1  0  0  0  0
 30 31  1  0  0  0  0
 31 32  2  0  0  0  0
 32 33  1  0  0  0  0
 33 34  1  0  0  0  0
 34 35  2  0  0  0  0
 35 36  1  0  0  0  0
 36 37  2  0  0  0  0
 33 38  2  0  0  0  0
 38 39  1  0  0  0  0
 39 40  1  0  0  0  0
 40 41  1  0  0  0  0
 41 42  1  0  0  0  0
 42 43  1  0  0  0  0
 43 44  1  0  0  0  0
 42 45  2  0  0  0  0
 45 46  1  0  0  0  0
 46 47  1  0  0  0  0
 47 48  1  0  0  0  0
 48 49  1  0  0  0  0
 49 50  1  0  0  0  0
 50 51  2  0  0  0  0
 51 52  1  0  0  0  0
 52 53  1  0  0  0  0
 53 54  1  0  0  0  0
 54 55  1  0  0  0  0
 52 56  1  0  0  0  0
 56 57  1  0  0  0  0
 49 58  1  0  0  0  0
 58 59  1  0  0  0  0
 45 60  1  0  0  0  0
 60 61  2  0  0  0  0
 61 62  1  0  0  0  0
 62 63  2  0  0  0  0
 62 64  1  0  0  0  0
 64 65  2  0  0  0  0
 65 66  1  0  0  0  0
 66 67  2  0  0  0  0
 67 68  1  0  0  0  0
 68 69  1  0  0  0  0
 68 70  2  0  0  0  0
 70 71  1  0  0  0  0
 70 72  1  0  0  0  0
 72 73  2  0  0  0  0
 73 74  1  0  0  0  0
 74 75  2  0  0  0  0
 75 76  1  0  0  0  0
 76 77  2  0  0  0  0
 77 78  1  0  0  0  0
 78 79  3  0  0  0  0
 77 80  1  0  0  0  0
 80 81  3  0  0  0  0
 11  2  1  0  0  0  0
 23 17  1  0  0  0  0
 55 24  1  0  0  0  0
 76 61  1  0  0  0  0
 10  5  1  0  0  0  0
 22 18  1  0  0  0  0
 54 28  2  0  0  0  0
 75 64  1  0  0  0  0
 23  7  1  0  0  0  0
 53 30  2  0  0  0  0
 73 66  1  0  0  0  0
 51 31  1  0  0  0  0
 37 32  1  0  0  0  0
 50 38  1  0  0  0  0
 48 39  2  0  0  0  0
 47 41  2  0  0  0  0
  1 82  1  0  0  0  0
  6 83  1  0  0  0  0
  9 84  1  0  0  0  0
 17 85  1  0  0  0  0
 18 86  1  0  0  0  0
 19 87  1  0  0  0  0
 20 88  1  0  0  0  0
 21 89  1  0  0  0  0
 22 90  1  0  0  0  0
 22 91  1  0  0  0  0
 23 92  1  0  0  0  0
 26 93  1  0  0  0  0
 26 94  1  0  0  0  0
 27 95  1  0  0  0  0
 27 96  1  0  0  0  0
 27 97  1  0  0  0  0
 35 98  1  0  0  0  0
 36 99  1  0  0  0  0
 43100  1  0  0  0  0
 43101  1  0  0  0  0
 44102  1  0  0  0  0
 44103  1  0  0  0  0
 44104  1  0  0  0  0
 56105  1  0  0  0  0
 56106  1  0  0  0  0
 57107  1  0  0  0  0
 57108  1  0  0  0  0
 57109  1  0  0  0  0
 58110  1  0  0  0  0
 58111  1  0  0  0  0
 59112  1  0  0  0  0
 59113  1  0  0  0  0
 59114  1  0  0  0  0
 60115  1  0  0  0  0
 65116  1  0  0  0  0
 67117  1  0  0  0  0
 72118  1  0  0  0  0
 74119  1  0  0  0  0
M  END
