152

C         -2.63020        8.43830        2.52560
C         -3.74600        8.88690        1.88920
C         -3.72330       10.24330        1.27240
O         -3.02110       11.17540        1.58890
C         -4.67020       10.15820        0.14170
C         -4.86790       11.10000       -0.86580
C         -5.76070       10.70590       -1.83370
C         -6.41700        9.46770       -1.80480
C         -6.25110        8.53740       -0.80660
C         -5.34230        8.91750        0.18240
C         -4.92000        8.20740        1.38610
C         -5.64400        7.25350        2.05030
C         -6.78490        6.62070        1.52120
N         -7.69370        6.04910        1.11400
C         -5.36410        6.88420        3.38420
N         -5.20730        6.61790        4.48940
C         -7.12760        9.72350       -3.10940
C         -6.57570        9.02310       -4.37650
C         -5.10560        8.78580       -4.13420
C         -4.49520        9.96300       -4.16160
C         -5.54170       11.01790       -4.42160
C         -6.50150       10.22900       -5.32670
C         -6.40440       11.10690       -3.13810
C         -2.16160        7.11730        2.70330
C         -0.87280        6.79320        3.10480
C         -0.60020        5.43710        2.96740
S          0.81880        4.44690        3.17940
C         -0.06350        3.07540        2.59710
C          0.23740        1.71000        2.29000
C          1.42210        0.98590        2.38110
C          1.39330       -0.31290        1.93210
C          2.53450       -1.31820        1.92970
C          2.88990       -1.74650        3.32640
C          3.88670       -2.59110        3.70100
C          3.90150       -2.83560        5.09260
C          2.91760       -2.18510        5.76740
C          2.60470       -2.21990        7.22390
C          1.28560       -2.94550        7.49440
S          1.93690       -1.24590        4.68380
C          3.73300       -0.78220        1.20670
C          4.79260       -0.10070        1.71400
C          5.71300        0.30090        0.71910
C          5.35160       -0.07090       -0.53620
C          6.04710        0.19970       -1.82560
C          5.31740        1.27290       -2.63590
S          3.84340       -0.93030       -0.51720
C          1.89040       -2.47330        1.20810
C          0.56160       -2.19630        0.93470
C          0.22360       -0.87810        1.37570
C         -0.97010       -0.16500        1.31280
C         -0.94890        1.12500        1.78450
C         -2.10990        2.09820        1.89430
C         -2.97170        1.72790        3.08000
C         -4.10400        2.35410        3.49680
C         -4.62090        1.80840        4.69280
C         -3.88040        0.78060        5.18390
C         -4.09050       -0.01090        6.42870
C         -3.01890        0.30230        7.47450
S         -2.50970        0.45980        4.16540
C         -2.96530        2.22700        0.67450
C         -4.00560        1.43510        0.30180
C         -4.65900        1.89530       -0.86290
C         -4.11720        3.03140       -1.37390
C         -4.59690        3.86090       -2.51420
C         -5.28920        5.12800       -2.00400
S         -2.75660        3.54710       -0.42890
C         -1.38300        3.35460        2.28730
C         -1.69180        4.69490        2.48190
S         -3.05030        5.69460        2.17610
S         -0.26450       -3.46520        0.10140
C          1.20740       -4.39580        0.09280
C          1.55220       -5.62970       -0.44030
C          2.88570       -5.93470       -0.22210
S          3.70620       -4.66080        0.69500
C          2.26790       -3.72690        0.73870
C          3.68760       -7.03340       -0.58920
C          3.44180       -8.10150       -1.40680
C          2.25530       -8.37190       -2.25220
O          1.16880       -7.82930       -2.23700
C          2.64950       -9.46400       -3.16050
C          1.88550       -9.99700       -4.19630
C          2.51860      -10.98950       -4.90400
C          3.81720      -11.42270       -4.60270
C          4.57630      -10.91380       -3.57620
C          3.94980       -9.90150       -2.84290
C          4.42990       -9.12870       -1.70150
C          5.57850       -9.38830       -1.00030
C          6.00650       -8.71940        0.16680
N          6.42410       -8.25140        1.12930
C          6.49250      -10.41440       -1.32120
N          7.28250      -11.22330       -1.52100
C          3.83180      -12.42080       -5.73290
C          4.61980      -12.04740       -7.01310
C          4.63760      -10.54060       -7.08300
C          3.40760      -10.13360       -7.36680
C          2.53550      -11.35830       -7.49350
C          3.55130      -12.35470       -8.07450
C          2.38400      -11.94090       -6.06630
H         -1.91330        9.21070        2.78740
H         -4.34230       12.04190       -0.85620
H         -6.75590        7.58550       -0.79090
H         -8.21500        9.71540       -3.07250
H         -7.15400        8.16290       -4.70370
H         -4.67920        7.82380       -3.91780
H         -3.45990       10.17890       -3.97290
H         -5.17880       11.97380       -4.78970
H         -6.06100        9.97930       -6.29080
H         -7.46060       10.72260       -5.47710
H         -7.02030       12.00360       -3.11230
H         -0.16810        7.52700        3.45130
H          2.32040        1.43070        2.78060
H          4.59000       -3.02060        3.00980
H          4.62370       -3.47310        5.57070
H          2.53600       -1.19920        7.60940
H          3.41960       -2.72760        7.74410
H          0.46740       -2.43960        6.98640
H          1.33660       -3.96980        7.13230
H          1.07630       -2.96310        8.56100
H          4.92260        0.09910        2.76270
H          6.61680        0.84240        0.93580
H          7.06610        0.52890       -1.61150
H          6.10050       -0.71920       -2.41460
H          4.30360        0.94930       -2.86170
H          5.83960        1.46020       -3.57070
H          5.26560        2.20210       -2.07300
H         -1.86470       -0.60820        0.90410
H         -4.55910        3.17420        2.96990
H         -5.51340        2.17520        5.16720
H         -5.07830        0.22490        6.82950
H         -4.06100       -1.07850        6.19540
H         -3.04140        1.35840        7.73300
H         -3.18910       -0.28090        8.37600
H         -2.03190        0.06270        7.08450
H         -4.31480        0.56580        0.85450
H         -5.51210        1.40330       -1.29500
H         -5.29930        3.27110       -3.10660
H         -3.75650        4.14110       -3.15410
H         -6.11080        4.86780       -1.33990
H         -5.68450        5.70540       -2.83640
H         -4.58340        5.74690       -1.45250
H          0.88490       -6.28030       -0.97440
H          4.68670       -6.97660       -0.17190
H          0.89020       -9.63080       -4.39460
H          5.57410      -11.25690       -3.35970
H          3.97220      -13.46180       -5.44880
H          5.58150      -12.54370       -7.11160
H          5.50330       -9.94140       -6.86920
H          3.04020       -9.12650       -7.43680
H          1.59920      -11.22750       -8.02980
H          3.87040      -12.09140       -9.08190
H          3.20560      -13.38740       -8.05610
H          1.57760      -12.66840       -5.99810
