
  xtb     02022220423D
 energy: -192.566530028672 gnorm: 0.000434692697 xtb: 6.4.1 (unknown)
112125  0     0  0            999 V2000
    3.9056    4.1604   -2.9166 C   0  0  0  0  0  0  0  0  0  0  0  0
    4.1615    4.9352   -1.8145 C   0  0  0  0  0  0  0  0  0  0  0  0
    3.5579    4.7844   -0.4872 C   0  0  0  0  0  0  0  0  0  0  0  0
    2.8288    3.8859   -0.1005 O   0  0  0  0  0  0  0  0  0  0  0  0
    4.0025    5.9432    0.3042 C   0  0  0  0  0  0  0  0  0  0  0  0
    3.6344    6.2579    1.6097 C   0  0  0  0  0  0  0  0  0  0  0  0
    4.1944    7.4201    2.0831 C   0  0  0  0  0  0  0  0  0  0  0  0
    5.0638    8.2074    1.3166 C   0  0  0  0  0  0  0  0  0  0  0  0
    5.4404    7.9038    0.0296 C   0  0  0  0  0  0  0  0  0  0  0  0
    4.8761    6.7290   -0.4748 C   0  0  0  0  0  0  0  0  0  0  0  0
    5.0238    6.1003   -1.7866 C   0  0  0  0  0  0  0  0  0  0  0  0
    5.8652    6.5294   -2.7819 C   0  0  0  0  0  0  0  0  0  0  0  0
    6.7063    7.6575   -2.6863 C   0  0  0  0  0  0  0  0  0  0  0  0
    7.4160    8.5603   -2.6847 N   0  0  0  0  0  0  0  0  0  0  0  0
    6.0418    5.9054   -4.0342 C   0  0  0  0  0  0  0  0  0  0  0  0
    6.2459    5.4574   -5.0729 N   0  0  0  0  0  0  0  0  0  0  0  0
    5.2327    9.2295    2.4127 C   0  0  0  0  0  0  0  0  0  0  0  0
    4.4622   10.5661    2.2770 C   0  0  0  0  0  0  0  0  0  0  0  0
    3.2466   10.2762    1.4319 C   0  0  0  0  0  0  0  0  0  0  0  0
    2.4199    9.5316    2.1540 C   0  0  0  0  0  0  0  0  0  0  0  0
    3.0612    9.3051    3.5007 C   0  0  0  0  0  0  0  0  0  0  0  0
    3.8139   10.6347    3.6690 C   0  0  0  0  0  0  0  0  0  0  0  0
    4.2610    8.3539    3.2652 C   0  0  0  0  0  0  0  0  0  0  0  0
    3.0990    3.0264   -3.0733 C   0  0  0  0  0  0  0  0  0  0  0  0
    2.8934    2.4043   -4.3162 C   0  0  0  0  0  0  0  0  0  0  0  0
    3.4367    2.8721   -5.6269 C   0  0  0  0  0  0  0  0  0  0  0  0
    2.5736    3.9954   -6.2078 C   0  0  0  0  0  0  0  0  0  0  0  0
    2.0592    1.2999   -4.1963 C   0  0  0  0  0  0  0  0  0  0  0  0
    1.4266    0.1601   -5.3698 S   0  0  0  0  0  0  0  0  0  0  0  0
    0.6058   -0.6589   -4.0884 C   0  0  0  0  0  0  0  0  0  0  0  0
   -0.2190   -1.7820   -3.9037 C   0  0  0  0  0  0  0  0  0  0  0  0
   -0.6380   -2.7961   -4.8058 C   0  0  0  0  0  0  0  0  0  0  0  0
   -1.3606   -3.9049   -4.2859 C   0  0  0  0  0  0  0  0  0  0  0  0
   -1.7017   -4.9329   -5.0705 N   0  0  0  0  0  0  0  0  0  0  0  0
   -1.3585   -4.8552   -6.3381 C   0  0  0  0  0  0  0  0  0  0  0  0
   -0.6785   -3.7477   -6.8572 C   0  0  0  0  0  0  0  0  0  0  0  0
   -0.3170   -2.7332   -6.1026 N   0  0  0  0  0  0  0  0  0  0  0  0
   -1.7573   -3.8696   -2.9223 C   0  0  0  0  0  0  0  0  0  0  0  0
   -2.5711   -4.7349   -2.1702 C   0  0  0  0  0  0  0  0  0  0  0  0
   -3.3828   -6.2486   -2.3567 S   0  0  0  0  0  0  0  0  0  0  0  0
   -3.9803   -6.1031   -0.7186 C   0  0  0  0  0  0  0  0  0  0  0  0
   -4.7818   -6.9310    0.0694 C   0  0  0  0  0  0  0  0  0  0  0  0
   -5.3097   -8.2480   -0.3963 C   0  0  0  0  0  0  0  0  0  0  0  0
   -4.3653   -9.3834    0.0065 C   0  0  0  0  0  0  0  0  0  0  0  0
   -4.9638   -6.3949    1.3428 C   0  0  0  0  0  0  0  0  0  0  0  0
   -4.1500   -4.8415    1.5374 S   0  0  0  0  0  0  0  0  0  0  0  0
   -3.5595   -4.9265   -0.0796 C   0  0  0  0  0  0  0  0  0  0  0  0
   -2.7568   -4.1445   -0.9129 C   0  0  0  0  0  0  0  0  0  0  0  0
   -2.0781   -2.9516   -0.8481 N   0  0  0  0  0  0  0  0  0  0  0  0
   -1.4344   -2.7902   -2.0594 C   0  0  0  0  0  0  0  0  0  0  0  0
   -0.5238   -1.8186   -2.5166 C   0  0  0  0  0  0  0  0  0  0  0  0
    0.1384   -0.7975   -1.8670 N   0  0  0  0  0  0  0  0  0  0  0  0
    0.8138   -0.0839   -2.8275 C   0  0  0  0  0  0  0  0  0  0  0  0
    1.6422    1.0401   -2.8799 C   0  0  0  0  0  0  0  0  0  0  0  0
    2.2471    2.2053   -1.7644 S   0  0  0  0  0  0  0  0  0  0  0  0
    0.6048   -0.7917   -0.4941 C   0  0  0  0  0  0  0  0  0  0  0  0
    2.0640   -1.2372   -0.4051 C   0  0  0  0  0  0  0  0  0  0  0  0
   -2.5208   -1.8990    0.0455 C   0  0  0  0  0  0  0  0  0  0  0  0
   -3.9898   -1.5508   -0.1912 C   0  0  0  0  0  0  0  0  0  0  0  0
   -5.6793   -6.9808    2.4005 C   0  0  0  0  0  0  0  0  0  0  0  0
   -5.8202   -6.5244    3.6727 C   0  0  0  0  0  0  0  0  0  0  0  0
   -5.1446   -5.0623    4.3542 S   0  0  0  0  0  0  0  0  0  0  0  0
   -5.8452   -5.4281    5.9199 C   0  0  0  0  0  0  0  0  0  0  0  0
   -5.6481   -4.5633    6.9675 C   0  0  0  0  0  0  0  0  0  0  0  0
   -4.8798   -3.3996    6.7572 C   0  0  0  0  0  0  0  0  0  0  0  0
   -4.2542   -2.4526    6.5890 N   0  0  0  0  0  0  0  0  0  0  0  0
   -6.1352   -4.7045    8.2774 C   0  0  0  0  0  0  0  0  0  0  0  0
   -6.4985   -4.7573    9.3660 N   0  0  0  0  0  0  0  0  0  0  0  0
   -6.5494   -6.5870    5.8959 N   0  0  0  0  0  0  0  0  0  0  0  0
   -7.2063   -7.1894    7.0413 C   0  0  0  0  0  0  0  0  0  0  0  0
   -6.2235   -7.9732    7.9029 C   0  0  0  0  0  0  0  0  0  0  0  0
   -6.5785   -7.2572    4.6765 C   0  0  0  0  0  0  0  0  0  0  0  0
   -7.1673   -8.3021    4.5080 O   0  0  0  0  0  0  0  0  0  0  0  0
    4.3829    4.4726   -3.8353 H   0  0  0  0  0  0  0  0  0  0  0  0
    2.9633    5.6216    2.1653 H   0  0  0  0  0  0  0  0  0  0  0  0
    6.1087    8.5222   -0.5458 H   0  0  0  0  0  0  0  0  0  0  0  0
    6.2471    9.3706    2.7800 H   0  0  0  0  0  0  0  0  0  0  0  0
    5.0729   11.4094    1.9662 H   0  0  0  0  0  0  0  0  0  0  0  0
    3.1416   10.5850    0.4083 H   0  0  0  0  0  0  0  0  0  0  0  0
    1.4859    9.0936    1.8539 H   0  0  0  0  0  0  0  0  0  0  0  0
    2.3953    9.0015    4.3042 H   0  0  0  0  0  0  0  0  0  0  0  0
    3.1445   11.4864    3.7802 H   0  0  0  0  0  0  0  0  0  0  0  0
    4.5354   10.6247    4.4848 H   0  0  0  0  0  0  0  0  0  0  0  0
    4.6391    7.9266    4.1919 H   0  0  0  0  0  0  0  0  0  0  0  0
    3.4320    2.0269   -6.3179 H   0  0  0  0  0  0  0  0  0  0  0  0
    4.4654    3.2210   -5.5217 H   0  0  0  0  0  0  0  0  0  0  0  0
    1.5537    3.6491   -6.3577 H   0  0  0  0  0  0  0  0  0  0  0  0
    2.5536    4.8524   -5.5382 H   0  0  0  0  0  0  0  0  0  0  0  0
    2.9782    4.3140   -7.1643 H   0  0  0  0  0  0  0  0  0  0  0  0
   -1.6355   -5.6942   -6.9613 H   0  0  0  0  0  0  0  0  0  0  0  0
   -0.4172   -3.6825   -7.9044 H   0  0  0  0  0  0  0  0  0  0  0  0
   -6.3008   -8.4287    0.0223 H   0  0  0  0  0  0  0  0  0  0  0  0
   -5.3936   -8.2201   -1.4843 H   0  0  0  0  0  0  0  0  0  0  0  0
   -4.2625   -9.4307    1.0881 H   0  0  0  0  0  0  0  0  0  0  0  0
   -4.7541  -10.3341   -0.3481 H   0  0  0  0  0  0  0  0  0  0  0  0
   -3.3814   -9.2266   -0.4290 H   0  0  0  0  0  0  0  0  0  0  0  0
    0.0014   -1.4810    0.0929 H   0  0  0  0  0  0  0  0  0  0  0  0
    0.5037    0.2222   -0.0951 H   0  0  0  0  0  0  0  0  0  0  0  0
    2.7164   -0.5439   -0.9276 H   0  0  0  0  0  0  0  0  0  0  0  0
    2.1830   -2.2278   -0.8395 H   0  0  0  0  0  0  0  0  0  0  0  0
    2.3664   -1.2733    0.6375 H   0  0  0  0  0  0  0  0  0  0  0  0
   -2.3801   -2.2313    1.0790 H   0  0  0  0  0  0  0  0  0  0  0  0
   -1.9268   -1.0058   -0.1365 H   0  0  0  0  0  0  0  0  0  0  0  0
   -4.6346   -2.3978    0.0245 H   0  0  0  0  0  0  0  0  0  0  0  0
   -4.2739   -0.7291    0.4600 H   0  0  0  0  0  0  0  0  0  0  0  0
   -4.1428   -1.2481   -1.2250 H   0  0  0  0  0  0  0  0  0  0  0  0
   -6.1762   -7.9218    2.1977 H   0  0  0  0  0  0  0  0  0  0  0  0
   -7.9572   -7.8684    6.6275 H   0  0  0  0  0  0  0  0  0  0  0  0
   -7.7020   -6.4113    7.6239 H   0  0  0  0  0  0  0  0  0  0  0  0
   -6.7585   -8.4333    8.7281 H   0  0  0  0  0  0  0  0  0  0  0  0
   -5.4564   -7.3216    8.3146 H   0  0  0  0  0  0  0  0  0  0  0  0
   -5.7492   -8.7549    7.3137 H   0  0  0  0  0  0  0  0  0  0  0  0
  1  2  2  0  0  0  0
  2  3  1  0  0  0  0
  3  4  2  0  0  0  0
  3  5  1  0  0  0  0
  5  6  2  0  0  0  0
  6  7  1  0  0  0  0
  7  8  2  0  0  0  0
  8  9  1  0  0  0  0
  9 10  2  0  0  0  0
 10 11  1  0  0  0  0
 11 12  2  0  0  0  0
 12 13  1  0  0  0  0
 13 14  3  0  0  0  0
 12 15  1  0  0  0  0
 15 16  3  0  0  0  0
  8 17  1  0  0  0  0
 17 18  1  0  0  0  0
 18 19  1  0  0  0  0
 19 20  2  0  0  0  0
 20 21  1  0  0  0  0
 21 22  1  0  0  0  0
 21 23  1  0  0  0  0
  1 24  1  0  0  0  0
 24 25  2  0  0  0  0
 25 26  1  0  0  0  0
 26 27  1  0  0  0  0
 25 28  1  0  0  0  0
 28 29  1  0  0  0  0
 29 30  1  0  0  0  0
 30 31  1  0  0  0  0
 31 32  2  0  0  0  0
 32 33  1  0  0  0  0
 33 34  1  0  0  0  0
 34 35  2  0  0  0  0
 35 36  1  0  0  0  0
 36 37  2  0  0  0  0
 33 38  2  0  0  0  0
 38 39  1  0  0  0  0
 39 40  1  0  0  0  0
 40 41  1  0  0  0  0
 41 42  1  0  0  0  0
 42 43  1  0  0  0  0
 43 44  1  0  0  0  0
 42 45  2  0  0  0  0
 45 46  1  0  0  0  0
 46 47  1  0  0  0  0
 47 48  1  0  0  0  0
 48 49  1  0  0  0  0
 49 50  1  0  0  0  0
 50 51  2  0  0  0  0
 51 52  1  0  0  0  0
 52 53  1  0  0  0  0
 53 54  1  0  0  0  0
 54 55  1  0  0  0  0
 52 56  1  0  0  0  0
 56 57  1  0  0  0  0
 49 58  1  0  0  0  0
 58 59  1  0  0  0  0
 45 60  1  0  0  0  0
 60 61  2  0  0  0  0
 61 62  1  0  0  0  0
 62 63  1  0  0  0  0
 63 64  2  0  0  0  0
 64 65  1  0  0  0  0
 65 66  3  0  0  0  0
 64 67  1  0  0  0  0
 67 68  3  0  0  0  0
 63 69  1  0  0  0  0
 69 70  1  0  0  0  0
 70 71  1  0  0  0  0
 69 72  1  0  0  0  0
 72 73  2  0  0  0  0
 11  2  1  0  0  0  0
 23 17  1  0  0  0  0
 55 24  1  0  0  0  0
 72 61  1  0  0  0  0
 10  5  1  0  0  0  0
 22 18  1  0  0  0  0
 54 28  2  0  0  0  0
 23  7  1  0  0  0  0
 53 30  2  0  0  0  0
 51 31  1  0  0  0  0
 37 32  1  0  0  0  0
 50 38  1  0  0  0  0
 48 39  2  0  0  0  0
 47 41  2  0  0  0  0
  1 74  1  0  0  0  0
  6 75  1  0  0  0  0
  9 76  1  0  0  0  0
 17 77  1  0  0  0  0
 18 78  1  0  0  0  0
 19 79  1  0  0  0  0
 20 80  1  0  0  0  0
 21 81  1  0  0  0  0
 22 82  1  0  0  0  0
 22 83  1  0  0  0  0
 23 84  1  0  0  0  0
 26 85  1  0  0  0  0
 26 86  1  0  0  0  0
 27 87  1  0  0  0  0
 27 88  1  0  0  0  0
 27 89  1  0  0  0  0
 35 90  1  0  0  0  0
 36 91  1  0  0  0  0
 43 92  1  0  0  0  0
 43 93  1  0  0  0  0
 44 94  1  0  0  0  0
 44 95  1  0  0  0  0
 44 96  1  0  0  0  0
 56 97  1  0  0  0  0
 56 98  1  0  0  0  0
 57 99  1  0  0  0  0
 57100  1  0  0  0  0
 57101  1  0  0  0  0
 58102  1  0  0  0  0
 58103  1  0  0  0  0
 59104  1  0  0  0  0
 59105  1  0  0  0  0
 59106  1  0  0  0  0
 60107  1  0  0  0  0
 70108  1  0  0  0  0
 70109  1  0  0  0  0
 71110  1  0  0  0  0
 71111  1  0  0  0  0
 71112  1  0  0  0  0
M  END
