
  xtb     02112206353D
 energy: -247.276699566607 gnorm: 0.000526281568 xtb: 6.4.1 (unknown)
151168  0     0  0            999 V2000
   -3.2023    1.9940   -6.5952 C   0  0  0  0  0  0  0  0  0  0  0  0
   -4.3934    1.7647   -7.2256 C   0  0  0  0  0  0  0  0  0  0  0  0
   -5.5563    0.9788   -6.7495 C   0  0  0  0  0  0  0  0  0  0  0  0
   -5.6142    0.1800   -5.8367 O   0  0  0  0  0  0  0  0  0  0  0  0
   -6.6849    1.3724   -7.6127 C   0  0  0  0  0  0  0  0  0  0  0  0
   -8.0112    0.9678   -7.4789 C   0  0  0  0  0  0  0  0  0  0  0  0
   -8.8586    1.5143   -8.4117 C   0  0  0  0  0  0  0  0  0  0  0  0
   -8.4196    2.3957   -9.4094 C   0  0  0  0  0  0  0  0  0  0  0  0
   -7.1127    2.7944   -9.5585 C   0  0  0  0  0  0  0  0  0  0  0  0
   -6.2340    2.2522   -8.6158 C   0  0  0  0  0  0  0  0  0  0  0  0
   -4.7967    2.4411   -8.4490 C   0  0  0  0  0  0  0  0  0  0  0  0
   -3.9702    3.0735   -9.3404 C   0  0  0  0  0  0  0  0  0  0  0  0
   -2.5642    3.1514   -9.2416 C   0  0  0  0  0  0  0  0  0  0  0  0
   -1.4190    3.2398   -9.2551 N   0  0  0  0  0  0  0  0  0  0  0  0
   -4.4086    3.6970  -10.5277 C   0  0  0  0  0  0  0  0  0  0  0  0
   -4.6922    4.2290  -11.5049 N   0  0  0  0  0  0  0  0  0  0  0  0
   -9.8058    2.5675   -9.9782 C   0  0  0  0  0  0  0  0  0  0  0  0
  -10.5658    3.8744   -9.6412 C   0  0  0  0  0  0  0  0  0  0  0  0
  -10.0155    4.3631   -8.3243 C   0  0  0  0  0  0  0  0  0  0  0  0
  -10.4291    3.5302   -7.3787 C   0  0  0  0  0  0  0  0  0  0  0  0
  -11.2670    2.4634   -8.0391 C   0  0  0  0  0  0  0  0  0  0  0  0
  -11.9048    3.2831   -9.1721 C   0  0  0  0  0  0  0  0  0  0  0  0
  -10.2944    1.5863   -8.8664 C   0  0  0  0  0  0  0  0  0  0  0  0
   -2.6574    1.4453   -5.4169 C   0  0  0  0  0  0  0  0  0  0  0  0
   -3.0295    0.3685   -4.6296 C   0  0  0  0  0  0  0  0  0  0  0  0
   -2.1811    0.2023   -3.5440 C   0  0  0  0  0  0  0  0  0  0  0  0
   -2.1566   -0.9186   -2.2122 S   0  0  0  0  0  0  0  0  0  0  0  0
   -0.7772   -0.0941   -1.5715 C   0  0  0  0  0  0  0  0  0  0  0  0
    0.0153   -0.2147   -0.3881 C   0  0  0  0  0  0  0  0  0  0  0  0
   -0.0734   -1.0980    0.6840 C   0  0  0  0  0  0  0  0  0  0  0  0
    0.7982   -0.9051    1.7301 C   0  0  0  0  0  0  0  0  0  0  0  0
    0.9152   -1.7090    3.0130 C   0  0  0  0  0  0  0  0  0  0  0  0
   -0.3181   -1.6712    3.8977 C   0  0  0  0  0  0  0  0  0  0  0  0
   -0.4138   -2.5673    4.9559 C   0  0  0  0  0  0  0  0  0  0  0  0
   -1.5030   -2.5207    5.8053 C   0  0  0  0  0  0  0  0  0  0  0  0
   -2.5003   -1.5818    5.6087 C   0  0  0  0  0  0  0  0  0  0  0  0
   -2.4145   -0.6742    4.5621 C   0  0  0  0  0  0  0  0  0  0  0  0
   -3.4645    0.3825    4.3715 C   0  0  0  0  0  0  0  0  0  0  0  0
   -3.0864    1.6523    5.1366 C   0  0  0  0  0  0  0  0  0  0  0  0
   -1.3127   -0.7231    3.7177 C   0  0  0  0  0  0  0  0  0  0  0  0
    1.2959   -3.1327    2.6439 C   0  0  0  0  0  0  0  0  0  0  0  0
    2.6241   -3.5270    2.5705 C   0  0  0  0  0  0  0  0  0  0  0  0
    2.9414   -4.8223    2.2016 C   0  0  0  0  0  0  0  0  0  0  0  0
    1.9413   -5.7274    1.8978 C   0  0  0  0  0  0  0  0  0  0  0  0
    0.6077   -5.3441    1.9516 C   0  0  0  0  0  0  0  0  0  0  0  0
   -0.4929   -6.3265    1.6729 C   0  0  0  0  0  0  0  0  0  0  0  0
   -1.0009   -6.9360    2.9810 C   0  0  0  0  0  0  0  0  0  0  0  0
    0.2995   -4.0436    2.3234 C   0  0  0  0  0  0  0  0  0  0  0  0
    2.0107   -0.9568    3.7174 C   0  0  0  0  0  0  0  0  0  0  0  0
    2.4589    0.0991    2.9397 C   0  0  0  0  0  0  0  0  0  0  0  0
    1.7452    0.1464    1.7019 C   0  0  0  0  0  0  0  0  0  0  0  0
    1.8517    1.0131    0.6170 C   0  0  0  0  0  0  0  0  0  0  0  0
    0.9827    0.8176   -0.4305 C   0  0  0  0  0  0  0  0  0  0  0  0
    0.8600    1.6234   -1.7118 C   0  0  0  0  0  0  0  0  0  0  0  0
    0.6671    3.0870   -1.3656 C   0  0  0  0  0  0  0  0  0  0  0  0
   -0.6005    3.6191   -1.1769 C   0  0  0  0  0  0  0  0  0  0  0  0
   -0.7467    4.9519   -0.8359 C   0  0  0  0  0  0  0  0  0  0  0  0
    0.3650    5.7586   -0.6750 C   0  0  0  0  0  0  0  0  0  0  0  0
    1.6408    5.2371   -0.8426 C   0  0  0  0  0  0  0  0  0  0  0  0
    2.8589    6.1061   -0.7188 C   0  0  0  0  0  0  0  0  0  0  0  0
    3.3145    6.5786   -2.1009 C   0  0  0  0  0  0  0  0  0  0  0  0
    1.7771    3.8993   -1.1840 C   0  0  0  0  0  0  0  0  0  0  0  0
    2.0241    1.4278   -2.6709 C   0  0  0  0  0  0  0  0  0  0  0  0
    2.1102    2.2448   -3.7922 C   0  0  0  0  0  0  0  0  0  0  0  0
    3.1334    2.0638   -4.7031 C   0  0  0  0  0  0  0  0  0  0  0  0
    4.0749    1.0689   -4.5050 C   0  0  0  0  0  0  0  0  0  0  0  0
    3.9983    0.2407   -3.3941 C   0  0  0  0  0  0  0  0  0  0  0  0
    4.9845   -0.8742   -3.1936 C   0  0  0  0  0  0  0  0  0  0  0  0
    4.4602   -2.1682   -3.8191 C   0  0  0  0  0  0  0  0  0  0  0  0
    2.9621    0.4247   -2.4872 C   0  0  0  0  0  0  0  0  0  0  0  0
   -0.3458    0.9761   -2.3378 C   0  0  0  0  0  0  0  0  0  0  0  0
   -1.1353    1.1459   -3.4726 C   0  0  0  0  0  0  0  0  0  0  0  0
   -1.2028    2.2397   -4.7946 S   0  0  0  0  0  0  0  0  0  0  0  0
    3.6907    1.0580    3.6854 S   0  0  0  0  0  0  0  0  0  0  0  0
    3.6046    0.0370    5.0950 C   0  0  0  0  0  0  0  0  0  0  0  0
    4.2596    0.0449    6.3158 C   0  0  0  0  0  0  0  0  0  0  0  0
    3.8287   -0.9835    7.1425 C   0  0  0  0  0  0  0  0  0  0  0  0
    2.5915   -1.9799    6.3547 S   0  0  0  0  0  0  0  0  0  0  0  0
    2.6545   -0.9984    4.9500 C   0  0  0  0  0  0  0  0  0  0  0  0
    4.1720   -1.3720    8.4484 C   0  0  0  0  0  0  0  0  0  0  0  0
    5.0063   -0.8152    9.3836 C   0  0  0  0  0  0  0  0  0  0  0  0
    5.7736    0.4478    9.3027 C   0  0  0  0  0  0  0  0  0  0  0  0
    5.9142    1.1983    8.3583 O   0  0  0  0  0  0  0  0  0  0  0  0
    6.3613    0.6439   10.6419 C   0  0  0  0  0  0  0  0  0  0  0  0
    7.1306    1.6982   11.0968 C   0  0  0  0  0  0  0  0  0  0  0  0
    7.5694    1.6797   12.4106 C   0  0  0  0  0  0  0  0  0  0  0  0
    7.2306    0.6130   13.2356 C   0  0  0  0  0  0  0  0  0  0  0  0
    7.7791    0.6093   14.8687 Cl  0  0  0  0  0  0  0  0  0  0  0  0
    6.4598   -0.4556   12.7880 C   0  0  0  0  0  0  0  0  0  0  0  0
    6.0233   -0.4352   11.4738 C   0  0  0  0  0  0  0  0  0  0  0  0
    5.2127   -1.3817   10.7065 C   0  0  0  0  0  0  0  0  0  0  0  0
    4.7779   -2.5932   11.1769 C   0  0  0  0  0  0  0  0  0  0  0  0
    5.0310   -3.0743   12.4801 C   0  0  0  0  0  0  0  0  0  0  0  0
    5.1924   -3.5333   13.5197 N   0  0  0  0  0  0  0  0  0  0  0  0
    4.0406   -3.5610   10.4607 C   0  0  0  0  0  0  0  0  0  0  0  0
    3.4544   -4.4154    9.9644 N   0  0  0  0  0  0  0  0  0  0  0  0
   -2.5691    2.7565   -7.0351 H   0  0  0  0  0  0  0  0  0  0  0  0
   -8.3060    0.2872   -6.6955 H   0  0  0  0  0  0  0  0  0  0  0  0
   -6.7911    3.4756  -10.3285 H   0  0  0  0  0  0  0  0  0  0  0  0
   -9.9356    2.2680  -11.0162 H   0  0  0  0  0  0  0  0  0  0  0  0
  -10.5942    4.6009  -10.4489 H   0  0  0  0  0  0  0  0  0  0  0  0
   -9.3554    5.2051   -8.2266 H   0  0  0  0  0  0  0  0  0  0  0  0
  -10.1831    3.5371   -6.3329 H   0  0  0  0  0  0  0  0  0  0  0  0
  -11.9345    1.9057   -7.3873 H   0  0  0  0  0  0  0  0  0  0  0  0
  -12.5948    4.0418   -8.8059 H   0  0  0  0  0  0  0  0  0  0  0  0
  -12.3972    2.6710   -9.9265 H   0  0  0  0  0  0  0  0  0  0  0  0
  -10.7460    0.6465   -9.1779 H   0  0  0  0  0  0  0  0  0  0  0  0
   -3.8848   -0.2448   -4.8427 H   0  0  0  0  0  0  0  0  0  0  0  0
   -0.8105   -1.8857    0.6911 H   0  0  0  0  0  0  0  0  0  0  0  0
    0.3603   -3.3053    5.1073 H   0  0  0  0  0  0  0  0  0  0  0  0
   -1.5726   -3.2208    6.6244 H   0  0  0  0  0  0  0  0  0  0  0  0
   -3.3522   -1.5523    6.2726 H   0  0  0  0  0  0  0  0  0  0  0  0
   -4.4274    0.0173    4.7338 H   0  0  0  0  0  0  0  0  0  0  0  0
   -3.5646    0.6186    3.3101 H   0  0  0  0  0  0  0  0  0  0  0  0
   -3.8471    2.4179    5.0036 H   0  0  0  0  0  0  0  0  0  0  0  0
   -2.9898    1.4388    6.1988 H   0  0  0  0  0  0  0  0  0  0  0  0
   -2.1356    2.0410    4.7781 H   0  0  0  0  0  0  0  0  0  0  0  0
   -1.2383   -0.0117    2.9073 H   0  0  0  0  0  0  0  0  0  0  0  0
    3.4136   -2.8275    2.8031 H   0  0  0  0  0  0  0  0  0  0  0  0
    3.9769   -5.1255    2.1537 H   0  0  0  0  0  0  0  0  0  0  0  0
    2.1965   -6.7384    1.6149 H   0  0  0  0  0  0  0  0  0  0  0  0
   -1.3193   -5.8234    1.1662 H   0  0  0  0  0  0  0  0  0  0  0  0
   -0.1255   -7.1217    1.0216 H   0  0  0  0  0  0  0  0  0  0  0  0
   -0.1931   -7.4501    3.4968 H   0  0  0  0  0  0  0  0  0  0  0  0
   -1.3847   -6.1575    3.6369 H   0  0  0  0  0  0  0  0  0  0  0  0
   -1.7974   -7.6497    2.7843 H   0  0  0  0  0  0  0  0  0  0  0  0
   -0.7369   -3.7420    2.3789 H   0  0  0  0  0  0  0  0  0  0  0  0
    2.5830    1.8065    0.6117 H   0  0  0  0  0  0  0  0  0  0  0  0
   -1.4748    2.9963   -1.2974 H   0  0  0  0  0  0  0  0  0  0  0  0
   -1.7361    5.3627   -0.6974 H   0  0  0  0  0  0  0  0  0  0  0  0
    0.2424    6.8000   -0.4147 H   0  0  0  0  0  0  0  0  0  0  0  0
    2.6360    6.9733   -0.0946 H   0  0  0  0  0  0  0  0  0  0  0  0
    3.6681    5.5441   -0.2475 H   0  0  0  0  0  0  0  0  0  0  0  0
    2.5256    7.1517   -2.5831 H   0  0  0  0  0  0  0  0  0  0  0  0
    4.1981    7.2068   -2.0163 H   0  0  0  0  0  0  0  0  0  0  0  0
    3.5526    5.7258   -2.7329 H   0  0  0  0  0  0  0  0  0  0  0  0
    2.7671    3.4887   -1.3254 H   0  0  0  0  0  0  0  0  0  0  0  0
    1.3804    3.0265   -3.9445 H   0  0  0  0  0  0  0  0  0  0  0  0
    3.1953    2.7022   -5.5717 H   0  0  0  0  0  0  0  0  0  0  0  0
    4.8753    0.9341   -5.2180 H   0  0  0  0  0  0  0  0  0  0  0  0
    5.9386   -0.6121   -3.6547 H   0  0  0  0  0  0  0  0  0  0  0  0
    5.1516   -1.0333   -2.1262 H   0  0  0  0  0  0  0  0  0  0  0  0
    3.5156   -2.4541   -3.3612 H   0  0  0  0  0  0  0  0  0  0  0  0
    5.1738   -2.9762   -3.6766 H   0  0  0  0  0  0  0  0  0  0  0  0
    4.2964   -2.0329   -4.8858 H   0  0  0  0  0  0  0  0  0  0  0  0
    2.8966   -0.2246   -1.6255 H   0  0  0  0  0  0  0  0  0  0  0  0
    5.0080    0.7562    6.6123 H   0  0  0  0  0  0  0  0  0  0  0  0
    3.6503   -2.2689    8.7615 H   0  0  0  0  0  0  0  0  0  0  0  0
    7.3766    2.5134   10.4342 H   0  0  0  0  0  0  0  0  0  0  0  0
    8.1702    2.4853   12.8019 H   0  0  0  0  0  0  0  0  0  0  0  0
    6.2199   -1.2596   13.4635 H   0  0  0  0  0  0  0  0  0  0  0  0
  1  2  2  0  0  0  0
  2  3  1  0  0  0  0
  3  4  2  0  0  0  0
  3  5  1  0  0  0  0
  5  6  2  0  0  0  0
  6  7  1  0  0  0  0
  7  8  2  0  0  0  0
  8  9  1  0  0  0  0
  9 10  2  0  0  0  0
 10 11  1  0  0  0  0
 11 12  2  0  0  0  0
 12 13  1  0  0  0  0
 13 14  3  0  0  0  0
 12 15  1  0  0  0  0
 15 16  3  0  0  0  0
  8 17  1  0  0  0  0
 17 18  1  0  0  0  0
 18 19  1  0  0  0  0
 19 20  2  0  0  0  0
 20 21  1  0  0  0  0
 21 22  1  0  0  0  0
 21 23  1  0  0  0  0
  1 24  1  0  0  0  0
 24 25  2  0  0  0  0
 25 26  1  0  0  0  0
 26 27  1  0  0  0  0
 27 28  1  0  0  0  0
 28 29  1  0  0  0  0
 29 30  2  0  0  0  0
 30 31  1  0  0  0  0
 31 32  1  0  0  0  0
 32 33  1  0  0  0  0
 33 34  2  0  0  0  0
 34 35  1  0  0  0  0
 35 36  2  0  0  0  0
 36 37  1  0  0  0  0
 37 38  1  0  0  0  0
 38 39  1  0  0  0  0
 37 40  2  0  0  0  0
 32 41  1  0  0  0  0
 41 42  2  0  0  0  0
 42 43  1  0  0  0  0
 43 44  2  0  0  0  0
 44 45  1  0  0  0  0
 45 46  1  0  0  0  0
 46 47  1  0  0  0  0
 45 48  2  0  0  0  0
 32 49  1  0  0  0  0
 49 50  2  0  0  0  0
 50 51  1  0  0  0  0
 51 52  1  0  0  0  0
 52 53  2  0  0  0  0
 53 54  1  0  0  0  0
 54 55  1  0  0  0  0
 55 56  2  0  0  0  0
 56 57  1  0  0  0  0
 57 58  2  0  0  0  0
 58 59  1  0  0  0  0
 59 60  1  0  0  0  0
 60 61  1  0  0  0  0
 59 62  2  0  0  0  0
 54 63  1  0  0  0  0
 63 64  2  0  0  0  0
 64 65  1  0  0  0  0
 65 66  2  0  0  0  0
 66 67  1  0  0  0  0
 67 68  1  0  0  0  0
 68 69  1  0  0  0  0
 67 70  2  0  0  0  0
 54 71  1  0  0  0  0
 71 72  1  0  0  0  0
 72 73  1  0  0  0  0
 50 74  1  0  0  0  0
 74 75  1  0  0  0  0
 75 76  1  0  0  0  0
 76 77  2  0  0  0  0
 77 78  1  0  0  0  0
 78 79  1  0  0  0  0
 77 80  1  0  0  0  0
 80 81  2  0  0  0  0
 81 82  1  0  0  0  0
 82 83  2  0  0  0  0
 82 84  1  0  0  0  0
 84 85  2  0  0  0  0
 85 86  1  0  0  0  0
 86 87  2  0  0  0  0
 87 88  1  0  0  0  0
 87 89  1  0  0  0  0
 89 90  2  0  0  0  0
 90 91  1  0  0  0  0
 91 92  2  0  0  0  0
 92 93  1  0  0  0  0
 93 94  3  0  0  0  0
 92 95  1  0  0  0  0
 95 96  3  0  0  0  0
 11  2  1  0  0  0  0
 23 17  1  0  0  0  0
 73 24  1  0  0  0  0
 79 75  2  0  0  0  0
 91 81  1  0  0  0  0
 10  5  1  0  0  0  0
 22 18  1  0  0  0  0
 72 26  2  0  0  0  0
 90 84  1  0  0  0  0
 23  7  1  0  0  0  0
 71 28  2  0  0  0  0
 53 29  1  0  0  0  0
 62 55  1  0  0  0  0
 70 63  1  0  0  0  0
 51 31  2  0  0  0  0
 40 33  1  0  0  0  0
 48 41  1  0  0  0  0
 79 49  1  0  0  0  0
  1 97  1  0  0  0  0
  6 98  1  0  0  0  0
  9 99  1  0  0  0  0
 17100  1  0  0  0  0
 18101  1  0  0  0  0
 19102  1  0  0  0  0
 20103  1  0  0  0  0
 21104  1  0  0  0  0
 22105  1  0  0  0  0
 22106  1  0  0  0  0
 23107  1  0  0  0  0
 25108  1  0  0  0  0
 30109  1  0  0  0  0
 34110  1  0  0  0  0
 35111  1  0  0  0  0
 36112  1  0  0  0  0
 38113  1  0  0  0  0
 38114  1  0  0  0  0
 39115  1  0  0  0  0
 39116  1  0  0  0  0
 39117  1  0  0  0  0
 40118  1  0  0  0  0
 42119  1  0  0  0  0
 43120  1  0  0  0  0
 44121  1  0  0  0  0
 46122  1  0  0  0  0
 46123  1  0  0  0  0
 47124  1  0  0  0  0
 47125  1  0  0  0  0
 47126  1  0  0  0  0
 48127  1  0  0  0  0
 52128  1  0  0  0  0
 56129  1  0  0  0  0
 57130  1  0  0  0  0
 58131  1  0  0  0  0
 60132  1  0  0  0  0
 60133  1  0  0  0  0
 61134  1  0  0  0  0
 61135  1  0  0  0  0
 61136  1  0  0  0  0
 62137  1  0  0  0  0
 64138  1  0  0  0  0
 65139  1  0  0  0  0
 66140  1  0  0  0  0
 68141  1  0  0  0  0
 68142  1  0  0  0  0
 69143  1  0  0  0  0
 69144  1  0  0  0  0
 69145  1  0  0  0  0
 70146  1  0  0  0  0
 76147  1  0  0  0  0
 80148  1  0  0  0  0
 85149  1  0  0  0  0
 86150  1  0  0  0  0
 89151  1  0  0  0  0
M  END
