
  xtb     02022213483D
 energy: -202.492644962554 gnorm: 0.000169499551 xtb: 6.4.1 (unknown)
113127  0     0  0            999 V2000
    1.4369   -6.8468   -0.9731 C   0  0  0  0  0  0  0  0  0  0  0  0
    1.1767   -7.2598    0.2959 C   0  0  0  0  0  0  0  0  0  0  0  0
    0.5931   -8.6069    0.5336 C   0  0  0  0  0  0  0  0  0  0  0  0
    0.4991   -9.5058   -0.2721 O   0  0  0  0  0  0  0  0  0  0  0  0
    0.1157   -8.5846    1.9297 C   0  0  0  0  0  0  0  0  0  0  0  0
   -0.5932   -9.5832    2.5952 C   0  0  0  0  0  0  0  0  0  0  0  0
   -0.9045   -9.2763    3.8979 C   0  0  0  0  0  0  0  0  0  0  0  0
   -0.5529   -8.0585    4.4967 C   0  0  0  0  0  0  0  0  0  0  0  0
    0.1456   -7.0641    3.8546 C   0  0  0  0  0  0  0  0  0  0  0  0
    0.4868   -7.3640    2.5330 C   0  0  0  0  0  0  0  0  0  0  0  0
    1.2816   -6.5976    1.5775 C   0  0  0  0  0  0  0  0  0  0  0  0
    2.1858   -5.6190    1.9023 C   0  0  0  0  0  0  0  0  0  0  0  0
    2.3067   -5.0400    3.1800 C   0  0  0  0  0  0  0  0  0  0  0  0
    2.4332   -4.5103    4.1911 N   0  0  0  0  0  0  0  0  0  0  0  0
    3.1706   -5.1514    1.0074 C   0  0  0  0  0  0  0  0  0  0  0  0
    4.0240   -4.7897    0.3296 N   0  0  0  0  0  0  0  0  0  0  0  0
   -1.1789   -8.4345    5.8162 C   0  0  0  0  0  0  0  0  0  0  0  0
   -0.2079   -8.8653    6.9361 C   0  0  0  0  0  0  0  0  0  0  0  0
   -1.0876   -9.6179    7.9080 C   0  0  0  0  0  0  0  0  0  0  0  0
   -1.4165  -10.7727    7.3433 C   0  0  0  0  0  0  0  0  0  0  0  0
   -0.7646  -10.8200    5.9801 C   0  0  0  0  0  0  0  0  0  0  0  0
    0.5238  -10.0420    6.2775 C   0  0  0  0  0  0  0  0  0  0  0  0
   -1.5664   -9.7940    5.1508 C   0  0  0  0  0  0  0  0  0  0  0  0
    1.6228   -5.5328   -1.4641 C   0  0  0  0  0  0  0  0  0  0  0  0
    2.2788   -5.1724   -2.6310 C   0  0  0  0  0  0  0  0  0  0  0  0
    2.9482   -6.1155   -3.5753 C   0  0  0  0  0  0  0  0  0  0  0  0
    2.0133   -6.4541   -4.7394 C   0  0  0  0  0  0  0  0  0  0  0  0
    2.2491   -3.7872   -2.8274 C   0  0  0  0  0  0  0  0  0  0  0  0
    2.9502   -2.7635   -4.0566 S   0  0  0  0  0  0  0  0  0  0  0  0
    2.2982   -1.3886   -3.2435 C   0  0  0  0  0  0  0  0  0  0  0  0
    2.3289    0.0100   -3.3450 C   0  0  0  0  0  0  0  0  0  0  0  0
    3.0687    0.8309   -4.2351 C   0  0  0  0  0  0  0  0  0  0  0  0
    3.0580    2.2298   -4.0111 C   0  0  0  0  0  0  0  0  0  0  0  0
    3.7990    3.0557   -4.7582 N   0  0  0  0  0  0  0  0  0  0  0  0
    4.5166    2.5056   -5.7135 C   0  0  0  0  0  0  0  0  0  0  0  0
    4.5061    1.1260   -5.9524 C   0  0  0  0  0  0  0  0  0  0  0  0
    3.7957    0.2947   -5.2217 N   0  0  0  0  0  0  0  0  0  0  0  0
    2.2000    2.7348   -2.9998 C   0  0  0  0  0  0  0  0  0  0  0  0
    1.8983    4.0661   -2.6743 C   0  0  0  0  0  0  0  0  0  0  0  0
    2.3403    5.6598   -3.1656 S   0  0  0  0  0  0  0  0  0  0  0  0
    1.1235    6.3022   -2.0854 C   0  0  0  0  0  0  0  0  0  0  0  0
    0.6747    7.6004   -1.8361 C   0  0  0  0  0  0  0  0  0  0  0  0
    1.2802    8.8112   -2.4645 C   0  0  0  0  0  0  0  0  0  0  0  0
    2.4549    9.3146   -1.6209 C   0  0  0  0  0  0  0  0  0  0  0  0
   -0.3975    7.6061   -0.9483 C   0  0  0  0  0  0  0  0  0  0  0  0
   -0.7847    5.9840   -0.3666 S   0  0  0  0  0  0  0  0  0  0  0  0
    0.4357    5.3064   -1.3749 C   0  0  0  0  0  0  0  0  0  0  0  0
    0.8865    4.0300   -1.7076 C   0  0  0  0  0  0  0  0  0  0  0  0
    0.5759    2.7309   -1.3930 N   0  0  0  0  0  0  0  0  0  0  0  0
    1.3777    1.9157   -2.1747 C   0  0  0  0  0  0  0  0  0  0  0  0
    1.5482    0.5141   -2.2660 C   0  0  0  0  0  0  0  0  0  0  0  0
    1.1087   -0.5514   -1.5057 N   0  0  0  0  0  0  0  0  0  0  0  0
    1.5604   -1.7020   -2.0956 C   0  0  0  0  0  0  0  0  0  0  0  0
    1.5442   -3.0774   -1.8467 C   0  0  0  0  0  0  0  0  0  0  0  0
    0.9198   -4.1399   -0.6400 S   0  0  0  0  0  0  0  0  0  0  0  0
    0.5679   -0.5919   -0.1665 C   0  0  0  0  0  0  0  0  0  0  0  0
   -0.8905   -1.0496   -0.1547 C   0  0  0  0  0  0  0  0  0  0  0  0
   -0.7261    2.4755   -0.8134 C   0  0  0  0  0  0  0  0  0  0  0  0
   -1.8284    2.6010   -1.8643 C   0  0  0  0  0  0  0  0  0  0  0  0
   -1.0979    8.7342   -0.4803 C   0  0  0  0  0  0  0  0  0  0  0  0
   -2.3364    8.7939    0.0941 C   0  0  0  0  0  0  0  0  0  0  0  0
   -2.7034    9.9598    0.9332 C   0  0  0  0  0  0  0  0  0  0  0  0
   -2.1059   11.0072    1.0305 O   0  0  0  0  0  0  0  0  0  0  0  0
   -3.9223    9.5377    1.6623 C   0  0  0  0  0  0  0  0  0  0  0  0
   -4.6198   10.2072    2.6461 C   0  0  0  0  0  0  0  0  0  0  0  0
   -5.7347    9.5897    3.2008 C   0  0  0  0  0  0  0  0  0  0  0  0
   -6.6296   10.3926    4.4275 Cl  0  0  0  0  0  0  0  0  0  0  0  0
   -6.1301    8.3206    2.7651 C   0  0  0  0  0  0  0  0  0  0  0  0
   -7.5025    7.5654    3.4694 Cl  0  0  0  0  0  0  0  0  0  0  0  0
   -5.4316    7.6525    1.7651 C   0  0  0  0  0  0  0  0  0  0  0  0
   -4.3219    8.2664    1.2112 C   0  0  0  0  0  0  0  0  0  0  0  0
   -3.4301    7.8509    0.1304 C   0  0  0  0  0  0  0  0  0  0  0  0
   -3.7384    6.9222   -0.8313 C   0  0  0  0  0  0  0  0  0  0  0  0
   -4.8364    6.0438   -0.7606 C   0  0  0  0  0  0  0  0  0  0  0  0
   -5.6874    5.2730   -0.7410 N   0  0  0  0  0  0  0  0  0  0  0  0
   -3.0288    6.7909   -2.0433 C   0  0  0  0  0  0  0  0  0  0  0  0
   -2.5206    6.6868   -3.0678 N   0  0  0  0  0  0  0  0  0  0  0  0
    1.4272   -7.6340   -1.7209 H   0  0  0  0  0  0  0  0  0  0  0  0
   -0.8505  -10.5052    2.0979 H   0  0  0  0  0  0  0  0  0  0  0  0
    0.4048   -6.1270    4.3194 H   0  0  0  0  0  0  0  0  0  0  0  0
   -1.9745   -7.7814    6.1697 H   0  0  0  0  0  0  0  0  0  0  0  0
    0.3998   -8.0626    7.3446 H   0  0  0  0  0  0  0  0  0  0  0  0
   -1.4139   -9.2227    8.8520 H   0  0  0  0  0  0  0  0  0  0  0  0
   -2.0726  -11.5347    7.7212 H   0  0  0  0  0  0  0  0  0  0  0  0
   -0.6642  -11.7991    5.5196 H   0  0  0  0  0  0  0  0  0  0  0  0
    1.0941   -9.7705    5.3911 H   0  0  0  0  0  0  0  0  0  0  0  0
    1.1696  -10.5685    6.9781 H   0  0  0  0  0  0  0  0  0  0  0  0
   -2.6206  -10.0497    5.0617 H   0  0  0  0  0  0  0  0  0  0  0  0
    3.2446   -7.0265   -3.0562 H   0  0  0  0  0  0  0  0  0  0  0  0
    3.8464   -5.6332   -3.9654 H   0  0  0  0  0  0  0  0  0  0  0  0
    1.7355   -5.5500   -5.2760 H   0  0  0  0  0  0  0  0  0  0  0  0
    1.1072   -6.9343   -4.3765 H   0  0  0  0  0  0  0  0  0  0  0  0
    2.5102   -7.1290   -5.4310 H   0  0  0  0  0  0  0  0  0  0  0  0
    5.1159    3.1791   -6.3103 H   0  0  0  0  0  0  0  0  0  0  0  0
    5.0882    0.6851   -6.7496 H   0  0  0  0  0  0  0  0  0  0  0  0
    1.6424    8.5406   -3.4580 H   0  0  0  0  0  0  0  0  0  0  0  0
    0.5338    9.5980   -2.5716 H   0  0  0  0  0  0  0  0  0  0  0  0
    3.2137    8.5410   -1.5305 H   0  0  0  0  0  0  0  0  0  0  0  0
    2.1214    9.5909   -0.6232 H   0  0  0  0  0  0  0  0  0  0  0  0
    2.9025   10.1861   -2.0907 H   0  0  0  0  0  0  0  0  0  0  0  0
    0.6986    0.3860    0.2991 H   0  0  0  0  0  0  0  0  0  0  0  0
    1.1642   -1.3095    0.4086 H   0  0  0  0  0  0  0  0  0  0  0  0
   -1.2919   -0.9776    0.8523 H   0  0  0  0  0  0  0  0  0  0  0  0
   -1.5033   -0.4508   -0.8245 H   0  0  0  0  0  0  0  0  0  0  0  0
   -0.9558   -2.0860   -0.4754 H   0  0  0  0  0  0  0  0  0  0  0  0
   -0.8786    3.2208   -0.0271 H   0  0  0  0  0  0  0  0  0  0  0  0
   -0.7610    1.4905   -0.3635 H   0  0  0  0  0  0  0  0  0  0  0  0
   -1.8273    3.5937   -2.3087 H   0  0  0  0  0  0  0  0  0  0  0  0
   -1.6828    1.8692   -2.6563 H   0  0  0  0  0  0  0  0  0  0  0  0
   -2.7981    2.4332   -1.4037 H   0  0  0  0  0  0  0  0  0  0  0  0
   -0.5609    9.6770   -0.5066 H   0  0  0  0  0  0  0  0  0  0  0  0
   -4.3079   11.1863    2.9736 H   0  0  0  0  0  0  0  0  0  0  0  0
   -5.7608    6.6751    1.4514 H   0  0  0  0  0  0  0  0  0  0  0  0
  1  2  2  0  0  0  0
  2  3  1  0  0  0  0
  3  4  2  0  0  0  0
  3  5  1  0  0  0  0
  5  6  2  0  0  0  0
  6  7  1  0  0  0  0
  7  8  2  0  0  0  0
  8  9  1  0  0  0  0
  9 10  2  0  0  0  0
 10 11  1  0  0  0  0
 11 12  2  0  0  0  0
 12 13  1  0  0  0  0
 13 14  3  0  0  0  0
 12 15  1  0  0  0  0
 15 16  3  0  0  0  0
  8 17  1  0  0  0  0
 17 18  1  0  0  0  0
 18 19  1  0  0  0  0
 19 20  2  0  0  0  0
 20 21  1  0  0  0  0
 21 22  1  0  0  0  0
 21 23  1  0  0  0  0
  1 24  1  0  0  0  0
 24 25  2  0  0  0  0
 25 26  1  0  0  0  0
 26 27  1  0  0  0  0
 25 28  1  0  0  0  0
 28 29  1  0  0  0  0
 29 30  1  0  0  0  0
 30 31  1  0  0  0  0
 31 32  2  0  0  0  0
 32 33  1  0  0  0  0
 33 34  1  0  0  0  0
 34 35  2  0  0  0  0
 35 36  1  0  0  0  0
 36 37  2  0  0  0  0
 33 38  2  0  0  0  0
 38 39  1  0  0  0  0
 39 40  1  0  0  0  0
 40 41  1  0  0  0  0
 41 42  1  0  0  0  0
 42 43  1  0  0  0  0
 43 44  1  0  0  0  0
 42 45  2  0  0  0  0
 45 46  1  0  0  0  0
 46 47  1  0  0  0  0
 47 48  1  0  0  0  0
 48 49  1  0  0  0  0
 49 50  1  0  0  0  0
 50 51  2  0  0  0  0
 51 52  1  0  0  0  0
 52 53  1  0  0  0  0
 53 54  1  0  0  0  0
 54 55  1  0  0  0  0
 52 56  1  0  0  0  0
 56 57  1  0  0  0  0
 49 58  1  0  0  0  0
 58 59  1  0  0  0  0
 45 60  1  0  0  0  0
 60 61  2  0  0  0  0
 61 62  1  0  0  0  0
 62 63  2  0  0  0  0
 62 64  1  0  0  0  0
 64 65  2  0  0  0  0
 65 66  1  0  0  0  0
 66 67  1  0  0  0  0
 66 68  2  0  0  0  0
 68 69  1  0  0  0  0
 68 70  1  0  0  0  0
 70 71  2  0  0  0  0
 71 72  1  0  0  0  0
 72 73  2  0  0  0  0
 73 74  1  0  0  0  0
 74 75  3  0  0  0  0
 73 76  1  0  0  0  0
 76 77  3  0  0  0  0
 11  2  1  0  0  0  0
 23 17  1  0  0  0  0
 55 24  1  0  0  0  0
 72 61  1  0  0  0  0
 10  5  1  0  0  0  0
 22 18  1  0  0  0  0
 54 28  2  0  0  0  0
 71 64  1  0  0  0  0
 23  7  1  0  0  0  0
 53 30  2  0  0  0  0
 51 31  1  0  0  0  0
 37 32  1  0  0  0  0
 50 38  1  0  0  0  0
 48 39  2  0  0  0  0
 47 41  2  0  0  0  0
  1 78  1  0  0  0  0
  6 79  1  0  0  0  0
  9 80  1  0  0  0  0
 17 81  1  0  0  0  0
 18 82  1  0  0  0  0
 19 83  1  0  0  0  0
 20 84  1  0  0  0  0
 21 85  1  0  0  0  0
 22 86  1  0  0  0  0
 22 87  1  0  0  0  0
 23 88  1  0  0  0  0
 26 89  1  0  0  0  0
 26 90  1  0  0  0  0
 27 91  1  0  0  0  0
 27 92  1  0  0  0  0
 27 93  1  0  0  0  0
 35 94  1  0  0  0  0
 36 95  1  0  0  0  0
 43 96  1  0  0  0  0
 43 97  1  0  0  0  0
 44 98  1  0  0  0  0
 44 99  1  0  0  0  0
 44100  1  0  0  0  0
 56101  1  0  0  0  0
 56102  1  0  0  0  0
 57103  1  0  0  0  0
 57104  1  0  0  0  0
 57105  1  0  0  0  0
 58106  1  0  0  0  0
 58107  1  0  0  0  0
 59108  1  0  0  0  0
 59109  1  0  0  0  0
 59110  1  0  0  0  0
 60111  1  0  0  0  0
 65112  1  0  0  0  0
 70113  1  0  0  0  0
M  END
