113

C         -4.60380       -4.98740       -0.59330
C         -4.67410       -4.86280       -1.94710
C         -5.93310       -5.20930       -2.65830
O         -6.85590       -5.86130       -2.22350
C         -5.83710       -4.52930       -3.96600
C         -6.82780       -4.42700       -4.94090
C         -6.45670       -3.69350       -6.04240
C         -5.19580       -3.09390       -6.16770
C         -4.20530       -3.19200       -5.22000
C         -4.56070       -3.94200       -4.09620
C         -3.77010       -4.29090       -2.91990
C         -2.40060       -4.33240       -2.86520
C         -1.54990       -3.81480       -3.85980
N         -0.80660       -3.37920       -4.61930
C         -1.69470       -4.97470       -1.82630
N         -1.08880       -5.53020       -1.02460
C         -5.52030       -2.50560       -7.51790
C         -4.91350       -3.22010       -8.74380
C         -5.76570       -2.74360       -9.89780
C         -6.95710       -3.31620       -9.78270
C         -6.93030       -4.18950       -8.54880
C         -5.46480       -4.64210       -8.57800
C         -6.92360       -3.17920       -7.38190
C         -3.73930       -4.33460        0.31280
C         -3.54720       -4.64850        1.65290
C         -4.18020       -5.79460        2.37060
C         -5.48100       -5.35040        3.04500
C         -2.67960       -3.74270        2.27260
S         -2.04930       -3.62830        3.90150
C         -1.14060       -2.23810        3.42610
C         -0.24840       -1.30810        3.97880
C          0.17780       -1.18650        5.32650
C          1.02990       -0.10690        5.65630
N          1.43800        0.09510        6.91410
C          1.01440       -0.76330        7.81660
C          0.18150       -1.83940        7.48810
N         -0.23760       -2.05100        6.25910
C          1.46230        0.74250        4.60550
C          2.36150        1.81470        4.66450
S          3.30660        2.66490        5.83420
C          3.95180        3.65950        4.53970
C          4.86140        4.70630        4.52930
C          5.55490        5.18730        5.76130
C          6.91900        4.50890        5.91670
C          5.07270        5.19080        3.22370
S          4.10720        4.32120        2.02780
C          3.44380        3.32930        3.26920
C          2.53060        2.27640        3.35470
N          1.76640        1.53330        2.49650
C          1.07830        0.59430        3.23740
C          0.13690       -0.42220        2.92780
N         -0.55230       -0.78770        1.78720
C         -1.31180       -1.88440        2.08470
C         -2.20610       -2.73110        1.42720
S         -2.86450       -2.87680       -0.15640
C         -0.62200       -0.24870        0.44910
C          0.25340       -1.04100       -0.52230
C          1.88030        1.78260        1.07840
C          1.01670        2.96510        0.64000
C          5.94900        6.23800        2.93580
C          6.29290        6.82790        1.74060
C          5.78880        6.45990        0.41850
O          4.97260        5.59850        0.13890
C          6.46820        7.35450       -0.54130
C          6.33760        7.39730       -1.91390
C          7.10010        8.34280       -2.58350
F          7.00760        8.42370       -3.92180
C          7.95660        9.20960       -1.92220
C          8.07620        9.15480       -0.54120
C          7.32630        8.22060        0.15810
C          7.23070        7.92130        1.58790
C          7.91150        8.58460        2.57750
C          7.82460        8.32240        3.96040
N          7.81110        8.17720        5.10050
C          8.80790        9.64880        2.34530
N          9.54830       10.51880        2.23130
H         -5.38460       -5.59550       -0.14830
H         -7.79020       -4.89500       -4.80510
H         -3.24090       -2.72070       -5.31740
H         -5.46810       -1.42070       -7.58780
H         -3.83790       -3.10840       -8.84910
H         -5.44290       -2.02030      -10.62340
H         -7.82840       -3.16660      -10.39290
H         -7.69230       -4.96110       -8.47910
H         -5.24560       -5.27120       -9.43900
H         -5.13590       -5.14230       -7.66890
H         -7.80740       -2.54400       -7.36440
H         -4.37930       -6.61240        1.67800
H         -3.48500       -6.15000        3.13350
H         -5.92720       -6.18580        3.57770
H         -6.19330       -4.98950        2.30640
H         -5.28370       -4.55120        3.75540
H          1.34630       -0.59350        8.83150
H         -0.15540       -2.54320        8.23650
H          4.93270        4.93510        6.62220
H          5.68910        6.26970        5.74120
H          7.40410        4.86280        6.82170
H          6.79930        3.43000        5.98200
H          7.56200        4.73700        5.06980
H         -0.36630        0.80680        0.45960
H         -1.66530       -0.33190        0.12580
H         -0.10410       -2.06470       -0.60010
H          0.21490       -0.58970       -1.50970
H          1.28870       -1.07570       -0.18940
H          1.64450        0.87750        0.52590
H          2.92820        2.02860        0.87850
H          1.39830        3.88420        1.07630
H          1.04810        3.06260       -0.44130
H         -0.01760        2.84390        0.95670
H          6.43600        6.63950        3.81380
H          5.67570        6.72850       -2.44040
H          8.52610        9.92420       -2.49510
H          8.74570        9.83400       -0.04030
