155

C         -7.25040       -1.51740        2.47630
C         -8.49950       -1.43150        1.92930
C         -8.90050       -0.89650        0.60590
O         -8.25640       -0.21950       -0.16960
C        -10.28130       -1.36260        0.38640
C        -11.04170       -1.18730       -0.76860
C        -12.29230       -1.75170       -0.70490
C        -12.75330       -2.44480        0.42330
C        -12.01540       -2.62180        1.56900
C        -10.74010       -2.04810        1.52770
C         -9.68320       -2.02700        2.53370
C         -9.82430       -2.42720        3.83630
C         -8.84160       -2.32030        4.84440
N         -8.11270       -2.25100        5.72930
C        -11.01170       -2.96380        4.37830
N        -11.94110       -3.40660        4.88660
C        -14.08720       -2.75070       -0.21130
C        -15.28480       -1.89480        0.25290
C        -16.30560       -2.07510       -0.84740
C        -15.86990       -1.41700       -1.91400
C        -14.54690       -0.78090       -1.55280
C        -14.79660       -0.47670       -0.07000
C        -13.57400       -1.97610       -1.46760
C         -6.00380       -1.02910        2.03300
C         -5.64530       -0.17970        1.00030
C         -4.27160        0.00960        0.93820
S         -3.24280        0.92370       -0.12740
C         -1.86430        0.35120        0.74670
C         -0.44860        0.50200        0.61770
C          0.31300        1.23670       -0.28690
C          1.68080        1.13610       -0.18380
C          2.73870        1.81260       -1.03800
C          2.73340        1.38500       -2.49440
C          3.53520        2.07410       -3.40110
C          3.58450        1.69420       -4.72370
C          2.82650        0.61590       -5.17740
S          2.93200        0.26470       -6.90510
C          2.19090       -1.39350       -7.09820
C          3.06330       -2.48530       -6.50850
C          2.03010       -0.07660       -4.27770
C          1.99660        0.30170       -2.94610
C          2.58630        3.31710       -0.90390
C          1.74960        4.01260       -1.76690
C          1.58960        5.38010       -1.65280
C          2.27570        6.07950       -0.66920
S          2.14430        7.82720       -0.43800
C          1.77340        8.46120       -2.11230
C          2.89400        8.17470       -3.09230
C          3.09030        5.38380        0.21800
C          3.23680        4.01660        0.10500
C          3.99650        1.28840       -0.39810
C          3.69110        0.43690        0.65110
C          2.27610        0.33460        0.81960
C          1.51370       -0.37930        1.74100
C          0.14650       -0.29660        1.62330
C         -0.91280       -0.97190        2.47880
C         -0.75470       -0.47500        3.90420
C         -1.43680        0.64790        4.35690
C         -1.24160        1.11740        5.63880
C         -0.35450        0.47600        6.49920
S         -0.21390        1.15170        8.12430
C          1.33560        0.44900        8.78970
C          2.56240        0.98190        8.07450
C          0.32720       -0.64810        6.05330
C          0.13050       -1.10930        4.76540
C         -0.90240       -2.48680        2.40570
C         -0.22360       -3.16930        1.40770
C         -0.26710       -4.55050        1.33620
C         -0.99640       -5.27230        2.26970
S         -1.14060       -7.03360        2.26950
C          0.32980       -7.61170        1.35080
C          1.62250       -7.29450        2.07730
C         -1.70080       -4.58990        3.25900
C         -1.65710       -3.21430        3.32170
C         -2.16970       -0.48480        1.80800
C         -3.54290       -0.68810        1.92380
S         -4.59290       -1.57650        2.95180
S          5.07440       -0.24570        1.43770
C          6.10240        0.63510        0.33620
C          7.46810        0.74240        0.18040
C          7.81850        1.60750       -0.86260
S          6.39860        2.28840       -1.65270
C          5.36990        1.41130       -0.59040
C          9.15660        1.85560       -1.19090
C          9.70650        2.67030       -2.15130
C          8.95710        3.52130       -3.07970
O          7.74970        3.62680       -3.18250
C          9.97070        4.24020       -3.87930
C         11.25630        3.83980       -3.47040
C         12.37500        4.38620       -4.07840
C         12.19360        5.32420       -5.08460
C         10.92490        5.71490       -5.48370
Br        10.74550        6.99790       -6.85870
C          9.78130        5.17520       -4.88380
Cl         8.21230        5.65340       -5.37090
C         11.12120        2.85070       -2.40020
C         12.16840        2.22020       -1.77800
C         12.06160        1.25080       -0.75860
N         12.06800        0.45380        0.06880
C         13.52700        2.44930       -2.08250
N         14.65000        2.58790       -2.27570
H         -7.17110       -2.09100        3.39300
H        -10.64300       -0.65480       -1.61780
H        -12.38010       -3.16710        2.42320
H        -14.33240       -3.80610       -0.31370
H        -15.61820       -2.09180        1.26800
H        -17.18300       -2.68830       -0.75710
H        -16.31040       -1.37070       -2.89270
H        -14.20910        0.03750       -2.18280
H        -13.90500       -0.17850        0.47860
H        -15.57710        0.26900        0.07110
H        -13.47790       -2.51460       -2.40870
H         -6.35970        0.26180        0.33070
H         -0.15980        1.84690       -1.04080
H          4.12240        2.91660       -3.06740
H          4.20790        2.23000       -5.42240
H          1.19100       -1.37910       -6.66600
H          2.09950       -1.51030       -8.17810
H          2.59500       -3.45600       -6.65870
H          3.21290       -2.33140       -5.44180
H          4.03660       -2.48890       -6.99290
H          1.42180       -0.90940       -4.59320
H          1.37540       -0.25650       -2.26100
H          1.22220        3.48430       -2.54780
H          0.92520        5.88830       -2.33400
H          0.82070        8.04750       -2.44120
H          1.65180        9.53330       -1.95860
H          3.82490        8.61100       -2.73740
H          2.65510        8.60430       -4.06330
H          3.04040        7.10290       -3.21280
H          3.60910        5.92740        0.99250
H          3.87410        3.49450        0.80320
H          1.98720       -0.97870        2.50310
H         -2.12480        1.16480        3.70470
H         -1.77530        1.98750        5.98890
H          1.27000       -0.63780        8.75120
H          1.32950        0.75910        9.83460
H          2.54340        0.71940        7.01860
H          3.46250        0.56410        8.52160
H          2.60280        2.06550        8.15690
H          1.00770       -1.18160        6.69780
H          0.66390       -1.98930        4.43570
H          0.34860       -2.62420        0.67110
H          0.26580       -5.04690        0.54030
H          0.30370       -7.18920        0.34680
H          0.17820       -8.68850        1.27750
H          1.75390       -6.21970        2.18580
H          2.46780       -7.69430        1.52030
H          1.61510       -7.74150        3.06870
H         -2.28060       -5.15190        3.97460
H         -2.20240       -2.69720        4.09740
H          8.20010        0.23120        0.77960
H          9.85170        1.30770       -0.56630
H         13.37410        4.10510       -3.79150
H         13.05260        5.76200       -5.56940
