
  xtb     02022218513D
 energy: -252.997969346924 gnorm: 0.000175164058 xtb: 6.4.1 (unknown)
152172  0     0  0            999 V2000
   -2.6302    8.4383    2.5256 C   0  0  0  0  0  0  0  0  0  0  0  0
   -3.7460    8.8869    1.8892 C   0  0  0  0  0  0  0  0  0  0  0  0
   -3.7233   10.2433    1.2724 C   0  0  0  0  0  0  0  0  0  0  0  0
   -3.0211   11.1754    1.5889 O   0  0  0  0  0  0  0  0  0  0  0  0
   -4.6702   10.1582    0.1417 C   0  0  0  0  0  0  0  0  0  0  0  0
   -4.8679   11.1000   -0.8658 C   0  0  0  0  0  0  0  0  0  0  0  0
   -5.7607   10.7059   -1.8337 C   0  0  0  0  0  0  0  0  0  0  0  0
   -6.4170    9.4677   -1.8048 C   0  0  0  0  0  0  0  0  0  0  0  0
   -6.2511    8.5374   -0.8066 C   0  0  0  0  0  0  0  0  0  0  0  0
   -5.3423    8.9175    0.1824 C   0  0  0  0  0  0  0  0  0  0  0  0
   -4.9200    8.2074    1.3861 C   0  0  0  0  0  0  0  0  0  0  0  0
   -5.6440    7.2535    2.0503 C   0  0  0  0  0  0  0  0  0  0  0  0
   -6.7849    6.6207    1.5212 C   0  0  0  0  0  0  0  0  0  0  0  0
   -7.6937    6.0491    1.1140 N   0  0  0  0  0  0  0  0  0  0  0  0
   -5.3641    6.8842    3.3842 C   0  0  0  0  0  0  0  0  0  0  0  0
   -5.2073    6.6179    4.4894 N   0  0  0  0  0  0  0  0  0  0  0  0
   -7.1276    9.7235   -3.1094 C   0  0  0  0  0  0  0  0  0  0  0  0
   -6.5757    9.0231   -4.3765 C   0  0  0  0  0  0  0  0  0  0  0  0
   -5.1056    8.7858   -4.1342 C   0  0  0  0  0  0  0  0  0  0  0  0
   -4.4952    9.9630   -4.1616 C   0  0  0  0  0  0  0  0  0  0  0  0
   -5.5417   11.0179   -4.4216 C   0  0  0  0  0  0  0  0  0  0  0  0
   -6.5015   10.2290   -5.3267 C   0  0  0  0  0  0  0  0  0  0  0  0
   -6.4044   11.1069   -3.1381 C   0  0  0  0  0  0  0  0  0  0  0  0
   -2.1616    7.1173    2.7033 C   0  0  0  0  0  0  0  0  0  0  0  0
   -0.8728    6.7932    3.1048 C   0  0  0  0  0  0  0  0  0  0  0  0
   -0.6002    5.4371    2.9674 C   0  0  0  0  0  0  0  0  0  0  0  0
    0.8188    4.4469    3.1794 S   0  0  0  0  0  0  0  0  0  0  0  0
   -0.0635    3.0754    2.5971 C   0  0  0  0  0  0  0  0  0  0  0  0
    0.2374    1.7100    2.2900 C   0  0  0  0  0  0  0  0  0  0  0  0
    1.4221    0.9859    2.3811 C   0  0  0  0  0  0  0  0  0  0  0  0
    1.3933   -0.3129    1.9321 C   0  0  0  0  0  0  0  0  0  0  0  0
    2.5345   -1.3182    1.9297 C   0  0  0  0  0  0  0  0  0  0  0  0
    2.8899   -1.7465    3.3264 C   0  0  0  0  0  0  0  0  0  0  0  0
    3.8867   -2.5911    3.7010 C   0  0  0  0  0  0  0  0  0  0  0  0
    3.9015   -2.8356    5.0926 C   0  0  0  0  0  0  0  0  0  0  0  0
    2.9176   -2.1851    5.7674 C   0  0  0  0  0  0  0  0  0  0  0  0
    2.6047   -2.2199    7.2239 C   0  0  0  0  0  0  0  0  0  0  0  0
    1.2856   -2.9455    7.4944 C   0  0  0  0  0  0  0  0  0  0  0  0
    1.9369   -1.2459    4.6838 S   0  0  0  0  0  0  0  0  0  0  0  0
    3.7330   -0.7822    1.2067 C   0  0  0  0  0  0  0  0  0  0  0  0
    4.7926   -0.1007    1.7140 C   0  0  0  0  0  0  0  0  0  0  0  0
    5.7130    0.3009    0.7191 C   0  0  0  0  0  0  0  0  0  0  0  0
    5.3516   -0.0709   -0.5362 C   0  0  0  0  0  0  0  0  0  0  0  0
    6.0471    0.1997   -1.8256 C   0  0  0  0  0  0  0  0  0  0  0  0
    5.3174    1.2729   -2.6359 C   0  0  0  0  0  0  0  0  0  0  0  0
    3.8434   -0.9303   -0.5172 S   0  0  0  0  0  0  0  0  0  0  0  0
    1.8904   -2.4733    1.2081 C   0  0  0  0  0  0  0  0  0  0  0  0
    0.5616   -2.1963    0.9347 C   0  0  0  0  0  0  0  0  0  0  0  0
    0.2236   -0.8781    1.3757 C   0  0  0  0  0  0  0  0  0  0  0  0
   -0.9701   -0.1650    1.3128 C   0  0  0  0  0  0  0  0  0  0  0  0
   -0.9489    1.1250    1.7845 C   0  0  0  0  0  0  0  0  0  0  0  0
   -2.1099    2.0982    1.8943 C   0  0  0  0  0  0  0  0  0  0  0  0
   -2.9717    1.7279    3.0800 C   0  0  0  0  0  0  0  0  0  0  0  0
   -4.1040    2.3541    3.4968 C   0  0  0  0  0  0  0  0  0  0  0  0
   -4.6209    1.8084    4.6928 C   0  0  0  0  0  0  0  0  0  0  0  0
   -3.8804    0.7806    5.1839 C   0  0  0  0  0  0  0  0  0  0  0  0
   -4.0905   -0.0109    6.4287 C   0  0  0  0  0  0  0  0  0  0  0  0
   -3.0189    0.3023    7.4745 C   0  0  0  0  0  0  0  0  0  0  0  0
   -2.5097    0.4598    4.1654 S   0  0  0  0  0  0  0  0  0  0  0  0
   -2.9653    2.2270    0.6745 C   0  0  0  0  0  0  0  0  0  0  0  0
   -4.0056    1.4351    0.3018 C   0  0  0  0  0  0  0  0  0  0  0  0
   -4.6590    1.8953   -0.8629 C   0  0  0  0  0  0  0  0  0  0  0  0
   -4.1172    3.0314   -1.3739 C   0  0  0  0  0  0  0  0  0  0  0  0
   -4.5969    3.8609   -2.5142 C   0  0  0  0  0  0  0  0  0  0  0  0
   -5.2892    5.1280   -2.0040 C   0  0  0  0  0  0  0  0  0  0  0  0
   -2.7566    3.5471   -0.4289 S   0  0  0  0  0  0  0  0  0  0  0  0
   -1.3830    3.3546    2.2873 C   0  0  0  0  0  0  0  0  0  0  0  0
   -1.6918    4.6949    2.4819 C   0  0  0  0  0  0  0  0  0  0  0  0
   -3.0503    5.6946    2.1761 S   0  0  0  0  0  0  0  0  0  0  0  0
   -0.2645   -3.4652    0.1014 S   0  0  0  0  0  0  0  0  0  0  0  0
    1.2074   -4.3958    0.0928 C   0  0  0  0  0  0  0  0  0  0  0  0
    1.5522   -5.6297   -0.4403 C   0  0  0  0  0  0  0  0  0  0  0  0
    2.8857   -5.9347   -0.2221 C   0  0  0  0  0  0  0  0  0  0  0  0
    3.7062   -4.6608    0.6950 S   0  0  0  0  0  0  0  0  0  0  0  0
    2.2679   -3.7269    0.7387 C   0  0  0  0  0  0  0  0  0  0  0  0
    3.6876   -7.0334   -0.5892 C   0  0  0  0  0  0  0  0  0  0  0  0
    3.4418   -8.1015   -1.4068 C   0  0  0  0  0  0  0  0  0  0  0  0
    2.2553   -8.3719   -2.2522 C   0  0  0  0  0  0  0  0  0  0  0  0
    1.1688   -7.8293   -2.2370 O   0  0  0  0  0  0  0  0  0  0  0  0
    2.6495   -9.4640   -3.1605 C   0  0  0  0  0  0  0  0  0  0  0  0
    1.8855   -9.9970   -4.1963 C   0  0  0  0  0  0  0  0  0  0  0  0
    2.5186  -10.9895   -4.9040 C   0  0  0  0  0  0  0  0  0  0  0  0
    3.8172  -11.4227   -4.6027 C   0  0  0  0  0  0  0  0  0  0  0  0
    4.5763  -10.9138   -3.5762 C   0  0  0  0  0  0  0  0  0  0  0  0
    3.9498   -9.9015   -2.8429 C   0  0  0  0  0  0  0  0  0  0  0  0
    4.4299   -9.1287   -1.7015 C   0  0  0  0  0  0  0  0  0  0  0  0
    5.5785   -9.3883   -1.0003 C   0  0  0  0  0  0  0  0  0  0  0  0
    6.0065   -8.7194    0.1668 C   0  0  0  0  0  0  0  0  0  0  0  0
    6.4241   -8.2514    1.1293 N   0  0  0  0  0  0  0  0  0  0  0  0
    6.4925  -10.4144   -1.3212 C   0  0  0  0  0  0  0  0  0  0  0  0
    7.2825  -11.2233   -1.5210 N   0  0  0  0  0  0  0  0  0  0  0  0
    3.8318  -12.4208   -5.7329 C   0  0  0  0  0  0  0  0  0  0  0  0
    4.6198  -12.0474   -7.0131 C   0  0  0  0  0  0  0  0  0  0  0  0
    4.6376  -10.5406   -7.0830 C   0  0  0  0  0  0  0  0  0  0  0  0
    3.4076  -10.1336   -7.3668 C   0  0  0  0  0  0  0  0  0  0  0  0
    2.5355  -11.3583   -7.4935 C   0  0  0  0  0  0  0  0  0  0  0  0
    3.5513  -12.3547   -8.0745 C   0  0  0  0  0  0  0  0  0  0  0  0
    2.3840  -11.9409   -6.0663 C   0  0  0  0  0  0  0  0  0  0  0  0
   -1.9133    9.2107    2.7874 H   0  0  0  0  0  0  0  0  0  0  0  0
   -4.3423   12.0419   -0.8562 H   0  0  0  0  0  0  0  0  0  0  0  0
   -6.7559    7.5855   -0.7909 H   0  0  0  0  0  0  0  0  0  0  0  0
   -8.2150    9.7154   -3.0725 H   0  0  0  0  0  0  0  0  0  0  0  0
   -7.1540    8.1629   -4.7037 H   0  0  0  0  0  0  0  0  0  0  0  0
   -4.6792    7.8238   -3.9178 H   0  0  0  0  0  0  0  0  0  0  0  0
   -3.4599   10.1789   -3.9729 H   0  0  0  0  0  0  0  0  0  0  0  0
   -5.1788   11.9738   -4.7897 H   0  0  0  0  0  0  0  0  0  0  0  0
   -6.0610    9.9793   -6.2908 H   0  0  0  0  0  0  0  0  0  0  0  0
   -7.4606   10.7226   -5.4771 H   0  0  0  0  0  0  0  0  0  0  0  0
   -7.0203   12.0036   -3.1123 H   0  0  0  0  0  0  0  0  0  0  0  0
   -0.1681    7.5270    3.4513 H   0  0  0  0  0  0  0  0  0  0  0  0
    2.3204    1.4307    2.7806 H   0  0  0  0  0  0  0  0  0  0  0  0
    4.5900   -3.0206    3.0098 H   0  0  0  0  0  0  0  0  0  0  0  0
    4.6237   -3.4731    5.5707 H   0  0  0  0  0  0  0  0  0  0  0  0
    2.5360   -1.1992    7.6094 H   0  0  0  0  0  0  0  0  0  0  0  0
    3.4196   -2.7276    7.7441 H   0  0  0  0  0  0  0  0  0  0  0  0
    0.4674   -2.4396    6.9864 H   0  0  0  0  0  0  0  0  0  0  0  0
    1.3366   -3.9698    7.1323 H   0  0  0  0  0  0  0  0  0  0  0  0
    1.0763   -2.9631    8.5610 H   0  0  0  0  0  0  0  0  0  0  0  0
    4.9226    0.0991    2.7627 H   0  0  0  0  0  0  0  0  0  0  0  0
    6.6168    0.8424    0.9358 H   0  0  0  0  0  0  0  0  0  0  0  0
    7.0661    0.5289   -1.6115 H   0  0  0  0  0  0  0  0  0  0  0  0
    6.1005   -0.7192   -2.4146 H   0  0  0  0  0  0  0  0  0  0  0  0
    4.3036    0.9493   -2.8617 H   0  0  0  0  0  0  0  0  0  0  0  0
    5.8396    1.4602   -3.5707 H   0  0  0  0  0  0  0  0  0  0  0  0
    5.2656    2.2021   -2.0730 H   0  0  0  0  0  0  0  0  0  0  0  0
   -1.8647   -0.6082    0.9041 H   0  0  0  0  0  0  0  0  0  0  0  0
   -4.5591    3.1742    2.9699 H   0  0  0  0  0  0  0  0  0  0  0  0
   -5.5134    2.1752    5.1672 H   0  0  0  0  0  0  0  0  0  0  0  0
   -5.0783    0.2249    6.8295 H   0  0  0  0  0  0  0  0  0  0  0  0
   -4.0610   -1.0785    6.1954 H   0  0  0  0  0  0  0  0  0  0  0  0
   -3.0414    1.3584    7.7330 H   0  0  0  0  0  0  0  0  0  0  0  0
   -3.1891   -0.2809    8.3760 H   0  0  0  0  0  0  0  0  0  0  0  0
   -2.0319    0.0627    7.0845 H   0  0  0  0  0  0  0  0  0  0  0  0
   -4.3148    0.5658    0.8545 H   0  0  0  0  0  0  0  0  0  0  0  0
   -5.5121    1.4033   -1.2950 H   0  0  0  0  0  0  0  0  0  0  0  0
   -5.2993    3.2711   -3.1066 H   0  0  0  0  0  0  0  0  0  0  0  0
   -3.7565    4.1411   -3.1541 H   0  0  0  0  0  0  0  0  0  0  0  0
   -6.1108    4.8678   -1.3399 H   0  0  0  0  0  0  0  0  0  0  0  0
   -5.6845    5.7054   -2.8364 H   0  0  0  0  0  0  0  0  0  0  0  0
   -4.5834    5.7469   -1.4525 H   0  0  0  0  0  0  0  0  0  0  0  0
    0.8849   -6.2803   -0.9744 H   0  0  0  0  0  0  0  0  0  0  0  0
    4.6867   -6.9766   -0.1719 H   0  0  0  0  0  0  0  0  0  0  0  0
    0.8902   -9.6308   -4.3946 H   0  0  0  0  0  0  0  0  0  0  0  0
    5.5741  -11.2569   -3.3597 H   0  0  0  0  0  0  0  0  0  0  0  0
    3.9722  -13.4618   -5.4488 H   0  0  0  0  0  0  0  0  0  0  0  0
    5.5815  -12.5437   -7.1116 H   0  0  0  0  0  0  0  0  0  0  0  0
    5.5033   -9.9414   -6.8692 H   0  0  0  0  0  0  0  0  0  0  0  0
    3.0402   -9.1265   -7.4368 H   0  0  0  0  0  0  0  0  0  0  0  0
    1.5992  -11.2275   -8.0298 H   0  0  0  0  0  0  0  0  0  0  0  0
    3.8704  -12.0914   -9.0819 H   0  0  0  0  0  0  0  0  0  0  0  0
    3.2056  -13.3874   -8.0561 H   0  0  0  0  0  0  0  0  0  0  0  0
    1.5776  -12.6684   -5.9981 H   0  0  0  0  0  0  0  0  0  0  0  0
  1  2  2  0  0  0  0
  2  3  1  0  0  0  0
  3  4  2  0  0  0  0
  3  5  1  0  0  0  0
  5  6  2  0  0  0  0
  6  7  1  0  0  0  0
  7  8  2  0  0  0  0
  8  9  1  0  0  0  0
  9 10  2  0  0  0  0
 10 11  1  0  0  0  0
 11 12  2  0  0  0  0
 12 13  1  0  0  0  0
 13 14  3  0  0  0  0
 12 15  1  0  0  0  0
 15 16  3  0  0  0  0
  8 17  1  0  0  0  0
 17 18  1  0  0  0  0
 18 19  1  0  0  0  0
 19 20  2  0  0  0  0
 20 21  1  0  0  0  0
 21 22  1  0  0  0  0
 21 23  1  0  0  0  0
  1 24  1  0  0  0  0
 24 25  2  0  0  0  0
 25 26  1  0  0  0  0
 26 27  1  0  0  0  0
 27 28  1  0  0  0  0
 28 29  1  0  0  0  0
 29 30  2  0  0  0  0
 30 31  1  0  0  0  0
 31 32  1  0  0  0  0
 32 33  1  0  0  0  0
 33 34  2  0  0  0  0
 34 35  1  0  0  0  0
 35 36  2  0  0  0  0
 36 37  1  0  0  0  0
 37 38  1  0  0  0  0
 36 39  1  0  0  0  0
 32 40  1  0  0  0  0
 40 41  2  0  0  0  0
 41 42  1  0  0  0  0
 42 43  2  0  0  0  0
 43 44  1  0  0  0  0
 44 45  1  0  0  0  0
 43 46  1  0  0  0  0
 32 47  1  0  0  0  0
 47 48  2  0  0  0  0
 48 49  1  0  0  0  0
 49 50  1  0  0  0  0
 50 51  2  0  0  0  0
 51 52  1  0  0  0  0
 52 53  1  0  0  0  0
 53 54  2  0  0  0  0
 54 55  1  0  0  0  0
 55 56  2  0  0  0  0
 56 57  1  0  0  0  0
 57 58  1  0  0  0  0
 56 59  1  0  0  0  0
 52 60  1  0  0  0  0
 60 61  2  0  0  0  0
 61 62  1  0  0  0  0
 62 63  2  0  0  0  0
 63 64  1  0  0  0  0
 64 65  1  0  0  0  0
 63 66  1  0  0  0  0
 52 67  1  0  0  0  0
 67 68  1  0  0  0  0
 68 69  1  0  0  0  0
 48 70  1  0  0  0  0
 70 71  1  0  0  0  0
 71 72  1  0  0  0  0
 72 73  2  0  0  0  0
 73 74  1  0  0  0  0
 74 75  1  0  0  0  0
 73 76  1  0  0  0  0
 76 77  2  0  0  0  0
 77 78  1  0  0  0  0
 78 79  2  0  0  0  0
 78 80  1  0  0  0  0
 80 81  2  0  0  0  0
 81 82  1  0  0  0  0
 82 83  2  0  0  0  0
 83 84  1  0  0  0  0
 84 85  2  0  0  0  0
 85 86  1  0  0  0  0
 86 87  2  0  0  0  0
 87 88  1  0  0  0  0
 88 89  3  0  0  0  0
 87 90  1  0  0  0  0
 90 91  3  0  0  0  0
 83 92  1  0  0  0  0
 92 93  1  0  0  0  0
 93 94  1  0  0  0  0
 94 95  2  0  0  0  0
 95 96  1  0  0  0  0
 96 97  1  0  0  0  0
 96 98  1  0  0  0  0
 11  2  1  0  0  0  0
 23 17  1  0  0  0  0
 69 24  1  0  0  0  0
 75 71  2  0  0  0  0
 86 77  1  0  0  0  0
 98 92  1  0  0  0  0
 10  5  1  0  0  0  0
 22 18  1  0  0  0  0
 68 26  2  0  0  0  0
 85 80  1  0  0  0  0
 97 93  1  0  0  0  0
 23  7  1  0  0  0  0
 67 28  2  0  0  0  0
 98 82  1  0  0  0  0
 51 29  1  0  0  0  0
 59 53  1  0  0  0  0
 66 60  1  0  0  0  0
 49 31  2  0  0  0  0
 39 33  1  0  0  0  0
 46 40  1  0  0  0  0
 75 47  1  0  0  0  0
  1 99  1  0  0  0  0
  6100  1  0  0  0  0
  9101  1  0  0  0  0
 17102  1  0  0  0  0
 18103  1  0  0  0  0
 19104  1  0  0  0  0
 20105  1  0  0  0  0
 21106  1  0  0  0  0
 22107  1  0  0  0  0
 22108  1  0  0  0  0
 23109  1  0  0  0  0
 25110  1  0  0  0  0
 30111  1  0  0  0  0
 34112  1  0  0  0  0
 35113  1  0  0  0  0
 37114  1  0  0  0  0
 37115  1  0  0  0  0
 38116  1  0  0  0  0
 38117  1  0  0  0  0
 38118  1  0  0  0  0
 41119  1  0  0  0  0
 42120  1  0  0  0  0
 44121  1  0  0  0  0
 44122  1  0  0  0  0
 45123  1  0  0  0  0
 45124  1  0  0  0  0
 45125  1  0  0  0  0
 50126  1  0  0  0  0
 54127  1  0  0  0  0
 55128  1  0  0  0  0
 57129  1  0  0  0  0
 57130  1  0  0  0  0
 58131  1  0  0  0  0
 58132  1  0  0  0  0
 58133  1  0  0  0  0
 61134  1  0  0  0  0
 62135  1  0  0  0  0
 64136  1  0  0  0  0
 64137  1  0  0  0  0
 65138  1  0  0  0  0
 65139  1  0  0  0  0
 65140  1  0  0  0  0
 72141  1  0  0  0  0
 76142  1  0  0  0  0
 81143  1  0  0  0  0
 84144  1  0  0  0  0
 92145  1  0  0  0  0
 93146  1  0  0  0  0
 94147  1  0  0  0  0
 95148  1  0  0  0  0
 96149  1  0  0  0  0
 97150  1  0  0  0  0
 97151  1  0  0  0  0
 98152  1  0  0  0  0
M  END
