
  xtb     02022219263D
 energy: -226.365653089835 gnorm: 0.000324317299 xtb: 6.4.1 (unknown)
130146  0     0  0            999 V2000
   -6.2830    2.3913    2.8338 C   0  0  0  0  0  0  0  0  0  0  0  0
   -6.9422    1.2225    3.1192 C   0  0  0  0  0  0  0  0  0  0  0  0
   -6.5606   -0.1164    2.6649 C   0  0  0  0  0  0  0  0  0  0  0  0
   -5.5538   -0.4342    2.0516 O   0  0  0  0  0  0  0  0  0  0  0  0
   -7.6375   -1.0230    3.0939 C   0  0  0  0  0  0  0  0  0  0  0  0
   -7.7315   -2.3901    2.8460 C   0  0  0  0  0  0  0  0  0  0  0  0
   -8.8633   -2.9747    3.3612 C   0  0  0  0  0  0  0  0  0  0  0  0
   -9.8324   -2.2510    4.0681 C   0  0  0  0  0  0  0  0  0  0  0  0
   -9.7510   -0.9016    4.3195 C   0  0  0  0  0  0  0  0  0  0  0  0
   -8.6047   -0.2872    3.8086 C   0  0  0  0  0  0  0  0  0  0  0  0
   -8.1778    1.1107    3.8680 C   0  0  0  0  0  0  0  0  0  0  0  0
   -8.8345    2.1126    4.5363 C   0  0  0  0  0  0  0  0  0  0  0  0
   -8.4270    3.4609    4.6211 C   0  0  0  0  0  0  0  0  0  0  0  0
   -8.1791    4.5758    4.7492 N   0  0  0  0  0  0  0  0  0  0  0  0
  -10.0279    1.9339    5.2669 C   0  0  0  0  0  0  0  0  0  0  0  0
  -10.9961    1.8673    5.8809 N   0  0  0  0  0  0  0  0  0  0  0  0
  -10.6920   -3.4691    4.2945 C   0  0  0  0  0  0  0  0  0  0  0  0
  -10.6576   -4.1243    5.6972 C   0  0  0  0  0  0  0  0  0  0  0  0
   -9.3121   -3.7913    6.2927 C   0  0  0  0  0  0  0  0  0  0  0  0
   -8.3933   -4.4769    5.6258 C   0  0  0  0  0  0  0  0  0  0  0  0
   -9.1009   -5.2857    4.5667 C   0  0  0  0  0  0  0  0  0  0  0  0
  -10.4206   -5.5885    5.2941 C   0  0  0  0  0  0  0  0  0  0  0  0
   -9.6109   -4.2761    3.5085 C   0  0  0  0  0  0  0  0  0  0  0  0
   -5.1022    2.6172    2.1167 C   0  0  0  0  0  0  0  0  0  0  0  0
   -4.6124    3.9117    1.8609 C   0  0  0  0  0  0  0  0  0  0  0  0
   -5.3281    5.1500    2.1563 C   0  0  0  0  0  0  0  0  0  0  0  0
   -6.6647    5.3178    1.7975 C   0  0  0  0  0  0  0  0  0  0  0  0
   -7.3094    6.5053    2.0831 C   0  0  0  0  0  0  0  0  0  0  0  0
   -6.6331    7.5330    2.7166 C   0  0  0  0  0  0  0  0  0  0  0  0
   -5.2963    7.3902    3.0663 C   0  0  0  0  0  0  0  0  0  0  0  0
   -4.5339    8.5193    3.6964 C   0  0  0  0  0  0  0  0  0  0  0  0
   -3.7569    9.2926    2.6288 C   0  0  0  0  0  0  0  0  0  0  0  0
   -4.6536    6.1969    2.7774 C   0  0  0  0  0  0  0  0  0  0  0  0
   -3.3558    3.8726    1.2611 C   0  0  0  0  0  0  0  0  0  0  0  0
   -2.2790    5.1306    0.6864 S   0  0  0  0  0  0  0  0  0  0  0  0
   -1.1942    3.9026    0.1322 C   0  0  0  0  0  0  0  0  0  0  0  0
    0.0105    3.7936   -0.5741 C   0  0  0  0  0  0  0  0  0  0  0  0
    0.7962    4.7694   -1.2272 C   0  0  0  0  0  0  0  0  0  0  0  0
    1.8919    4.3399   -2.0471 C   0  0  0  0  0  0  0  0  0  0  0  0
    2.4922    5.3486   -2.6581 N   0  0  0  0  0  0  0  0  0  0  0  0
    1.7482    6.7222   -2.2330 S   0  0  0  0  0  0  0  0  0  0  0  0
    0.6282    6.0818   -1.2544 N   0  0  0  0  0  0  0  0  0  0  0  0
    2.2371    2.9697   -2.0623 C   0  0  0  0  0  0  0  0  0  0  0  0
    3.3212    2.2995   -2.6448 C   0  0  0  0  0  0  0  0  0  0  0  0
    4.6649    2.6367   -3.6804 S   0  0  0  0  0  0  0  0  0  0  0  0
    5.1743    0.9678   -3.5038 C   0  0  0  0  0  0  0  0  0  0  0  0
    6.2722    0.2672   -3.9941 C   0  0  0  0  0  0  0  0  0  0  0  0
    7.2418    0.9035   -4.8886 C   0  0  0  0  0  0  0  0  0  0  0  0
    6.7540    1.5844   -6.0029 C   0  0  0  0  0  0  0  0  0  0  0  0
    7.6241    2.2654   -6.8311 C   0  0  0  0  0  0  0  0  0  0  0  0
    8.9768    2.2914   -6.5458 C   0  0  0  0  0  0  0  0  0  0  0  0
    9.4844    1.6210   -5.4381 C   0  0  0  0  0  0  0  0  0  0  0  0
   10.9552    1.6697   -5.1403 C   0  0  0  0  0  0  0  0  0  0  0  0
   11.7743    0.9735   -6.2269 C   0  0  0  0  0  0  0  0  0  0  0  0
    8.6079    0.9229   -4.6192 C   0  0  0  0  0  0  0  0  0  0  0  0
    6.2741   -1.0702   -3.5474 C   0  0  0  0  0  0  0  0  0  0  0  0
    4.8858   -1.4165   -2.5087 S   0  0  0  0  0  0  0  0  0  0  0  0
    4.3361    0.2074   -2.6707 C   0  0  0  0  0  0  0  0  0  0  0  0
    3.2666    0.9727   -2.2001 C   0  0  0  0  0  0  0  0  0  0  0  0
    2.1673    0.7863   -1.4009 N   0  0  0  0  0  0  0  0  0  0  0  0
    1.5088    2.0013   -1.3107 C   0  0  0  0  0  0  0  0  0  0  0  0
    0.3041    2.4012   -0.6760 C   0  0  0  0  0  0  0  0  0  0  0  0
   -0.7306    1.6960   -0.0964 N   0  0  0  0  0  0  0  0  0  0  0  0
   -1.6336    2.5990    0.3959 C   0  0  0  0  0  0  0  0  0  0  0  0
   -2.8796    2.5720    1.0308 C   0  0  0  0  0  0  0  0  0  0  0  0
   -4.0008    1.3662    1.5490 S   0  0  0  0  0  0  0  0  0  0  0  0
   -1.1017    0.3045   -0.2191 C   0  0  0  0  0  0  0  0  0  0  0  0
   -0.9589   -0.4498    1.1019 C   0  0  0  0  0  0  0  0  0  0  0  0
    2.1811   -0.3195   -0.4658 C   0  0  0  0  0  0  0  0  0  0  0  0
    2.8051    0.1019    0.8627 C   0  0  0  0  0  0  0  0  0  0  0  0
    7.2377   -2.0070   -3.9261 C   0  0  0  0  0  0  0  0  0  0  0  0
    7.3211   -3.3573   -3.6601 C   0  0  0  0  0  0  0  0  0  0  0  0
    6.3128   -4.1738   -2.9834 C   0  0  0  0  0  0  0  0  0  0  0  0
    5.3271   -3.8024   -2.3702 O   0  0  0  0  0  0  0  0  0  0  0  0
    6.7174   -5.5802   -3.1932 C   0  0  0  0  0  0  0  0  0  0  0  0
    6.0648   -6.7299   -2.7992 C   0  0  0  0  0  0  0  0  0  0  0  0
    6.6620   -7.9339   -3.1426 C   0  0  0  0  0  0  0  0  0  0  0  0
    6.0626   -9.0823   -2.7833 F   0  0  0  0  0  0  0  0  0  0  0  0
    7.8552   -7.9987   -3.8456 C   0  0  0  0  0  0  0  0  0  0  0  0
    8.5036   -6.8335   -4.2285 C   0  0  0  0  0  0  0  0  0  0  0  0
    7.9314   -5.6140   -3.8995 C   0  0  0  0  0  0  0  0  0  0  0  0
    8.3698   -4.2379   -4.1300 C   0  0  0  0  0  0  0  0  0  0  0  0
    9.6031   -3.8748   -4.6064 C   0  0  0  0  0  0  0  0  0  0  0  0
   10.5745   -4.7850   -5.0701 C   0  0  0  0  0  0  0  0  0  0  0  0
   11.4017   -5.4710   -5.4744 N   0  0  0  0  0  0  0  0  0  0  0  0
   10.1013   -2.5577   -4.6151 C   0  0  0  0  0  0  0  0  0  0  0  0
   10.5976   -1.5222   -4.5923 N   0  0  0  0  0  0  0  0  0  0  0  0
   -6.7311    3.3038    3.2070 H   0  0  0  0  0  0  0  0  0  0  0  0
   -6.9633   -2.9070    2.2923 H   0  0  0  0  0  0  0  0  0  0  0  0
  -10.5090   -0.3611    4.8610 H   0  0  0  0  0  0  0  0  0  0  0  0
  -11.6976   -3.4267    3.8809 H   0  0  0  0  0  0  0  0  0  0  0  0
  -11.5235   -3.9086    6.3172 H   0  0  0  0  0  0  0  0  0  0  0  0
   -9.1661   -3.0699    7.0752 H   0  0  0  0  0  0  0  0  0  0  0  0
   -7.3256   -4.4427    5.7396 H   0  0  0  0  0  0  0  0  0  0  0  0
   -8.5498   -6.1286    4.1578 H   0  0  0  0  0  0  0  0  0  0  0  0
  -11.1943   -5.9893    4.6405 H   0  0  0  0  0  0  0  0  0  0  0  0
  -10.2874   -6.2454    6.1523 H   0  0  0  0  0  0  0  0  0  0  0  0
   -9.9110   -4.7622    2.5821 H   0  0  0  0  0  0  0  0  0  0  0  0
   -7.1840    4.5298    1.2713 H   0  0  0  0  0  0  0  0  0  0  0  0
   -8.3461    6.6302    1.8087 H   0  0  0  0  0  0  0  0  0  0  0  0
   -7.1476    8.4560    2.9403 H   0  0  0  0  0  0  0  0  0  0  0  0
   -5.2235    9.1950    4.2050 H   0  0  0  0  0  0  0  0  0  0  0  0
   -3.8334    8.1250    4.4352 H   0  0  0  0  0  0  0  0  0  0  0  0
   -4.4399    9.7073    1.8908 H   0  0  0  0  0  0  0  0  0  0  0  0
   -3.0593    8.6342    2.1160 H   0  0  0  0  0  0  0  0  0  0  0  0
   -3.1980   10.1081    3.0815 H   0  0  0  0  0  0  0  0  0  0  0  0
   -3.6189    6.0658    3.0598 H   0  0  0  0  0  0  0  0  0  0  0  0
    5.6966    1.5660   -6.2203 H   0  0  0  0  0  0  0  0  0  0  0  0
    7.2421    2.7888   -7.6950 H   0  0  0  0  0  0  0  0  0  0  0  0
    9.6468    2.8497   -7.1829 H   0  0  0  0  0  0  0  0  0  0  0  0
   11.2690    2.7148   -5.0668 H   0  0  0  0  0  0  0  0  0  0  0  0
   11.1512    1.1830   -4.1852 H   0  0  0  0  0  0  0  0  0  0  0  0
   11.5986    1.4246   -7.2006 H   0  0  0  0  0  0  0  0  0  0  0  0
   11.5028   -0.0775   -6.2753 H   0  0  0  0  0  0  0  0  0  0  0  0
   12.8349    1.0451   -5.9985 H   0  0  0  0  0  0  0  0  0  0  0  0
    8.9875    0.4222   -3.7404 H   0  0  0  0  0  0  0  0  0  0  0  0
   -0.5154   -0.1454   -1.0216 H   0  0  0  0  0  0  0  0  0  0  0  0
   -2.1541    0.2709   -0.5219 H   0  0  0  0  0  0  0  0  0  0  0  0
   -1.6999   -0.0933    1.8119 H   0  0  0  0  0  0  0  0  0  0  0  0
   -1.1290   -1.5104    0.9394 H   0  0  0  0  0  0  0  0  0  0  0  0
    0.0268   -0.3106    1.5375 H   0  0  0  0  0  0  0  0  0  0  0  0
    1.1825   -0.7125   -0.3037 H   0  0  0  0  0  0  0  0  0  0  0  0
    2.7835   -1.1088   -0.9221 H   0  0  0  0  0  0  0  0  0  0  0  0
    2.8318   -0.7443    1.5436 H   0  0  0  0  0  0  0  0  0  0  0  0
    3.8226    0.4527    0.7066 H   0  0  0  0  0  0  0  0  0  0  0  0
    2.2309    0.9062    1.3187 H   0  0  0  0  0  0  0  0  0  0  0  0
    8.0120   -1.5910   -4.5610 H   0  0  0  0  0  0  0  0  0  0  0  0
    5.1366   -6.6953   -2.2518 H   0  0  0  0  0  0  0  0  0  0  0  0
    8.2704   -8.9642   -4.0881 H   0  0  0  0  0  0  0  0  0  0  0  0
    9.4297   -6.8952   -4.7757 H   0  0  0  0  0  0  0  0  0  0  0  0
  1  2  2  0  0  0  0
  2  3  1  0  0  0  0
  3  4  2  0  0  0  0
  3  5  1  0  0  0  0
  5  6  2  0  0  0  0
  6  7  1  0  0  0  0
  7  8  2  0  0  0  0
  8  9  1  0  0  0  0
  9 10  2  0  0  0  0
 10 11  1  0  0  0  0
 11 12  2  0  0  0  0
 12 13  1  0  0  0  0
 13 14  3  0  0  0  0
 12 15  1  0  0  0  0
 15 16  3  0  0  0  0
  8 17  1  0  0  0  0
 17 18  1  0  0  0  0
 18 19  1  0  0  0  0
 19 20  2  0  0  0  0
 20 21  1  0  0  0  0
 21 22  1  0  0  0  0
 21 23  1  0  0  0  0
  1 24  1  0  0  0  0
 24 25  2  0  0  0  0
 25 26  1  0  0  0  0
 26 27  2  0  0  0  0
 27 28  1  0  0  0  0
 28 29  2  0  0  0  0
 29 30  1  0  0  0  0
 30 31  1  0  0  0  0
 31 32  1  0  0  0  0
 30 33  2  0  0  0  0
 25 34  1  0  0  0  0
 34 35  1  0  0  0  0
 35 36  1  0  0  0  0
 36 37  1  0  0  0  0
 37 38  1  0  0  0  0
 38 39  1  0  0  0  0
 39 40  2  0  0  0  0
 40 41  1  0  0  0  0
 41 42  1  0  0  0  0
 39 43  1  0  0  0  0
 43 44  1  0  0  0  0
 44 45  1  0  0  0  0
 45 46  1  0  0  0  0
 46 47  1  0  0  0  0
 47 48  1  0  0  0  0
 48 49  2  0  0  0  0
 49 50  1  0  0  0  0
 50 51  2  0  0  0  0
 51 52  1  0  0  0  0
 52 53  1  0  0  0  0
 53 54  1  0  0  0  0
 52 55  2  0  0  0  0
 47 56  2  0  0  0  0
 56 57  1  0  0  0  0
 57 58  1  0  0  0  0
 58 59  1  0  0  0  0
 59 60  1  0  0  0  0
 60 61  1  0  0  0  0
 61 62  1  0  0  0  0
 62 63  1  0  0  0  0
 63 64  1  0  0  0  0
 64 65  1  0  0  0  0
 65 66  1  0  0  0  0
 63 67  1  0  0  0  0
 67 68  1  0  0  0  0
 60 69  1  0  0  0  0
 69 70  1  0  0  0  0
 56 71  1  0  0  0  0
 71 72  2  0  0  0  0
 72 73  1  0  0  0  0
 73 74  2  0  0  0  0
 73 75  1  0  0  0  0
 75 76  2  0  0  0  0
 76 77  1  0  0  0  0
 77 78  1  0  0  0  0
 77 79  2  0  0  0  0
 79 80  1  0  0  0  0
 80 81  2  0  0  0  0
 81 82  1  0  0  0  0
 82 83  2  0  0  0  0
 83 84  1  0  0  0  0
 84 85  3  0  0  0  0
 83 86  1  0  0  0  0
 86 87  3  0  0  0  0
 11  2  1  0  0  0  0
 23 17  1  0  0  0  0
 66 24  1  0  0  0  0
 82 72  1  0  0  0  0
 10  5  1  0  0  0  0
 22 18  1  0  0  0  0
 33 26  1  0  0  0  0
 65 34  2  0  0  0  0
 81 75  1  0  0  0  0
 23  7  1  0  0  0  0
 64 36  2  0  0  0  0
 62 37  2  0  0  0  0
 42 38  2  0  0  0  0
 61 43  2  0  0  0  0
 59 44  2  0  0  0  0
 58 46  2  0  0  0  0
 55 48  1  0  0  0  0
  1 88  1  0  0  0  0
  6 89  1  0  0  0  0
  9 90  1  0  0  0  0
 17 91  1  0  0  0  0
 18 92  1  0  0  0  0
 19 93  1  0  0  0  0
 20 94  1  0  0  0  0
 21 95  1  0  0  0  0
 22 96  1  0  0  0  0
 22 97  1  0  0  0  0
 23 98  1  0  0  0  0
 27 99  1  0  0  0  0
 28100  1  0  0  0  0
 29101  1  0  0  0  0
 31102  1  0  0  0  0
 31103  1  0  0  0  0
 32104  1  0  0  0  0
 32105  1  0  0  0  0
 32106  1  0  0  0  0
 33107  1  0  0  0  0
 49108  1  0  0  0  0
 50109  1  0  0  0  0
 51110  1  0  0  0  0
 53111  1  0  0  0  0
 53112  1  0  0  0  0
 54113  1  0  0  0  0
 54114  1  0  0  0  0
 54115  1  0  0  0  0
 55116  1  0  0  0  0
 67117  1  0  0  0  0
 67118  1  0  0  0  0
 68119  1  0  0  0  0
 68120  1  0  0  0  0
 68121  1  0  0  0  0
 69122  1  0  0  0  0
 69123  1  0  0  0  0
 70124  1  0  0  0  0
 70125  1  0  0  0  0
 70126  1  0  0  0  0
 71127  1  0  0  0  0
 76128  1  0  0  0  0
 79129  1  0  0  0  0
 80130  1  0  0  0  0
M  END
