
  xtb     02112200533D
 energy: -264.461102498105 gnorm: 0.000596725363 xtb: 6.4.1 (unknown)
155172  0     0  0            999 V2000
    2.8630    5.5312   -3.9701 C   0  0  0  0  0  0  0  0  0  0  0  0
    3.8287    5.6078   -4.9338 C   0  0  0  0  0  0  0  0  0  0  0  0
    4.5230    4.5089   -5.6462 C   0  0  0  0  0  0  0  0  0  0  0  0
    4.5355    3.3226   -5.3866 O   0  0  0  0  0  0  0  0  0  0  0  0
    5.2139    5.1424   -6.7841 C   0  0  0  0  0  0  0  0  0  0  0  0
    5.9323    4.4919   -7.7860 C   0  0  0  0  0  0  0  0  0  0  0  0
    6.4544    5.3348   -8.7369 C   0  0  0  0  0  0  0  0  0  0  0  0
    6.2688    6.7239   -8.7004 C   0  0  0  0  0  0  0  0  0  0  0  0
    5.5653    7.3783   -7.7179 C   0  0  0  0  0  0  0  0  0  0  0  0
    5.0343    6.5385   -6.7332 C   0  0  0  0  0  0  0  0  0  0  0  0
    4.2522    6.8594   -5.5442 C   0  0  0  0  0  0  0  0  0  0  0  0
    4.0449    8.1209   -5.0506 C   0  0  0  0  0  0  0  0  0  0  0  0
    3.4001    8.4353   -3.8348 C   0  0  0  0  0  0  0  0  0  0  0  0
    2.9186    8.7812   -2.8508 N   0  0  0  0  0  0  0  0  0  0  0  0
    4.5107    9.3020   -5.6668 C   0  0  0  0  0  0  0  0  0  0  0  0
    4.8560   10.3020   -6.1126 N   0  0  0  0  0  0  0  0  0  0  0  0
    7.0572    6.9432   -9.9672 C   0  0  0  0  0  0  0  0  0  0  0  0
    8.4944    7.4802   -9.7994 C   0  0  0  0  0  0  0  0  0  0  0  0
    9.1626    7.1404  -11.1121 C   0  0  0  0  0  0  0  0  0  0  0  0
    9.3413    5.8260  -11.1455 C   0  0  0  0  0  0  0  0  0  0  0  0
    8.7974    5.2552   -9.8555 C   0  0  0  0  0  0  0  0  0  0  0  0
    9.1230    6.4092   -8.8985 C   0  0  0  0  0  0  0  0  0  0  0  0
    7.2675    5.3953  -10.0060 C   0  0  0  0  0  0  0  0  0  0  0  0
    2.3432    4.4360   -3.2511 C   0  0  0  0  0  0  0  0  0  0  0  0
    2.7103    3.1027   -3.1750 C   0  0  0  0  0  0  0  0  0  0  0  0
    1.9202    2.3979   -2.2770 C   0  0  0  0  0  0  0  0  0  0  0  0
    1.9152    0.7442   -1.7303 S   0  0  0  0  0  0  0  0  0  0  0  0
    0.6010    1.1189   -0.6684 C   0  0  0  0  0  0  0  0  0  0  0  0
   -0.1580    0.3977    0.3054 C   0  0  0  0  0  0  0  0  0  0  0  0
   -0.0665   -0.9216    0.7401 C   0  0  0  0  0  0  0  0  0  0  0  0
   -0.9355   -1.3202    1.7283 C   0  0  0  0  0  0  0  0  0  0  0  0
   -1.0228   -2.6735    2.4120 C   0  0  0  0  0  0  0  0  0  0  0  0
    0.3046   -2.9251    3.1021 C   0  0  0  0  0  0  0  0  0  0  0  0
    0.5212   -2.5425    4.4196 C   0  0  0  0  0  0  0  0  0  0  0  0
    1.7441   -2.7600    5.0203 C   0  0  0  0  0  0  0  0  0  0  0  0
    2.7837   -3.3519    4.3093 C   0  0  0  0  0  0  0  0  0  0  0  0
    4.3147   -3.5595    5.1671 S   0  0  0  0  0  0  0  0  0  0  0  0
    5.1611   -4.9031    4.2622 C   0  0  0  0  0  0  0  0  0  0  0  0
    4.4198   -6.2215    4.3693 C   0  0  0  0  0  0  0  0  0  0  0  0
    2.5820   -3.7089    2.9828 C   0  0  0  0  0  0  0  0  0  0  0  0
    1.3510   -3.4992    2.3917 C   0  0  0  0  0  0  0  0  0  0  0  0
   -1.4464   -3.8425    1.5465 C   0  0  0  0  0  0  0  0  0  0  0  0
   -2.1396   -3.6659    0.3564 C   0  0  0  0  0  0  0  0  0  0  0  0
   -2.6653   -4.7543   -0.3110 C   0  0  0  0  0  0  0  0  0  0  0  0
   -2.5121   -6.0391    0.2027 C   0  0  0  0  0  0  0  0  0  0  0  0
   -3.2600   -7.3585   -0.7027 S   0  0  0  0  0  0  0  0  0  0  0  0
   -3.4125   -8.7185    0.5092 C   0  0  0  0  0  0  0  0  0  0  0  0
   -4.3473   -8.3854    1.6566 C   0  0  0  0  0  0  0  0  0  0  0  0
   -1.7849   -6.2236    1.3702 C   0  0  0  0  0  0  0  0  0  0  0  0
   -1.2702   -5.1306    2.0374 C   0  0  0  0  0  0  0  0  0  0  0  0
   -2.1654   -2.4336    3.3608 C   0  0  0  0  0  0  0  0  0  0  0  0
   -2.6162   -1.1270    3.2717 C   0  0  0  0  0  0  0  0  0  0  0  0
   -1.8672   -0.4101    2.2871 C   0  0  0  0  0  0  0  0  0  0  0  0
   -1.9596    0.9092    1.8500 C   0  0  0  0  0  0  0  0  0  0  0  0
   -1.1032    1.3012    0.8483 C   0  0  0  0  0  0  0  0  0  0  0  0
   -0.9878    2.6663    0.1916 C   0  0  0  0  0  0  0  0  0  0  0  0
   -2.1749    3.0195   -0.6895 C   0  0  0  0  0  0  0  0  0  0  0  0
   -2.2845    4.3155   -1.1860 C   0  0  0  0  0  0  0  0  0  0  0  0
   -3.3066    4.6533   -2.0454 C   0  0  0  0  0  0  0  0  0  0  0  0
   -4.2485    3.7009   -2.4292 C   0  0  0  0  0  0  0  0  0  0  0  0
   -5.5345    4.2575   -3.5048 S   0  0  0  0  0  0  0  0  0  0  0  0
   -6.1993    2.7318   -4.2587 C   0  0  0  0  0  0  0  0  0  0  0  0
   -5.1950    2.0601   -5.1751 C   0  0  0  0  0  0  0  0  0  0  0  0
   -4.1473    2.4098   -1.9323 C   0  0  0  0  0  0  0  0  0  0  0  0
   -3.1106    2.0738   -1.0792 C   0  0  0  0  0  0  0  0  0  0  0  0
   -0.7409    3.7270    1.2446 C   0  0  0  0  0  0  0  0  0  0  0  0
   -1.8149    4.3218    1.8989 C   0  0  0  0  0  0  0  0  0  0  0  0
   -1.6029    5.2858    2.8609 C   0  0  0  0  0  0  0  0  0  0  0  0
   -0.3082    5.6739    3.1961 C   0  0  0  0  0  0  0  0  0  0  0  0
   -0.1470    6.9108    4.4469 S   0  0  0  0  0  0  0  0  0  0  0  0
    1.4868    7.6644    4.1251 C   0  0  0  0  0  0  0  0  0  0  0  0
    1.5397    8.3690    2.7837 C   0  0  0  0  0  0  0  0  0  0  0  0
    0.7674    5.0601    2.5703 C   0  0  0  0  0  0  0  0  0  0  0  0
    0.5470    4.0961    1.6039 C   0  0  0  0  0  0  0  0  0  0  0  0
    0.1797    2.4365   -0.7303 C   0  0  0  0  0  0  0  0  0  0  0  0
    0.9252    3.1735   -1.6467 C   0  0  0  0  0  0  0  0  0  0  0  0
    0.9839    4.8045   -2.1781 S   0  0  0  0  0  0  0  0  0  0  0  0
   -3.9785   -0.7815    4.2846 S   0  0  0  0  0  0  0  0  0  0  0  0
   -3.9900   -2.4503    4.8004 C   0  0  0  0  0  0  0  0  0  0  0  0
   -4.8141   -3.2018    5.6122 C   0  0  0  0  0  0  0  0  0  0  0  0
   -4.4537   -4.5546    5.6301 C   0  0  0  0  0  0  0  0  0  0  0  0
   -3.0409   -4.8688    4.6251 S   0  0  0  0  0  0  0  0  0  0  0  0
   -2.9530   -3.2060    4.2077 C   0  0  0  0  0  0  0  0  0  0  0  0
   -5.1683   -5.5056    6.3675 C   0  0  0  0  0  0  0  0  0  0  0  0
   -5.0358   -6.8733    6.4244 C   0  0  0  0  0  0  0  0  0  0  0  0
   -4.1209   -7.6843    5.6173 C   0  0  0  0  0  0  0  0  0  0  0  0
   -3.2679   -7.3080    4.8338 O   0  0  0  0  0  0  0  0  0  0  0  0
   -4.4453   -9.0924    5.9252 C   0  0  0  0  0  0  0  0  0  0  0  0
   -3.8814  -10.2341    5.3945 C   0  0  0  0  0  0  0  0  0  0  0  0
   -4.3503  -11.4656    5.8353 C   0  0  0  0  0  0  0  0  0  0  0  0
   -3.6960  -12.9292    5.2117 Cl  0  0  0  0  0  0  0  0  0  0  0  0
   -5.3642  -11.5062    6.7949 C   0  0  0  0  0  0  0  0  0  0  0  0
   -5.8113  -12.6950    7.2157 F   0  0  0  0  0  0  0  0  0  0  0  0
   -5.9329  -10.3617    7.3334 C   0  0  0  0  0  0  0  0  0  0  0  0
   -5.4663   -9.1345    6.8891 C   0  0  0  0  0  0  0  0  0  0  0  0
   -5.8434   -7.7641    7.2355 C   0  0  0  0  0  0  0  0  0  0  0  0
   -6.7754   -7.4209    8.1802 C   0  0  0  0  0  0  0  0  0  0  0  0
   -7.5088   -8.3576    8.9397 C   0  0  0  0  0  0  0  0  0  0  0  0
   -8.1360   -9.0691    9.5858 N   0  0  0  0  0  0  0  0  0  0  0  0
   -7.1356   -6.1071    8.5478 C   0  0  0  0  0  0  0  0  0  0  0  0
   -7.4861   -5.0759    8.9122 N   0  0  0  0  0  0  0  0  0  0  0  0
    2.3819    6.4665   -3.7066 H   0  0  0  0  0  0  0  0  0  0  0  0
    6.0414    3.4186   -7.7804 H   0  0  0  0  0  0  0  0  0  0  0  0
    5.4229    8.4458   -7.7104 H   0  0  0  0  0  0  0  0  0  0  0  0
    6.5183    7.4170  -10.7854 H   0  0  0  0  0  0  0  0  0  0  0  0
    8.5581    8.5135   -9.4697 H   0  0  0  0  0  0  0  0  0  0  0  0
    9.3784    7.8605  -11.8793 H   0  0  0  0  0  0  0  0  0  0  0  0
    9.7363    5.2288  -11.9463 H   0  0  0  0  0  0  0  0  0  0  0  0
    9.1388    4.2616   -9.5779 H   0  0  0  0  0  0  0  0  0  0  0  0
    8.6541    6.3209   -7.9202 H   0  0  0  0  0  0  0  0  0  0  0  0
   10.1954    6.5521   -8.7766 H   0  0  0  0  0  0  0  0  0  0  0  0
    6.8702    4.8362  -10.8512 H   0  0  0  0  0  0  0  0  0  0  0  0
    3.5147    2.6851   -3.7518 H   0  0  0  0  0  0  0  0  0  0  0  0
    0.6590   -1.5945    0.3105 H   0  0  0  0  0  0  0  0  0  0  0  0
   -0.2727   -2.0803    4.9874 H   0  0  0  0  0  0  0  0  0  0  0  0
    1.9071   -2.4737    6.0479 H   0  0  0  0  0  0  0  0  0  0  0  0
    5.3065   -4.5915    3.2284 H   0  0  0  0  0  0  0  0  0  0  0  0
    6.1357   -4.9629    4.7464 H   0  0  0  0  0  0  0  0  0  0  0  0
    4.9756   -7.0015    3.8522 H   0  0  0  0  0  0  0  0  0  0  0  0
    4.3085   -6.5059    5.4130 H   0  0  0  0  0  0  0  0  0  0  0  0
    3.4288   -6.1478    3.9258 H   0  0  0  0  0  0  0  0  0  0  0  0
    3.3751   -4.1456    2.3965 H   0  0  0  0  0  0  0  0  0  0  0  0
    1.2013   -3.7991    1.3647 H   0  0  0  0  0  0  0  0  0  0  0  0
   -2.2839   -2.6721   -0.0422 H   0  0  0  0  0  0  0  0  0  0  0  0
   -3.2156   -4.6184   -1.2296 H   0  0  0  0  0  0  0  0  0  0  0  0
   -2.4157   -8.9913    0.8542 H   0  0  0  0  0  0  0  0  0  0  0  0
   -3.8095   -9.5392   -0.0889 H   0  0  0  0  0  0  0  0  0  0  0  0
   -4.5087   -9.2727    2.2668 H   0  0  0  0  0  0  0  0  0  0  0  0
   -5.3085   -8.0502    1.2728 H   0  0  0  0  0  0  0  0  0  0  0  0
   -3.9340   -7.6035    2.2904 H   0  0  0  0  0  0  0  0  0  0  0  0
   -1.6223   -7.2059    1.7819 H   0  0  0  0  0  0  0  0  0  0  0  0
   -0.7279   -5.2856    2.9581 H   0  0  0  0  0  0  0  0  0  0  0  0
   -2.6763    1.5874    2.2864 H   0  0  0  0  0  0  0  0  0  0  0  0
   -1.5622    5.0639   -0.8953 H   0  0  0  0  0  0  0  0  0  0  0  0
   -3.3878    5.6580   -2.4305 H   0  0  0  0  0  0  0  0  0  0  0  0
   -7.0665    3.0800   -4.8196 H   0  0  0  0  0  0  0  0  0  0  0  0
   -6.5437    2.0710   -3.4640 H   0  0  0  0  0  0  0  0  0  0  0  0
   -4.8922    2.7437   -5.9647 H   0  0  0  0  0  0  0  0  0  0  0  0
   -5.6406    1.1772   -5.6296 H   0  0  0  0  0  0  0  0  0  0  0  0
   -4.3066    1.7575   -4.6242 H   0  0  0  0  0  0  0  0  0  0  0  0
   -4.8690    1.6524   -2.1945 H   0  0  0  0  0  0  0  0  0  0  0  0
   -3.0432    1.0602   -0.7119 H   0  0  0  0  0  0  0  0  0  0  0  0
   -2.8252    4.0452    1.6352 H   0  0  0  0  0  0  0  0  0  0  0  0
   -2.4372    5.7549    3.3595 H   0  0  0  0  0  0  0  0  0  0  0  0
    2.2516    6.8941    4.2204 H   0  0  0  0  0  0  0  0  0  0  0  0
    1.6057    8.3735    4.9443 H   0  0  0  0  0  0  0  0  0  0  0  0
    1.3773    7.6682    1.9672 H   0  0  0  0  0  0  0  0  0  0  0  0
    0.7732    9.1387    2.7326 H   0  0  0  0  0  0  0  0  0  0  0  0
    2.5128    8.8370    2.6498 H   0  0  0  0  0  0  0  0  0  0  0  0
    1.7826    5.3175    2.8278 H   0  0  0  0  0  0  0  0  0  0  0  0
    1.3975    3.6294    1.1285 H   0  0  0  0  0  0  0  0  0  0  0  0
   -5.6547   -2.8193    6.1627 H   0  0  0  0  0  0  0  0  0  0  0  0
   -5.9620   -5.0709    6.9632 H   0  0  0  0  0  0  0  0  0  0  0  0
   -3.0955  -10.1691    4.6590 H   0  0  0  0  0  0  0  0  0  0  0  0
   -6.7124  -10.4672    8.0698 H   0  0  0  0  0  0  0  0  0  0  0  0
  1  2  2  0  0  0  0
  2  3  1  0  0  0  0
  3  4  2  0  0  0  0
  3  5  1  0  0  0  0
  5  6  2  0  0  0  0
  6  7  1  0  0  0  0
  7  8  2  0  0  0  0
  8  9  1  0  0  0  0
  9 10  2  0  0  0  0
 10 11  1  0  0  0  0
 11 12  2  0  0  0  0
 12 13  1  0  0  0  0
 13 14  3  0  0  0  0
 12 15  1  0  0  0  0
 15 16  3  0  0  0  0
  8 17  1  0  0  0  0
 17 18  1  0  0  0  0
 18 19  1  0  0  0  0
 19 20  2  0  0  0  0
 20 21  1  0  0  0  0
 21 22  1  0  0  0  0
 21 23  1  0  0  0  0
  1 24  1  0  0  0  0
 24 25  2  0  0  0  0
 25 26  1  0  0  0  0
 26 27  1  0  0  0  0
 27 28  1  0  0  0  0
 28 29  1  0  0  0  0
 29 30  2  0  0  0  0
 30 31  1  0  0  0  0
 31 32  1  0  0  0  0
 32 33  1  0  0  0  0
 33 34  2  0  0  0  0
 34 35  1  0  0  0  0
 35 36  2  0  0  0  0
 36 37  1  0  0  0  0
 37 38  1  0  0  0  0
 38 39  1  0  0  0  0
 36 40  1  0  0  0  0
 40 41  2  0  0  0  0
 32 42  1  0  0  0  0
 42 43  2  0  0  0  0
 43 44  1  0  0  0  0
 44 45  2  0  0  0  0
 45 46  1  0  0  0  0
 46 47  1  0  0  0  0
 47 48  1  0  0  0  0
 45 49  1  0  0  0  0
 49 50  2  0  0  0  0
 32 51  1  0  0  0  0
 51 52  2  0  0  0  0
 52 53  1  0  0  0  0
 53 54  1  0  0  0  0
 54 55  2  0  0  0  0
 55 56  1  0  0  0  0
 56 57  1  0  0  0  0
 57 58  2  0  0  0  0
 58 59  1  0  0  0  0
 59 60  2  0  0  0  0
 60 61  1  0  0  0  0
 61 62  1  0  0  0  0
 62 63  1  0  0  0  0
 60 64  1  0  0  0  0
 64 65  2  0  0  0  0
 56 66  1  0  0  0  0
 66 67  2  0  0  0  0
 67 68  1  0  0  0  0
 68 69  2  0  0  0  0
 69 70  1  0  0  0  0
 70 71  1  0  0  0  0
 71 72  1  0  0  0  0
 69 73  1  0  0  0  0
 73 74  2  0  0  0  0
 56 75  1  0  0  0  0
 75 76  1  0  0  0  0
 76 77  1  0  0  0  0
 52 78  1  0  0  0  0
 78 79  1  0  0  0  0
 79 80  1  0  0  0  0
 80 81  2  0  0  0  0
 81 82  1  0  0  0  0
 82 83  1  0  0  0  0
 81 84  1  0  0  0  0
 84 85  2  0  0  0  0
 85 86  1  0  0  0  0
 86 87  2  0  0  0  0
 86 88  1  0  0  0  0
 88 89  2  0  0  0  0
 89 90  1  0  0  0  0
 90 91  1  0  0  0  0
 90 92  2  0  0  0  0
 92 93  1  0  0  0  0
 92 94  1  0  0  0  0
 94 95  2  0  0  0  0
 95 96  1  0  0  0  0
 96 97  2  0  0  0  0
 97 98  1  0  0  0  0
 98 99  3  0  0  0  0
 97100  1  0  0  0  0
100101  3  0  0  0  0
 11  2  1  0  0  0  0
 23 17  1  0  0  0  0
 77 24  1  0  0  0  0
 83 79  2  0  0  0  0
 96 85  1  0  0  0  0
 10  5  1  0  0  0  0
 22 18  1  0  0  0  0
 76 26  2  0  0  0  0
 95 88  1  0  0  0  0
 23  7  1  0  0  0  0
 75 28  2  0  0  0  0
 55 29  1  0  0  0  0
 65 57  1  0  0  0  0
 74 66  1  0  0  0  0
 53 31  2  0  0  0  0
 41 33  1  0  0  0  0
 50 42  1  0  0  0  0
 83 51  1  0  0  0  0
  1102  1  0  0  0  0
  6103  1  0  0  0  0
  9104  1  0  0  0  0
 17105  1  0  0  0  0
 18106  1  0  0  0  0
 19107  1  0  0  0  0
 20108  1  0  0  0  0
 21109  1  0  0  0  0
 22110  1  0  0  0  0
 22111  1  0  0  0  0
 23112  1  0  0  0  0
 25113  1  0  0  0  0
 30114  1  0  0  0  0
 34115  1  0  0  0  0
 35116  1  0  0  0  0
 38117  1  0  0  0  0
 38118  1  0  0  0  0
 39119  1  0  0  0  0
 39120  1  0  0  0  0
 39121  1  0  0  0  0
 40122  1  0  0  0  0
 41123  1  0  0  0  0
 43124  1  0  0  0  0
 44125  1  0  0  0  0
 47126  1  0  0  0  0
 47127  1  0  0  0  0
 48128  1  0  0  0  0
 48129  1  0  0  0  0
 48130  1  0  0  0  0
 49131  1  0  0  0  0
 50132  1  0  0  0  0
 54133  1  0  0  0  0
 58134  1  0  0  0  0
 59135  1  0  0  0  0
 62136  1  0  0  0  0
 62137  1  0  0  0  0
 63138  1  0  0  0  0
 63139  1  0  0  0  0
 63140  1  0  0  0  0
 64141  1  0  0  0  0
 65142  1  0  0  0  0
 67143  1  0  0  0  0
 68144  1  0  0  0  0
 71145  1  0  0  0  0
 71146  1  0  0  0  0
 72147  1  0  0  0  0
 72148  1  0  0  0  0
 72149  1  0  0  0  0
 73150  1  0  0  0  0
 74151  1  0  0  0  0
 80152  1  0  0  0  0
 84153  1  0  0  0  0
 89154  1  0  0  0  0
 94155  1  0  0  0  0
M  END
