
  xtb     02022214223D
 energy: -230.396375851924 gnorm: 0.000709198590 xtb: 6.4.1 (unknown)
130146  0     0  0            999 V2000
    1.5171    5.4950    4.5008 C   0  0  0  0  0  0  0  0  0  0  0  0
    1.2122    6.6009    3.7662 C   0  0  0  0  0  0  0  0  0  0  0  0
    0.7403    7.8293    4.4587 C   0  0  0  0  0  0  0  0  0  0  0  0
    0.8484    8.0861    5.6368 O   0  0  0  0  0  0  0  0  0  0  0  0
    0.0497    8.6163    3.4168 C   0  0  0  0  0  0  0  0  0  0  0  0
   -0.6963    9.7802    3.5926 C   0  0  0  0  0  0  0  0  0  0  0  0
   -1.2563   10.2666    2.4355 C   0  0  0  0  0  0  0  0  0  0  0  0
   -1.0968    9.6414    1.1912 C   0  0  0  0  0  0  0  0  0  0  0  0
   -0.3577    8.4982    0.9995 C   0  0  0  0  0  0  0  0  0  0  0  0
    0.2259    7.9926    2.1634 C   0  0  0  0  0  0  0  0  0  0  0  0
    1.0976    6.8355    2.3455 C   0  0  0  0  0  0  0  0  0  0  0  0
    1.8958    6.2779    1.3796 C   0  0  0  0  0  0  0  0  0  0  0  0
    1.8130    6.5875    0.0094 C   0  0  0  0  0  0  0  0  0  0  0  0
    1.7654    6.7820   -1.1216 N   0  0  0  0  0  0  0  0  0  0  0  0
    2.9555    5.3993    1.6879 C   0  0  0  0  0  0  0  0  0  0  0  0
    3.8580    4.7269    1.9152 N   0  0  0  0  0  0  0  0  0  0  0  0
   -1.9399   10.6681    0.4772 C   0  0  0  0  0  0  0  0  0  0  0  0
   -1.1808   11.7269   -0.3501 C   0  0  0  0  0  0  0  0  0  0  0  0
   -2.1874   12.8417   -0.5209 C   0  0  0  0  0  0  0  0  0  0  0  0
   -2.3337   13.4370    0.6560 C   0  0  0  0  0  0  0  0  0  0  0  0
   -1.4285   12.7344    1.6422 C   0  0  0  0  0  0  0  0  0  0  0  0
   -0.2691   12.3550    0.7119 C   0  0  0  0  0  0  0  0  0  0  0  0
   -2.1129   11.3687    1.8630 C   0  0  0  0  0  0  0  0  0  0  0  0
    1.5308    4.1380    4.1205 C   0  0  0  0  0  0  0  0  0  0  0  0
    2.0141    3.0769    4.8850 C   0  0  0  0  0  0  0  0  0  0  0  0
    2.5998    3.1849    6.2224 C   0  0  0  0  0  0  0  0  0  0  0  0
    1.9143    3.8039    7.2647 C   0  0  0  0  0  0  0  0  0  0  0  0
    2.4840    3.8593    8.5225 C   0  0  0  0  0  0  0  0  0  0  0  0
    3.7306    3.3030    8.7507 C   0  0  0  0  0  0  0  0  0  0  0  0
    4.4202    2.6671    7.7259 C   0  0  0  0  0  0  0  0  0  0  0  0
    5.7863    2.0899    7.9580 C   0  0  0  0  0  0  0  0  0  0  0  0
    6.8643    3.1220    7.6206 C   0  0  0  0  0  0  0  0  0  0  0  0
    3.8432    2.6110    6.4662 C   0  0  0  0  0  0  0  0  0  0  0  0
    1.8881    1.8570    4.2071 C   0  0  0  0  0  0  0  0  0  0  0  0
    2.3046    0.2156    4.6403 S   0  0  0  0  0  0  0  0  0  0  0  0
    1.6433   -0.3242    3.1364 C   0  0  0  0  0  0  0  0  0  0  0  0
    1.4298   -1.5247    2.4377 C   0  0  0  0  0  0  0  0  0  0  0  0
    1.5680   -2.8872    2.7918 C   0  0  0  0  0  0  0  0  0  0  0  0
    1.0741   -3.8996    1.8944 C   0  0  0  0  0  0  0  0  0  0  0  0
    1.1929   -5.1176    2.3973 N   0  0  0  0  0  0  0  0  0  0  0  0
    1.8733   -5.0088    3.8612 S   0  0  0  0  0  0  0  0  0  0  0  0
    2.0401   -3.4006    3.9161 N   0  0  0  0  0  0  0  0  0  0  0  0
    0.6135   -3.5194    0.6122 C   0  0  0  0  0  0  0  0  0  0  0  0
    0.2156   -4.2472   -0.5216 C   0  0  0  0  0  0  0  0  0  0  0  0
   -0.1081   -5.8833   -0.9759 S   0  0  0  0  0  0  0  0  0  0  0  0
   -0.4741   -5.3368   -2.5961 C   0  0  0  0  0  0  0  0  0  0  0  0
   -0.8536   -6.0160   -3.7583 C   0  0  0  0  0  0  0  0  0  0  0  0
   -0.9747   -7.4667   -3.8555 C   0  0  0  0  0  0  0  0  0  0  0  0
   -1.6788   -8.1710   -2.8831 C   0  0  0  0  0  0  0  0  0  0  0  0
   -1.8687   -9.5336   -3.0260 C   0  0  0  0  0  0  0  0  0  0  0  0
   -1.3624  -10.1980   -4.1270 C   0  0  0  0  0  0  0  0  0  0  0  0
   -0.6283   -9.5136   -5.0918 C   0  0  0  0  0  0  0  0  0  0  0  0
   -0.0286  -10.2480   -6.2561 C   0  0  0  0  0  0  0  0  0  0  0  0
    1.3125  -10.8709   -5.8633 C   0  0  0  0  0  0  0  0  0  0  0  0
   -0.4307   -8.1521   -4.9390 C   0  0  0  0  0  0  0  0  0  0  0  0
   -1.0223   -5.1325   -4.8295 C   0  0  0  0  0  0  0  0  0  0  0  0
   -0.6349   -3.4689   -4.3828 S   0  0  0  0  0  0  0  0  0  0  0  0
   -0.3244   -3.9498   -2.7590 C   0  0  0  0  0  0  0  0  0  0  0  0
    0.0539   -3.3270   -1.5689 C   0  0  0  0  0  0  0  0  0  0  0  0
    0.3073   -2.0532   -1.1210 N   0  0  0  0  0  0  0  0  0  0  0  0
    0.6139   -2.1540    0.2225 C   0  0  0  0  0  0  0  0  0  0  0  0
    0.8504   -1.1590    1.1940 C   0  0  0  0  0  0  0  0  0  0  0  0
    0.6479    0.2071    1.1609 N   0  0  0  0  0  0  0  0  0  0  0  0
    1.1348    0.7125    2.3399 C   0  0  0  0  0  0  0  0  0  0  0  0
    1.2638    1.9580    2.9576 C   0  0  0  0  0  0  0  0  0  0  0  0
    0.8440    3.5875    2.5919 S   0  0  0  0  0  0  0  0  0  0  0  0
   -0.3848    0.9111    0.4278 C   0  0  0  0  0  0  0  0  0  0  0  0
   -1.6243    1.1309    1.2947 C   0  0  0  0  0  0  0  0  0  0  0  0
    0.7862   -1.0308   -2.0318 C   0  0  0  0  0  0  0  0  0  0  0  0
    2.0531   -1.4843   -2.7562 C   0  0  0  0  0  0  0  0  0  0  0  0
   -1.3938   -5.3679   -6.1643 C   0  0  0  0  0  0  0  0  0  0  0  0
   -2.1779   -6.3935   -6.6350 C   0  0  0  0  0  0  0  0  0  0  0  0
   -3.1509   -7.1524   -5.8249 C   0  0  0  0  0  0  0  0  0  0  0  0
   -3.4308   -6.9974   -4.6552 O   0  0  0  0  0  0  0  0  0  0  0  0
   -3.8307   -8.0601   -6.7762 C   0  0  0  0  0  0  0  0  0  0  0  0
   -4.8059   -8.9982   -6.5108 C   0  0  0  0  0  0  0  0  0  0  0  0
   -5.3119   -9.7397   -7.5720 C   0  0  0  0  0  0  0  0  0  0  0  0
   -6.5198  -10.9359   -7.3090 Cl  0  0  0  0  0  0  0  0  0  0  0  0
   -4.8313   -9.5061   -8.8618 C   0  0  0  0  0  0  0  0  0  0  0  0
   -5.3302  -10.2180   -9.8806 F   0  0  0  0  0  0  0  0  0  0  0  0
   -3.8531   -8.5623   -9.1355 C   0  0  0  0  0  0  0  0  0  0  0  0
   -3.3439   -7.8317   -8.0739 C   0  0  0  0  0  0  0  0  0  0  0  0
   -2.3068   -6.8038   -8.0128 C   0  0  0  0  0  0  0  0  0  0  0  0
   -1.5232   -6.3990   -9.0646 C   0  0  0  0  0  0  0  0  0  0  0  0
   -0.4375   -5.5054   -8.9595 C   0  0  0  0  0  0  0  0  0  0  0  0
    0.4780   -4.8117   -8.9425 N   0  0  0  0  0  0  0  0  0  0  0  0
   -1.6806   -6.8562  -10.3888 C   0  0  0  0  0  0  0  0  0  0  0  0
   -1.7636   -7.1858  -11.4855 N   0  0  0  0  0  0  0  0  0  0  0  0
    1.6878    5.6836    5.5553 H   0  0  0  0  0  0  0  0  0  0  0  0
   -0.8025   10.2292    4.5676 H   0  0  0  0  0  0  0  0  0  0  0  0
   -0.2459    8.0156    0.0421 H   0  0  0  0  0  0  0  0  0  0  0  0
   -2.8257   10.2873   -0.0279 H   0  0  0  0  0  0  0  0  0  0  0  0
   -0.7110   11.3474   -1.2532 H   0  0  0  0  0  0  0  0  0  0  0  0
   -2.7133   13.0403   -1.4363 H   0  0  0  0  0  0  0  0  0  0  0  0
   -3.0062   14.2320    0.9201 H   0  0  0  0  0  0  0  0  0  0  0  0
   -1.1847   13.2745    2.5530 H   0  0  0  0  0  0  0  0  0  0  0  0
    0.2592   13.2293    0.3354 H   0  0  0  0  0  0  0  0  0  0  0  0
    0.4443   11.6603    1.1514 H   0  0  0  0  0  0  0  0  0  0  0  0
   -3.1140   11.4574    2.2811 H   0  0  0  0  0  0  0  0  0  0  0  0
    0.9273    4.2098    7.0986 H   0  0  0  0  0  0  0  0  0  0  0  0
    1.9498    4.3370    9.3302 H   0  0  0  0  0  0  0  0  0  0  0  0
    4.1693    3.3545    9.7367 H   0  0  0  0  0  0  0  0  0  0  0  0
    5.8883    1.7895    9.0025 H   0  0  0  0  0  0  0  0  0  0  0  0
    5.9244    1.2065    7.3318 H   0  0  0  0  0  0  0  0  0  0  0  0
    7.8545    2.7057    7.7896 H   0  0  0  0  0  0  0  0  0  0  0  0
    6.7870    3.4236    6.5786 H   0  0  0  0  0  0  0  0  0  0  0  0
    6.7488    4.0074    8.2419 H   0  0  0  0  0  0  0  0  0  0  0  0
    4.3716    2.1297    5.6562 H   0  0  0  0  0  0  0  0  0  0  0  0
   -2.1101   -7.6443   -2.0471 H   0  0  0  0  0  0  0  0  0  0  0  0
   -2.4281  -10.0758   -2.2785 H   0  0  0  0  0  0  0  0  0  0  0  0
   -1.5333  -11.2584   -4.2447 H   0  0  0  0  0  0  0  0  0  0  0  0
    0.1236   -9.5604   -7.0910 H   0  0  0  0  0  0  0  0  0  0  0  0
   -0.7102  -11.0360   -6.5838 H   0  0  0  0  0  0  0  0  0  0  0  0
    1.1790  -11.5700   -5.0411 H   0  0  0  0  0  0  0  0  0  0  0  0
    1.7451  -11.4034   -6.7066 H   0  0  0  0  0  0  0  0  0  0  0  0
    2.0086  -10.0980   -5.5456 H   0  0  0  0  0  0  0  0  0  0  0  0
    0.1532   -7.6117   -5.6716 H   0  0  0  0  0  0  0  0  0  0  0  0
    0.0167    1.8750    0.0997 H   0  0  0  0  0  0  0  0  0  0  0  0
   -0.6742    0.3221   -0.4401 H   0  0  0  0  0  0  0  0  0  0  0  0
   -1.3947    1.7520    2.1558 H   0  0  0  0  0  0  0  0  0  0  0  0
   -2.3930    1.6262    0.7084 H   0  0  0  0  0  0  0  0  0  0  0  0
   -2.0116    0.1764    1.6449 H   0  0  0  0  0  0  0  0  0  0  0  0
   -0.0013   -0.8126   -2.7600 H   0  0  0  0  0  0  0  0  0  0  0  0
    1.0208   -0.1318   -1.4649 H   0  0  0  0  0  0  0  0  0  0  0  0
    1.8586   -2.3477   -3.3858 H   0  0  0  0  0  0  0  0  0  0  0  0
    2.4182   -0.6766   -3.3840 H   0  0  0  0  0  0  0  0  0  0  0  0
    2.8256   -1.7426   -2.0350 H   0  0  0  0  0  0  0  0  0  0  0  0
   -1.0341   -4.6334   -6.8760 H   0  0  0  0  0  0  0  0  0  0  0  0
   -5.1586   -9.1525   -5.5037 H   0  0  0  0  0  0  0  0  0  0  0  0
   -3.5289   -8.4276  -10.1546 H   0  0  0  0  0  0  0  0  0  0  0  0
  1  2  2  0  0  0  0
  2  3  1  0  0  0  0
  3  4  2  0  0  0  0
  3  5  1  0  0  0  0
  5  6  2  0  0  0  0
  6  7  1  0  0  0  0
  7  8  2  0  0  0  0
  8  9  1  0  0  0  0
  9 10  2  0  0  0  0
 10 11  1  0  0  0  0
 11 12  2  0  0  0  0
 12 13  1  0  0  0  0
 13 14  3  0  0  0  0
 12 15  1  0  0  0  0
 15 16  3  0  0  0  0
  8 17  1  0  0  0  0
 17 18  1  0  0  0  0
 18 19  1  0  0  0  0
 19 20  2  0  0  0  0
 20 21  1  0  0  0  0
 21 22  1  0  0  0  0
 21 23  1  0  0  0  0
  1 24  1  0  0  0  0
 24 25  2  0  0  0  0
 25 26  1  0  0  0  0
 26 27  2  0  0  0  0
 27 28  1  0  0  0  0
 28 29  2  0  0  0  0
 29 30  1  0  0  0  0
 30 31  1  0  0  0  0
 31 32  1  0  0  0  0
 30 33  2  0  0  0  0
 25 34  1  0  0  0  0
 34 35  1  0  0  0  0
 35 36  1  0  0  0  0
 36 37  1  0  0  0  0
 37 38  1  0  0  0  0
 38 39  1  0  0  0  0
 39 40  2  0  0  0  0
 40 41  1  0  0  0  0
 41 42  1  0  0  0  0
 39 43  1  0  0  0  0
 43 44  1  0  0  0  0
 44 45  1  0  0  0  0
 45 46  1  0  0  0  0
 46 47  1  0  0  0  0
 47 48  1  0  0  0  0
 48 49  2  0  0  0  0
 49 50  1  0  0  0  0
 50 51  2  0  0  0  0
 51 52  1  0  0  0  0
 52 53  1  0  0  0  0
 53 54  1  0  0  0  0
 52 55  2  0  0  0  0
 47 56  2  0  0  0  0
 56 57  1  0  0  0  0
 57 58  1  0  0  0  0
 58 59  1  0  0  0  0
 59 60  1  0  0  0  0
 60 61  1  0  0  0  0
 61 62  1  0  0  0  0
 62 63  1  0  0  0  0
 63 64  1  0  0  0  0
 64 65  1  0  0  0  0
 65 66  1  0  0  0  0
 63 67  1  0  0  0  0
 67 68  1  0  0  0  0
 60 69  1  0  0  0  0
 69 70  1  0  0  0  0
 56 71  1  0  0  0  0
 71 72  2  0  0  0  0
 72 73  1  0  0  0  0
 73 74  2  0  0  0  0
 73 75  1  0  0  0  0
 75 76  2  0  0  0  0
 76 77  1  0  0  0  0
 77 78  1  0  0  0  0
 77 79  2  0  0  0  0
 79 80  1  0  0  0  0
 79 81  1  0  0  0  0
 81 82  2  0  0  0  0
 82 83  1  0  0  0  0
 83 84  2  0  0  0  0
 84 85  1  0  0  0  0
 85 86  3  0  0  0  0
 84 87  1  0  0  0  0
 87 88  3  0  0  0  0
 11  2  1  0  0  0  0
 23 17  1  0  0  0  0
 66 24  1  0  0  0  0
 83 72  1  0  0  0  0
 10  5  1  0  0  0  0
 22 18  1  0  0  0  0
 33 26  1  0  0  0  0
 65 34  2  0  0  0  0
 82 75  1  0  0  0  0
 23  7  1  0  0  0  0
 64 36  2  0  0  0  0
 62 37  2  0  0  0  0
 42 38  2  0  0  0  0
 61 43  2  0  0  0  0
 59 44  2  0  0  0  0
 58 46  2  0  0  0  0
 55 48  1  0  0  0  0
  1 89  1  0  0  0  0
  6 90  1  0  0  0  0
  9 91  1  0  0  0  0
 17 92  1  0  0  0  0
 18 93  1  0  0  0  0
 19 94  1  0  0  0  0
 20 95  1  0  0  0  0
 21 96  1  0  0  0  0
 22 97  1  0  0  0  0
 22 98  1  0  0  0  0
 23 99  1  0  0  0  0
 27100  1  0  0  0  0
 28101  1  0  0  0  0
 29102  1  0  0  0  0
 31103  1  0  0  0  0
 31104  1  0  0  0  0
 32105  1  0  0  0  0
 32106  1  0  0  0  0
 32107  1  0  0  0  0
 33108  1  0  0  0  0
 49109  1  0  0  0  0
 50110  1  0  0  0  0
 51111  1  0  0  0  0
 53112  1  0  0  0  0
 53113  1  0  0  0  0
 54114  1  0  0  0  0
 54115  1  0  0  0  0
 54116  1  0  0  0  0
 55117  1  0  0  0  0
 67118  1  0  0  0  0
 67119  1  0  0  0  0
 68120  1  0  0  0  0
 68121  1  0  0  0  0
 68122  1  0  0  0  0
 69123  1  0  0  0  0
 69124  1  0  0  0  0
 70125  1  0  0  0  0
 70126  1  0  0  0  0
 70127  1  0  0  0  0
 71128  1  0  0  0  0
 76129  1  0  0  0  0
 81130  1  0  0  0  0
M  END
