117

C          0.89410        4.13600        5.26980
C          1.91580        3.86520        6.12610
C          3.18750        3.22210        5.70580
O          3.60450        3.07040        4.57840
C          3.77160        2.67180        6.94260
C          4.91440        1.88110        7.04070
C          5.18980        1.45170        8.31630
C          4.38900        1.78330        9.41820
C          3.26430        2.56940        9.33810
C          2.96390        3.01320        8.04710
C          1.84380        3.81660        7.57250
C          0.92730        4.48200        8.34250
C         -0.07220        5.32460        7.81110
N         -0.88920        6.03900        7.43650
C          0.89540        4.44810        9.75130
N          0.81860        4.45290       10.89680
C          5.22990        0.97400       10.37300
C          4.68060       -0.40420       10.81930
C          3.77370       -0.88490        9.71370
C          4.53400       -1.19570        8.67230
C          5.96920       -0.93040        9.05510
C          5.91790       -1.27610       10.55180
C          6.12410        0.60830        9.14660
C          1.01650        4.22940        3.85490
C          1.91370        4.93320        3.07180
C          2.92070        5.90950        3.58950
C          4.33310        5.62170        3.08310
C          1.65610        4.72780        1.70510
S          2.43010        5.29850        0.24400
C          1.35300        4.32570       -0.69380
C          1.12030        3.98240       -2.03990
C          1.65860        4.48270       -3.25610
C          1.14100        3.98050       -4.48370
N          1.54700        4.48130       -5.65520
C          2.45440        5.43280       -5.61720
C          2.99120        5.89930       -4.41230
N          2.59650        5.43590       -3.24630
C          0.23570        2.88550       -4.43720
C         -0.26840        2.04650       -5.44700
S         -0.23520        1.90640       -7.17030
C         -1.11820        0.39450       -7.03750
C         -1.53650       -0.53510       -7.97730
C         -1.34720       -0.34460       -9.44660
C         -2.62010        0.20910      -10.09260
C         -2.18040       -1.63040       -7.36820
S         -2.26010       -1.46160       -5.61240
C         -1.42740        0.04150       -5.71100
C         -0.94680        0.99600       -4.81340
N         -0.92130        1.17100       -3.45110
C         -0.21830        2.33180       -3.21080
C          0.09330        3.00530       -2.01600
N         -0.35370        2.82220       -0.72210
C          0.42830        3.61540        0.08140
C          0.58610        3.86300        1.44720
S         -0.18180        3.35550        2.90250
C         -1.69790        2.45410       -0.32520
C         -2.52940        3.68900        0.02100
C         -1.03980        0.02320       -2.57460
C          0.10550       -0.96210       -2.80400
C         -2.66230       -2.72310       -8.08500
C         -3.28230       -3.90070       -7.71570
C         -3.60530       -4.26540       -6.36110
O         -3.39520       -3.55130       -5.38710
N         -4.17790       -5.51360       -6.17130
C         -4.48440       -5.88710       -4.79520
C         -5.91050       -5.50550       -4.42190
C         -4.49980       -6.37330       -7.18460
S         -5.21510       -7.82680       -6.86010
N         -4.21880       -6.00190       -8.46600
C         -4.53490       -6.91430       -9.55910
C         -3.42000       -7.92930       -9.77300
C         -3.60050       -4.80680       -8.81520
O         -3.35840       -4.55780       -9.98110
H         -0.11620        4.19510        5.66000
H          5.50020        1.64290        6.16670
H          2.65050        2.81050       10.19040
H          5.68680        1.52370       11.19320
H          4.26360       -0.41990       11.82260
H          2.70150       -0.89560        9.78070
H          4.22390       -1.51740        7.69530
H          6.72590       -1.42550        8.45220
H          6.80170       -0.95620       11.10180
H          5.73440       -2.33400       10.73320
H          7.16630        0.92090        9.16380
H          2.90790        5.89960        4.68010
H          2.61890        6.90800        3.25640
H          4.62210        4.60910        3.34840
H          4.38450        5.72910        2.00310
H          5.03390        6.31910        3.53520
H          2.76800        5.83360       -6.57120
H          3.75170        6.66760       -4.38950
H         -0.53220        0.36670       -9.59530
H         -1.07290       -1.28560       -9.92560
H         -2.45640        0.37150      -11.15450
H         -2.89300        1.15680       -9.63440
H         -3.44730       -0.48600       -9.97080
H         -2.18100        1.93660       -1.15290
H         -1.64100        1.79060        0.54380
H         -2.56040        4.37040       -0.82650
H         -3.54400        3.38630        0.26360
H         -2.11300        4.21320        0.87640
H         -1.01140        0.35050       -1.53790
H         -1.99610       -0.46620       -2.78060
H          0.08090       -1.35570       -3.81610
H          1.06270       -0.47130       -2.64010
H          0.01390       -1.79240       -2.10980
H         -2.51420       -2.65840       -9.15930
H         -4.33810       -6.96370       -4.69500
H         -3.77450       -5.35460       -4.15980
H         -6.05410       -4.43350       -4.53510
H         -6.09960       -5.77760       -3.38760
H         -6.62140       -6.03060       -5.05530
H         -4.65800       -6.29880      -10.45190
H         -5.47270       -7.41940       -9.32260
H         -3.28870       -8.54330       -8.88510
H         -2.48610       -7.41880       -9.99600
H         -3.67420       -8.57540      -10.60800
