
  xtb     02022206483D
 energy: -192.329741958709 gnorm: 0.000778862011 xtb: 6.4.1 (unknown)
110124  0     0  0            999 V2000
   -3.0612    0.3434   -4.7781 C   0  0  0  0  0  0  0  0  0  0  0  0
   -4.2988    0.1368   -5.3136 C   0  0  0  0  0  0  0  0  0  0  0  0
   -5.4659   -0.3785   -4.5569 C   0  0  0  0  0  0  0  0  0  0  0  0
   -5.5240   -0.6272   -3.3714 O   0  0  0  0  0  0  0  0  0  0  0  0
   -6.4928   -0.6841   -5.5707 C   0  0  0  0  0  0  0  0  0  0  0  0
   -7.7659   -1.1997   -5.3393 C   0  0  0  0  0  0  0  0  0  0  0  0
   -8.5047   -1.4016   -6.4802 C   0  0  0  0  0  0  0  0  0  0  0  0
   -8.0070   -1.1309   -7.7622 C   0  0  0  0  0  0  0  0  0  0  0  0
   -6.7503   -0.6312   -8.0060 C   0  0  0  0  0  0  0  0  0  0  0  0
   -5.9882   -0.4019   -6.8567 C   0  0  0  0  0  0  0  0  0  0  0  0
   -4.6353    0.1279   -6.7217 C   0  0  0  0  0  0  0  0  0  0  0  0
   -3.8547    0.6179   -7.7374 C   0  0  0  0  0  0  0  0  0  0  0  0
   -2.5920    1.2203   -7.5576 C   0  0  0  0  0  0  0  0  0  0  0  0
   -1.5711    1.7427   -7.4884 N   0  0  0  0  0  0  0  0  0  0  0  0
   -4.2202    0.6173   -9.0989 C   0  0  0  0  0  0  0  0  0  0  0  0
   -4.4504    0.6408  -10.2236 N   0  0  0  0  0  0  0  0  0  0  0  0
   -9.2809   -1.5731   -8.4373 C   0  0  0  0  0  0  0  0  0  0  0  0
  -10.2372   -0.4737   -8.9614 C   0  0  0  0  0  0  0  0  0  0  0  0
   -9.9894    0.7492   -8.1135 C   0  0  0  0  0  0  0  0  0  0  0  0
  -10.4619    0.5020   -6.8991 C   0  0  0  0  0  0  0  0  0  0  0  0
  -11.0381   -0.8924   -6.9039 C   0  0  0  0  0  0  0  0  0  0  0  0
  -11.5585   -0.9649   -8.3485 C   0  0  0  0  0  0  0  0  0  0  0  0
   -9.8384   -1.8668   -7.0088 C   0  0  0  0  0  0  0  0  0  0  0  0
   -2.7437    0.5566   -3.4144 C   0  0  0  0  0  0  0  0  0  0  0  0
   -3.3749    1.3110   -2.4347 C   0  0  0  0  0  0  0  0  0  0  0  0
   -4.5891    2.1622   -2.6231 C   0  0  0  0  0  0  0  0  0  0  0  0
   -5.7087    1.8048   -1.6462 C   0  0  0  0  0  0  0  0  0  0  0  0
   -2.6179    1.3332   -1.2531 C   0  0  0  0  0  0  0  0  0  0  0  0
   -2.8605    2.1149    0.2934 S   0  0  0  0  0  0  0  0  0  0  0  0
   -1.3605    1.4597    0.8431 C   0  0  0  0  0  0  0  0  0  0  0  0
   -0.5380    1.4963    1.9843 C   0  0  0  0  0  0  0  0  0  0  0  0
   -0.6325    2.2490    3.1855 C   0  0  0  0  0  0  0  0  0  0  0  0
    0.4590    2.2049    4.0965 C   0  0  0  0  0  0  0  0  0  0  0  0
    0.4674    2.9669    5.1956 N   0  0  0  0  0  0  0  0  0  0  0  0
   -0.5829    3.7318    5.4001 C   0  0  0  0  0  0  0  0  0  0  0  0
   -1.6720    3.7491    4.5215 C   0  0  0  0  0  0  0  0  0  0  0  0
   -1.6966    3.0230    3.4251 N   0  0  0  0  0  0  0  0  0  0  0  0
    1.5161    1.2917    3.8381 C   0  0  0  0  0  0  0  0  0  0  0  0
    2.6442    0.9337    4.5966 C   0  0  0  0  0  0  0  0  0  0  0  0
    3.4400    1.4126    6.0535 S   0  0  0  0  0  0  0  0  0  0  0  0
    4.6355    0.1597    5.7777 C   0  0  0  0  0  0  0  0  0  0  0  0
    5.7696   -0.2250    6.4816 C   0  0  0  0  0  0  0  0  0  0  0  0
    6.1778    0.4125    7.7694 C   0  0  0  0  0  0  0  0  0  0  0  0
    5.6567   -0.3906    8.9643 C   0  0  0  0  0  0  0  0  0  0  0  0
    6.4205   -1.3001    5.8536 C   0  0  0  0  0  0  0  0  0  0  0  0
    5.5983   -1.8093    4.3775 S   0  0  0  0  0  0  0  0  0  0  0  0
    4.4041   -0.5898    4.6114 C   0  0  0  0  0  0  0  0  0  0  0  0
    3.2663   -0.1372    3.9394 C   0  0  0  0  0  0  0  0  0  0  0  0
    2.5815   -0.4425    2.7877 N   0  0  0  0  0  0  0  0  0  0  0  0
    1.5316    0.4471    2.6965 C   0  0  0  0  0  0  0  0  0  0  0  0
    0.5798    0.6760    1.6851 C   0  0  0  0  0  0  0  0  0  0  0  0
    0.4822    0.2045    0.3896 N   0  0  0  0  0  0  0  0  0  0  0  0
   -0.7045    0.6790   -0.1166 C   0  0  0  0  0  0  0  0  0  0  0  0
   -1.4170    0.6142   -1.3166 C   0  0  0  0  0  0  0  0  0  0  0  0
   -1.1897   -0.0842   -2.8733 S   0  0  0  0  0  0  0  0  0  0  0  0
    1.5841   -0.0950   -0.5036 C   0  0  0  0  0  0  0  0  0  0  0  0
    1.9776    1.1323   -1.3252 C   0  0  0  0  0  0  0  0  0  0  0  0
    2.6402   -1.7771    2.2256 C   0  0  0  0  0  0  0  0  0  0  0  0
    2.2341   -2.8300    3.2561 C   0  0  0  0  0  0  0  0  0  0  0  0
    7.5938   -1.8773    6.3534 C   0  0  0  0  0  0  0  0  0  0  0  0
    8.3509   -2.9238    5.8947 C   0  0  0  0  0  0  0  0  0  0  0  0
    8.0911   -3.7533    4.7028 C   0  0  0  0  0  0  0  0  0  0  0  0
    7.1690   -3.6482    3.9142 O   0  0  0  0  0  0  0  0  0  0  0  0
    9.1827   -4.7358    4.6634 C   0  0  0  0  0  0  0  0  0  0  0  0
    9.5985   -5.8094    3.8588 C   0  0  0  0  0  0  0  0  0  0  0  0
   10.7444   -6.3668    4.3451 C   0  0  0  0  0  0  0  0  0  0  0  0
   11.3388   -5.6073    5.7777 S   0  0  0  0  0  0  0  0  0  0  0  0
   10.0258   -4.5071    5.7404 C   0  0  0  0  0  0  0  0  0  0  0  0
    9.5663   -3.4000    6.5363 C   0  0  0  0  0  0  0  0  0  0  0  0
   10.2016   -2.9347    7.6616 C   0  0  0  0  0  0  0  0  0  0  0  0
   11.3887   -3.5443    8.1179 C   0  0  0  0  0  0  0  0  0  0  0  0
   12.3542   -4.0368    8.4956 N   0  0  0  0  0  0  0  0  0  0  0  0
    9.7866   -1.8536    8.4599 C   0  0  0  0  0  0  0  0  0  0  0  0
    9.4977   -0.9831    9.1526 N   0  0  0  0  0  0  0  0  0  0  0  0
   -2.2039    0.3067   -5.4414 H   0  0  0  0  0  0  0  0  0  0  0  0
   -8.1070   -1.4042   -4.3364 H   0  0  0  0  0  0  0  0  0  0  0  0
   -6.3769   -0.4376   -8.9978 H   0  0  0  0  0  0  0  0  0  0  0  0
   -9.1881   -2.4075   -9.1296 H   0  0  0  0  0  0  0  0  0  0  0  0
  -10.2080   -0.3256  -10.0375 H   0  0  0  0  0  0  0  0  0  0  0  0
   -9.4611    1.6190   -8.4576 H   0  0  0  0  0  0  0  0  0  0  0  0
  -10.4071    1.1243   -6.0250 H   0  0  0  0  0  0  0  0  0  0  0  0
  -11.7396   -1.1246   -6.1069 H   0  0  0  0  0  0  0  0  0  0  0  0
  -11.8339   -1.9713   -8.6606 H   0  0  0  0  0  0  0  0  0  0  0  0
  -12.3873   -0.2829   -8.5324 H   0  0  0  0  0  0  0  0  0  0  0  0
  -10.1154   -2.8918   -6.7697 H   0  0  0  0  0  0  0  0  0  0  0  0
   -4.2909    3.2024   -2.4538 H   0  0  0  0  0  0  0  0  0  0  0  0
   -4.9479    2.0745   -3.6489 H   0  0  0  0  0  0  0  0  0  0  0  0
   -6.5732    2.4372   -1.8325 H   0  0  0  0  0  0  0  0  0  0  0  0
   -5.9969    0.7661   -1.7771 H   0  0  0  0  0  0  0  0  0  0  0  0
   -5.3835    1.9531   -0.6199 H   0  0  0  0  0  0  0  0  0  0  0  0
   -0.5620    4.3455    6.2900 H   0  0  0  0  0  0  0  0  0  0  0  0
   -2.5400    4.3667    4.7063 H   0  0  0  0  0  0  0  0  0  0  0  0
    7.2632    0.4999    7.8377 H   0  0  0  0  0  0  0  0  0  0  0  0
    5.7511    1.4169    7.8021 H   0  0  0  0  0  0  0  0  0  0  0  0
    5.9535    0.0932    9.8903 H   0  0  0  0  0  0  0  0  0  0  0  0
    6.0630   -1.3993    8.9572 H   0  0  0  0  0  0  0  0  0  0  0  0
    4.5714   -0.4526    8.9335 H   0  0  0  0  0  0  0  0  0  0  0  0
    1.2781   -0.9073   -1.1700 H   0  0  0  0  0  0  0  0  0  0  0  0
    2.4471   -0.4075    0.0803 H   0  0  0  0  0  0  0  0  0  0  0  0
    2.2479    1.9542   -0.6654 H   0  0  0  0  0  0  0  0  0  0  0  0
    2.8319    0.8911   -1.9512 H   0  0  0  0  0  0  0  0  0  0  0  0
    1.1613    1.4526   -1.9662 H   0  0  0  0  0  0  0  0  0  0  0  0
    1.9515   -1.8387    1.3848 H   0  0  0  0  0  0  0  0  0  0  0  0
    3.6620   -1.9707    1.8844 H   0  0  0  0  0  0  0  0  0  0  0  0
    2.2268   -3.8095    2.7866 H   0  0  0  0  0  0  0  0  0  0  0  0
    2.9338   -2.8537    4.0862 H   0  0  0  0  0  0  0  0  0  0  0  0
    1.2383   -2.6173    3.6396 H   0  0  0  0  0  0  0  0  0  0  0  0
    7.9508   -1.4048    7.2590 H   0  0  0  0  0  0  0  0  0  0  0  0
    9.0846   -6.1479    2.9784 H   0  0  0  0  0  0  0  0  0  0  0  0
   11.2904   -7.1971    3.9416 H   0  0  0  0  0  0  0  0  0  0  0  0
  1  2  2  0  0  0  0
  2  3  1  0  0  0  0
  3  4  2  0  0  0  0
  3  5  1  0  0  0  0
  5  6  2  0  0  0  0
  6  7  1  0  0  0  0
  7  8  2  0  0  0  0
  8  9  1  0  0  0  0
  9 10  2  0  0  0  0
 10 11  1  0  0  0  0
 11 12  2  0  0  0  0
 12 13  1  0  0  0  0
 13 14  3  0  0  0  0
 12 15  1  0  0  0  0
 15 16  3  0  0  0  0
  8 17  1  0  0  0  0
 17 18  1  0  0  0  0
 18 19  1  0  0  0  0
 19 20  2  0  0  0  0
 20 21  1  0  0  0  0
 21 22  1  0  0  0  0
 21 23  1  0  0  0  0
  1 24  1  0  0  0  0
 24 25  2  0  0  0  0
 25 26  1  0  0  0  0
 26 27  1  0  0  0  0
 25 28  1  0  0  0  0
 28 29  1  0  0  0  0
 29 30  1  0  0  0  0
 30 31  1  0  0  0  0
 31 32  2  0  0  0  0
 32 33  1  0  0  0  0
 33 34  1  0  0  0  0
 34 35  2  0  0  0  0
 35 36  1  0  0  0  0
 36 37  2  0  0  0  0
 33 38  2  0  0  0  0
 38 39  1  0  0  0  0
 39 40  1  0  0  0  0
 40 41  1  0  0  0  0
 41 42  1  0  0  0  0
 42 43  1  0  0  0  0
 43 44  1  0  0  0  0
 42 45  2  0  0  0  0
 45 46  1  0  0  0  0
 46 47  1  0  0  0  0
 47 48  1  0  0  0  0
 48 49  1  0  0  0  0
 49 50  1  0  0  0  0
 50 51  2  0  0  0  0
 51 52  1  0  0  0  0
 52 53  1  0  0  0  0
 53 54  1  0  0  0  0
 54 55  1  0  0  0  0
 52 56  1  0  0  0  0
 56 57  1  0  0  0  0
 49 58  1  0  0  0  0
 58 59  1  0  0  0  0
 45 60  1  0  0  0  0
 60 61  2  0  0  0  0
 61 62  1  0  0  0  0
 62 63  2  0  0  0  0
 62 64  1  0  0  0  0
 64 65  1  0  0  0  0
 65 66  2  0  0  0  0
 66 67  1  0  0  0  0
 67 68  1  0  0  0  0
 68 69  1  0  0  0  0
 69 70  2  0  0  0  0
 70 71  1  0  0  0  0
 71 72  3  0  0  0  0
 70 73  1  0  0  0  0
 73 74  3  0  0  0  0
 11  2  1  0  0  0  0
 23 17  1  0  0  0  0
 55 24  1  0  0  0  0
 69 61  1  0  0  0  0
 10  5  1  0  0  0  0
 22 18  1  0  0  0  0
 54 28  2  0  0  0  0
 68 64  2  0  0  0  0
 23  7  1  0  0  0  0
 53 30  2  0  0  0  0
 51 31  1  0  0  0  0
 37 32  1  0  0  0  0
 50 38  1  0  0  0  0
 48 39  2  0  0  0  0
 47 41  2  0  0  0  0
  1 75  1  0  0  0  0
  6 76  1  0  0  0  0
  9 77  1  0  0  0  0
 17 78  1  0  0  0  0
 18 79  1  0  0  0  0
 19 80  1  0  0  0  0
 20 81  1  0  0  0  0
 21 82  1  0  0  0  0
 22 83  1  0  0  0  0
 22 84  1  0  0  0  0
 23 85  1  0  0  0  0
 26 86  1  0  0  0  0
 26 87  1  0  0  0  0
 27 88  1  0  0  0  0
 27 89  1  0  0  0  0
 27 90  1  0  0  0  0
 35 91  1  0  0  0  0
 36 92  1  0  0  0  0
 43 93  1  0  0  0  0
 43 94  1  0  0  0  0
 44 95  1  0  0  0  0
 44 96  1  0  0  0  0
 44 97  1  0  0  0  0
 56 98  1  0  0  0  0
 56 99  1  0  0  0  0
 57100  1  0  0  0  0
 57101  1  0  0  0  0
 57102  1  0  0  0  0
 58103  1  0  0  0  0
 58104  1  0  0  0  0
 59105  1  0  0  0  0
 59106  1  0  0  0  0
 59107  1  0  0  0  0
 60108  1  0  0  0  0
 65109  1  0  0  0  0
 66110  1  0  0  0  0
M  END
