
  xtb     02012221513D
 energy: -289.456084104280 gnorm: 0.000527596479 xtb: 6.4.1 (unknown)
171188  0     0  0            999 V2000
    5.9502   -2.9673   -2.7105 C   0  0  0  0  0  0  0  0  0  0  0  0
    6.1569   -2.8358   -4.0568 C   0  0  0  0  0  0  0  0  0  0  0  0
    5.1832   -2.3359   -5.0378 C   0  0  0  0  0  0  0  0  0  0  0  0
    3.9914   -2.1455   -4.8715 O   0  0  0  0  0  0  0  0  0  0  0  0
    5.9364   -2.0989   -6.2801 C   0  0  0  0  0  0  0  0  0  0  0  0
    5.4516   -1.5364   -7.4591 C   0  0  0  0  0  0  0  0  0  0  0  0
    6.4028   -1.3875   -8.4391 C   0  0  0  0  0  0  0  0  0  0  0  0
    7.7387   -1.7726   -8.2617 C   0  0  0  0  0  0  0  0  0  0  0  0
    8.2275   -2.3384   -7.1079 C   0  0  0  0  0  0  0  0  0  0  0  0
    7.2753   -2.4999   -6.0966 C   0  0  0  0  0  0  0  0  0  0  0  0
    7.4197   -3.0363   -4.7446 C   0  0  0  0  0  0  0  0  0  0  0  0
    8.5390   -3.6527   -4.2499 C   0  0  0  0  0  0  0  0  0  0  0  0
    9.7325   -3.8415   -4.9782 C   0  0  0  0  0  0  0  0  0  0  0  0
   10.7327   -4.0306   -5.5091 N   0  0  0  0  0  0  0  0  0  0  0  0
    8.6589   -4.2202   -2.9636 C   0  0  0  0  0  0  0  0  0  0  0  0
    8.8351   -4.7113   -1.9402 N   0  0  0  0  0  0  0  0  0  0  0  0
    8.1353   -1.3244   -9.6464 C   0  0  0  0  0  0  0  0  0  0  0  0
    8.3177   -2.4329  -10.7044 C   0  0  0  0  0  0  0  0  0  0  0  0
    8.2224   -1.6951  -12.0205 C   0  0  0  0  0  0  0  0  0  0  0  0
    6.9572   -1.3327  -12.1893 C   0  0  0  0  0  0  0  0  0  0  0  0
    6.1757   -1.8195  -10.9902 C   0  0  0  0  0  0  0  0  0  0  0  0
    6.9424   -3.1123  -10.6826 C   0  0  0  0  0  0  0  0  0  0  0  0
    6.6449   -0.8975   -9.8448 C   0  0  0  0  0  0  0  0  0  0  0  0
    4.8109   -2.6857   -1.9368 C   0  0  0  0  0  0  0  0  0  0  0  0
    4.8535   -2.6884   -0.5419 C   0  0  0  0  0  0  0  0  0  0  0  0
    3.6568   -2.2851    0.0191 C   0  0  0  0  0  0  0  0  0  0  0  0
    3.1329   -1.9771    1.6548 S   0  0  0  0  0  0  0  0  0  0  0  0
    1.6067   -1.4426    1.0355 C   0  0  0  0  0  0  0  0  0  0  0  0
    0.4380   -0.8442    1.5999 C   0  0  0  0  0  0  0  0  0  0  0  0
    0.1263   -0.5206    2.9172 C   0  0  0  0  0  0  0  0  0  0  0  0
   -1.0697    0.1192    3.1385 C   0  0  0  0  0  0  0  0  0  0  0  0
   -1.6492    0.5794    4.4648 C   0  0  0  0  0  0  0  0  0  0  0  0
   -0.9510    1.7677    5.0977 C   0  0  0  0  0  0  0  0  0  0  0  0
   -1.2362    2.0864    6.4213 C   0  0  0  0  0  0  0  0  0  0  0  0
   -0.8525    3.3050    6.9432 C   0  0  0  0  0  0  0  0  0  0  0  0
   -0.1838    4.2321    6.1522 C   0  0  0  0  0  0  0  0  0  0  0  0
    0.0354    5.6241    6.6886 C   0  0  0  0  0  0  0  0  0  0  0  0
   -1.1862    6.2260    7.0846 O   0  0  0  0  0  0  0  0  0  0  0  0
   -2.0641    6.4441    6.0299 C   0  0  0  0  0  0  0  0  0  0  0  0
   -3.2624    6.8860    6.5780 O   0  0  0  0  0  0  0  0  0  0  0  0
   -4.2101    7.2353    5.6023 C   0  0  0  0  0  0  0  0  0  0  0  0
    0.1604    3.8846    4.8536 C   0  0  0  0  0  0  0  0  0  0  0  0
   -0.2199    2.6619    4.3285 C   0  0  0  0  0  0  0  0  0  0  0  0
   -1.7426   -0.6313    5.3638 C   0  0  0  0  0  0  0  0  0  0  0  0
   -0.6407   -1.0108    6.1203 C   0  0  0  0  0  0  0  0  0  0  0  0
   -0.6596   -2.1943    6.8310 C   0  0  0  0  0  0  0  0  0  0  0  0
   -1.7741   -3.0238    6.7940 C   0  0  0  0  0  0  0  0  0  0  0  0
   -1.7118   -4.3724    7.4615 C   0  0  0  0  0  0  0  0  0  0  0  0
   -0.7782   -5.2353    6.8218 O   0  0  0  0  0  0  0  0  0  0  0  0
   -1.1732   -5.6969    5.5685 C   0  0  0  0  0  0  0  0  0  0  0  0
   -1.1964   -4.7331    4.5605 O   0  0  0  0  0  0  0  0  0  0  0  0
    0.0780   -4.2600    4.1822 C   0  0  0  0  0  0  0  0  0  0  0  0
   -2.8862   -2.6234    6.0689 C   0  0  0  0  0  0  0  0  0  0  0  0
   -2.8706   -1.4380    5.3574 C   0  0  0  0  0  0  0  0  0  0  0  0
   -2.9589    1.1678    4.0080 C   0  0  0  0  0  0  0  0  0  0  0  0
   -3.0791    1.0893    2.6309 C   0  0  0  0  0  0  0  0  0  0  0  0
   -1.9517    0.4087    2.0697 C   0  0  0  0  0  0  0  0  0  0  0  0
   -1.6458    0.0700    0.7540 C   0  0  0  0  0  0  0  0  0  0  0  0
   -0.4372   -0.5469    0.5281 C   0  0  0  0  0  0  0  0  0  0  0  0
    0.1438   -1.0280   -0.7911 C   0  0  0  0  0  0  0  0  0  0  0  0
    0.3827    0.0422   -1.8368 C   0  0  0  0  0  0  0  0  0  0  0  0
    0.4068    1.3929   -1.5194 C   0  0  0  0  0  0  0  0  0  0  0  0
    0.7113    2.3318   -2.4884 C   0  0  0  0  0  0  0  0  0  0  0  0
    1.0095    1.9388   -3.7870 C   0  0  0  0  0  0  0  0  0  0  0  0
    1.3577    2.9771   -4.8211 C   0  0  0  0  0  0  0  0  0  0  0  0
    1.6750    2.3664   -6.0453 O   0  0  0  0  0  0  0  0  0  0  0  0
    2.1105    3.2701   -7.0258 C   0  0  0  0  0  0  0  0  0  0  0  0
    2.3637    2.6111   -8.2094 O   0  0  0  0  0  0  0  0  0  0  0  0
    3.4150    1.6682   -8.1217 C   0  0  0  0  0  0  0  0  0  0  0  0
    0.9886    0.5885   -4.1023 C   0  0  0  0  0  0  0  0  0  0  0  0
    0.6790   -0.3493   -3.1367 C   0  0  0  0  0  0  0  0  0  0  0  0
   -0.7701   -2.1288   -1.3054 C   0  0  0  0  0  0  0  0  0  0  0  0
   -1.8639   -1.8041   -2.0975 C   0  0  0  0  0  0  0  0  0  0  0  0
   -2.7235   -2.7897   -2.5458 C   0  0  0  0  0  0  0  0  0  0  0  0
   -2.5192   -4.1175   -2.1962 C   0  0  0  0  0  0  0  0  0  0  0  0
   -3.4412   -5.2058   -2.6852 C   0  0  0  0  0  0  0  0  0  0  0  0
   -2.7423   -6.3575   -3.1444 O   0  0  0  0  0  0  0  0  0  0  0  0
   -1.9994   -6.1461   -4.2879 C   0  0  0  0  0  0  0  0  0  0  0  0
   -2.8356   -5.8130   -5.3679 O   0  0  0  0  0  0  0  0  0  0  0  0
   -2.1305   -5.6325   -6.5669 C   0  0  0  0  0  0  0  0  0  0  0  0
   -1.4346   -4.4379   -1.3897 C   0  0  0  0  0  0  0  0  0  0  0  0
   -0.5688   -3.4552   -0.9483 C   0  0  0  0  0  0  0  0  0  0  0  0
    1.4869   -1.5378   -0.3398 C   0  0  0  0  0  0  0  0  0  0  0  0
    2.6582   -2.0020   -0.9367 C   0  0  0  0  0  0  0  0  0  0  0  0
    3.2275   -2.2172   -2.5460 S   0  0  0  0  0  0  0  0  0  0  0  0
   -4.4515    1.9328    1.9950 S   0  0  0  0  0  0  0  0  0  0  0  0
   -4.8504    2.4661    3.6063 C   0  0  0  0  0  0  0  0  0  0  0  0
   -5.8034    3.3372    4.1174 C   0  0  0  0  0  0  0  0  0  0  0  0
   -5.6714    3.5012    5.4874 C   0  0  0  0  0  0  0  0  0  0  0  0
   -4.3569    2.5170    6.1438 S   0  0  0  0  0  0  0  0  0  0  0  0
   -3.9629    1.9509    4.5731 C   0  0  0  0  0  0  0  0  0  0  0  0
   -6.3723    4.2805    6.4290 C   0  0  0  0  0  0  0  0  0  0  0  0
   -7.2272    5.3348    6.2630 C   0  0  0  0  0  0  0  0  0  0  0  0
   -7.5063    6.0931    5.0136 C   0  0  0  0  0  0  0  0  0  0  0  0
   -7.1733    5.8234    3.8759 O   0  0  0  0  0  0  0  0  0  0  0  0
   -8.2419    7.2819    5.4481 C   0  0  0  0  0  0  0  0  0  0  0  0
   -8.4564    7.2308    6.8630 C   0  0  0  0  0  0  0  0  0  0  0  0
   -9.1390    8.3093    7.3308 C   0  0  0  0  0  0  0  0  0  0  0  0
   -9.5234    9.3978    6.0461 S   0  0  0  0  0  0  0  0  0  0  0  0
   -8.7556    8.3884    4.8452 C   0  0  0  0  0  0  0  0  0  0  0  0
   -8.7187    8.7605    3.4134 C   0  0  0  0  0  0  0  0  0  0  0  0
   -7.8733    6.0110    7.3801 C   0  0  0  0  0  0  0  0  0  0  0  0
   -7.9888    5.5891    8.6788 C   0  0  0  0  0  0  0  0  0  0  0  0
   -7.5208    4.3690    9.2041 C   0  0  0  0  0  0  0  0  0  0  0  0
   -7.1922    3.3832    9.6939 N   0  0  0  0  0  0  0  0  0  0  0  0
   -8.6615    6.3727    9.6394 C   0  0  0  0  0  0  0  0  0  0  0  0
   -9.2093    6.9966   10.4317 N   0  0  0  0  0  0  0  0  0  0  0  0
    6.8005   -3.2736   -2.1126 H   0  0  0  0  0  0  0  0  0  0  0  0
    4.4166   -1.2489   -7.5527 H   0  0  0  0  0  0  0  0  0  0  0  0
    9.2596   -2.6209   -6.9849 H   0  0  0  0  0  0  0  0  0  0  0  0
    8.9077   -0.5593   -9.6938 H   0  0  0  0  0  0  0  0  0  0  0  0
    9.1909   -3.0624  -10.5575 H   0  0  0  0  0  0  0  0  0  0  0  0
    9.0670   -1.4724  -12.6457 H   0  0  0  0  0  0  0  0  0  0  0  0
    6.5336   -0.7466  -12.9836 H   0  0  0  0  0  0  0  0  0  0  0  0
    5.0974   -1.8909  -11.1047 H   0  0  0  0  0  0  0  0  0  0  0  0
    6.6856   -3.5641   -9.7262 H   0  0  0  0  0  0  0  0  0  0  0  0
    6.8366   -3.8516  -11.4746 H   0  0  0  0  0  0  0  0  0  0  0  0
    6.4228    0.1527  -10.0252 H   0  0  0  0  0  0  0  0  0  0  0  0
    5.7365   -2.9500    0.0128 H   0  0  0  0  0  0  0  0  0  0  0  0
    0.8074   -0.7546    3.7205 H   0  0  0  0  0  0  0  0  0  0  0  0
   -1.7888    1.3878    7.0320 H   0  0  0  0  0  0  0  0  0  0  0  0
   -1.1165    3.5710    7.9552 H   0  0  0  0  0  0  0  0  0  0  0  0
    0.5407    6.2502    5.9376 H   0  0  0  0  0  0  0  0  0  0  0  0
    0.6367    5.6043    7.6010 H   0  0  0  0  0  0  0  0  0  0  0  0
   -2.2288    5.5109    5.4454 H   0  0  0  0  0  0  0  0  0  0  0  0
   -1.6499    7.2076    5.3305 H   0  0  0  0  0  0  0  0  0  0  0  0
   -5.0887    7.5836    6.1406 H   0  0  0  0  0  0  0  0  0  0  0  0
   -4.4787    6.3758    4.9749 H   0  0  0  0  0  0  0  0  0  0  0  0
   -3.8378    8.0384    4.9542 H   0  0  0  0  0  0  0  0  0  0  0  0
    0.6993    4.5873    4.2339 H   0  0  0  0  0  0  0  0  0  0  0  0
    0.0191    2.4201    3.3030 H   0  0  0  0  0  0  0  0  0  0  0  0
    0.2349   -0.3779    6.1481 H   0  0  0  0  0  0  0  0  0  0  0  0
    0.2049   -2.4951    7.4053 H   0  0  0  0  0  0  0  0  0  0  0  0
   -1.3443   -4.2828    8.4874 H   0  0  0  0  0  0  0  0  0  0  0  0
   -2.7038   -4.8446    7.4699 H   0  0  0  0  0  0  0  0  0  0  0  0
   -0.4619   -6.5024    5.3270 H   0  0  0  0  0  0  0  0  0  0  0  0
   -2.1985   -6.0969    5.6018 H   0  0  0  0  0  0  0  0  0  0  0  0
    0.6828   -5.0712    3.7605 H   0  0  0  0  0  0  0  0  0  0  0  0
   -0.0944   -3.4941    3.4285 H   0  0  0  0  0  0  0  0  0  0  0  0
    0.6072   -3.8242    5.0344 H   0  0  0  0  0  0  0  0  0  0  0  0
   -3.7632   -3.2529    6.0383 H   0  0  0  0  0  0  0  0  0  0  0  0
   -3.7348   -1.1499    4.7768 H   0  0  0  0  0  0  0  0  0  0  0  0
   -2.3294    0.2979   -0.0490 H   0  0  0  0  0  0  0  0  0  0  0  0
    0.1891    1.7154   -0.5117 H   0  0  0  0  0  0  0  0  0  0  0  0
    0.7241    3.3814   -2.2304 H   0  0  0  0  0  0  0  0  0  0  0  0
    2.2163    3.5749   -4.4668 H   0  0  0  0  0  0  0  0  0  0  0  0
    0.5100    3.6715   -4.9541 H   0  0  0  0  0  0  0  0  0  0  0  0
    1.3286    4.0142   -7.2480 H   0  0  0  0  0  0  0  0  0  0  0  0
    3.0174    3.8017   -6.6567 H   0  0  0  0  0  0  0  0  0  0  0  0
    3.4956    1.2139   -9.1066 H   0  0  0  0  0  0  0  0  0  0  0  0
    4.3594    2.1616   -7.8610 H   0  0  0  0  0  0  0  0  0  0  0  0
    3.1911    0.9058   -7.3723 H   0  0  0  0  0  0  0  0  0  0  0  0
    1.2232    0.2775   -5.1063 H   0  0  0  0  0  0  0  0  0  0  0  0
    0.6673   -1.3971   -3.3967 H   0  0  0  0  0  0  0  0  0  0  0  0
   -2.0323   -0.7763   -2.3840 H   0  0  0  0  0  0  0  0  0  0  0  0
   -3.5611   -2.5244   -3.1744 H   0  0  0  0  0  0  0  0  0  0  0  0
   -4.0935   -4.8272   -3.4797 H   0  0  0  0  0  0  0  0  0  0  0  0
   -4.0598   -5.5745   -1.8614 H   0  0  0  0  0  0  0  0  0  0  0  0
   -1.2481   -5.3391   -4.1450 H   0  0  0  0  0  0  0  0  0  0  0  0
   -1.4703   -7.0923   -4.4857 H   0  0  0  0  0  0  0  0  0  0  0  0
   -2.8683   -5.3676   -7.3208 H   0  0  0  0  0  0  0  0  0  0  0  0
   -1.6131   -6.5524   -6.8654 H   0  0  0  0  0  0  0  0  0  0  0  0
   -1.3913   -4.8268   -6.4736 H   0  0  0  0  0  0  0  0  0  0  0  0
   -1.2699   -5.4701   -1.1185 H   0  0  0  0  0  0  0  0  0  0  0  0
    0.2686   -3.7269   -0.3226 H   0  0  0  0  0  0  0  0  0  0  0  0
   -6.5464    3.8457    3.5329 H   0  0  0  0  0  0  0  0  0  0  0  0
   -6.1434    4.0121    7.4542 H   0  0  0  0  0  0  0  0  0  0  0  0
   -9.4412    8.5507    8.3300 H   0  0  0  0  0  0  0  0  0  0  0  0
   -9.7282    8.8673    3.0174 H   0  0  0  0  0  0  0  0  0  0  0  0
   -8.1948    7.9858    2.8581 H   0  0  0  0  0  0  0  0  0  0  0  0
   -8.2054    9.7118    3.2763 H   0  0  0  0  0  0  0  0  0  0  0  0
  1  2  2  0  0  0  0
  2  3  1  0  0  0  0
  3  4  2  0  0  0  0
  3  5  1  0  0  0  0
  5  6  2  0  0  0  0
  6  7  1  0  0  0  0
  7  8  2  0  0  0  0
  8  9  1  0  0  0  0
  9 10  2  0  0  0  0
 10 11  1  0  0  0  0
 11 12  2  0  0  0  0
 12 13  1  0  0  0  0
 13 14  3  0  0  0  0
 12 15  1  0  0  0  0
 15 16  3  0  0  0  0
  8 17  1  0  0  0  0
 17 18  1  0  0  0  0
 18 19  1  0  0  0  0
 19 20  2  0  0  0  0
 20 21  1  0  0  0  0
 21 22  1  0  0  0  0
 21 23  1  0  0  0  0
  1 24  1  0  0  0  0
 24 25  2  0  0  0  0
 25 26  1  0  0  0  0
 26 27  1  0  0  0  0
 27 28  1  0  0  0  0
 28 29  1  0  0  0  0
 29 30  2  0  0  0  0
 30 31  1  0  0  0  0
 31 32  1  0  0  0  0
 32 33  1  0  0  0  0
 33 34  2  0  0  0  0
 34 35  1  0  0  0  0
 35 36  2  0  0  0  0
 36 37  1  0  0  0  0
 37 38  1  0  0  0  0
 38 39  1  0  0  0  0
 39 40  1  0  0  0  0
 40 41  1  0  0  0  0
 36 42  1  0  0  0  0
 42 43  2  0  0  0  0
 32 44  1  0  0  0  0
 44 45  2  0  0  0  0
 45 46  1  0  0  0  0
 46 47  2  0  0  0  0
 47 48  1  0  0  0  0
 48 49  1  0  0  0  0
 49 50  1  0  0  0  0
 50 51  1  0  0  0  0
 51 52  1  0  0  0  0
 47 53  1  0  0  0  0
 53 54  2  0  0  0  0
 32 55  1  0  0  0  0
 55 56  2  0  0  0  0
 56 57  1  0  0  0  0
 57 58  1  0  0  0  0
 58 59  2  0  0  0  0
 59 60  1  0  0  0  0
 60 61  1  0  0  0  0
 61 62  2  0  0  0  0
 62 63  1  0  0  0  0
 63 64  2  0  0  0  0
 64 65  1  0  0  0  0
 65 66  1  0  0  0  0
 66 67  1  0  0  0  0
 67 68  1  0  0  0  0
 68 69  1  0  0  0  0
 64 70  1  0  0  0  0
 70 71  2  0  0  0  0
 60 72  1  0  0  0  0
 72 73  2  0  0  0  0
 73 74  1  0  0  0  0
 74 75  2  0  0  0  0
 75 76  1  0  0  0  0
 76 77  1  0  0  0  0
 77 78  1  0  0  0  0
 78 79  1  0  0  0  0
 79 80  1  0  0  0  0
 75 81  1  0  0  0  0
 81 82  2  0  0  0  0
 60 83  1  0  0  0  0
 83 84  1  0  0  0  0
 84 85  1  0  0  0  0
 56 86  1  0  0  0  0
 86 87  1  0  0  0  0
 87 88  1  0  0  0  0
 88 89  2  0  0  0  0
 89 90  1  0  0  0  0
 90 91  1  0  0  0  0
 89 92  1  0  0  0  0
 92 93  2  0  0  0  0
 93 94  1  0  0  0  0
 94 95  2  0  0  0  0
 94 96  1  0  0  0  0
 96 97  1  0  0  0  0
 97 98  2  0  0  0  0
 98 99  1  0  0  0  0
 99100  1  0  0  0  0
100101  1  0  0  0  0
 97102  1  0  0  0  0
102103  2  0  0  0  0
103104  1  0  0  0  0
104105  3  0  0  0  0
103106  1  0  0  0  0
106107  3  0  0  0  0
 11  2  1  0  0  0  0
 23 17  1  0  0  0  0
 85 24  1  0  0  0  0
 91 87  2  0  0  0  0
102 93  1  0  0  0  0
 10  5  1  0  0  0  0
 22 18  1  0  0  0  0
 84 26  2  0  0  0  0
100 96  2  0  0  0  0
 23  7  1  0  0  0  0
 83 28  2  0  0  0  0
 59 29  1  0  0  0  0
 71 61  1  0  0  0  0
 82 72  1  0  0  0  0
 57 31  2  0  0  0  0
 43 33  1  0  0  0  0
 54 44  1  0  0  0  0
 91 55  1  0  0  0  0
  1108  1  0  0  0  0
  6109  1  0  0  0  0
  9110  1  0  0  0  0
 17111  1  0  0  0  0
 18112  1  0  0  0  0
 19113  1  0  0  0  0
 20114  1  0  0  0  0
 21115  1  0  0  0  0
 22116  1  0  0  0  0
 22117  1  0  0  0  0
 23118  1  0  0  0  0
 25119  1  0  0  0  0
 30120  1  0  0  0  0
 34121  1  0  0  0  0
 35122  1  0  0  0  0
 37123  1  0  0  0  0
 37124  1  0  0  0  0
 39125  1  0  0  0  0
 39126  1  0  0  0  0
 41127  1  0  0  0  0
 41128  1  0  0  0  0
 41129  1  0  0  0  0
 42130  1  0  0  0  0
 43131  1  0  0  0  0
 45132  1  0  0  0  0
 46133  1  0  0  0  0
 48134  1  0  0  0  0
 48135  1  0  0  0  0
 50136  1  0  0  0  0
 50137  1  0  0  0  0
 52138  1  0  0  0  0
 52139  1  0  0  0  0
 52140  1  0  0  0  0
 53141  1  0  0  0  0
 54142  1  0  0  0  0
 58143  1  0  0  0  0
 62144  1  0  0  0  0
 63145  1  0  0  0  0
 65146  1  0  0  0  0
 65147  1  0  0  0  0
 67148  1  0  0  0  0
 67149  1  0  0  0  0
 69150  1  0  0  0  0
 69151  1  0  0  0  0
 69152  1  0  0  0  0
 70153  1  0  0  0  0
 71154  1  0  0  0  0
 73155  1  0  0  0  0
 74156  1  0  0  0  0
 76157  1  0  0  0  0
 76158  1  0  0  0  0
 78159  1  0  0  0  0
 78160  1  0  0  0  0
 80161  1  0  0  0  0
 80162  1  0  0  0  0
 80163  1  0  0  0  0
 81164  1  0  0  0  0
 82165  1  0  0  0  0
 88166  1  0  0  0  0
 92167  1  0  0  0  0
 98168  1  0  0  0  0
101169  1  0  0  0  0
101170  1  0  0  0  0
101171  1  0  0  0  0
M  END
