155

C          3.78250        1.57400        7.07240
C          4.92690        2.13050        6.57110
C          5.47660        1.86800        5.22530
O          5.15260        0.99510        4.43940
C          6.52590        2.87170        5.01250
C          7.25130        3.08340        3.84270
C          8.11800        4.14590        3.90870
C          8.26960        4.92880        5.06210
C          7.57780        4.71560        6.23090
C          6.67660        3.64840        6.18040
C          5.75080        3.14980        7.19450
C          5.70490        3.55220        8.50330
C          6.55410        4.52870        9.06580
N          7.21190        5.31020        9.58950
C          4.83910        3.02450        9.48470
N          4.17220        2.64280       10.33810
C          9.27610        5.84050        4.40600
C          8.78250        7.23600        3.94840
C          7.30270        7.10020        3.68790
C          7.14770        6.36010        2.59830
C          8.52260        5.98440        2.10050
C          9.31130        7.23970        2.50550
C          9.10190        4.97170        3.12030
C          2.92810        0.70140        6.38890
C          1.66030        0.23780        6.67290
C          1.39230       -0.38520        5.42070
S         -1.46290       -0.87160        5.13000
C         -1.27600       -1.03650        3.35420
C         -1.79000       -0.96280        2.03230
C         -3.08450       -0.86980        1.52390
C         -3.22230       -0.78560        0.15860
C         -4.50380       -0.72420       -0.65630
C         -5.35720       -1.93610       -0.33180
C         -6.21090       -1.90130        0.76330
C         -6.97720       -2.99930        1.10400
C         -6.89090       -4.16460        0.35380
S         -7.84440       -5.61790        0.66820
C         -8.31000       -5.48580        2.43040
C         -7.10660       -5.57370        3.34870
C         -6.03670       -4.20460       -0.74430
C         -5.27650       -3.10370       -1.08100
C         -5.28630        0.56710       -0.49500
C         -4.73780        1.69700        0.09750
C         -5.45820        2.87310        0.15650
C         -6.74010        2.94540       -0.38080
S         -7.57670        4.49400       -0.22910
C         -8.85710        4.44810       -1.53210
C         -8.25810        4.42780       -2.92490
C         -7.29500        1.81550       -0.96750
C         -6.56710        0.64360       -1.02840
C         -3.94930       -0.73290       -2.05490
C         -2.56340       -0.74040       -2.03120
C         -2.08630       -0.78840       -0.68720
C         -0.78900       -0.86580       -0.18270
C         -0.64440       -0.96500        1.17910
C          0.65660       -1.09720        1.96200
C          1.33280       -2.44470        1.75820
C          2.46360       -2.73520        2.51400
C          3.11370       -3.94700        2.39260
C          2.64010       -4.90090        1.50090
S          3.37700       -6.48990        1.26500
C          5.10980       -6.26740        1.80080
C          5.86520       -5.30010        0.91020
C          1.49380       -4.62760        0.76280
C          0.84310       -3.41640        0.89530
C          1.59640        0.07320        1.73170
C          1.27370        1.31800        2.26540
C          2.16070        2.36940        2.18920
C          3.39750        2.20130        1.57320
S          4.50270        3.57800        1.64810
C          5.75720        3.23720        0.36230
C          5.18900        3.35880       -1.03830
C          3.70020        0.98320        0.98570
C          2.80040       -0.06490        1.05910
C          0.09260       -1.06530        3.35240
C          0.33130       -0.82820        4.73940
S          3.04410       -0.00790        4.75100
S         -1.82610       -0.74380       -3.59650
C         -3.40890       -0.75130       -4.31690
C         -3.86130       -0.83710       -5.62450
C         -5.24650       -0.86100       -5.69700
S         -5.98690       -0.73980       -4.10410
C         -4.44110       -0.72460       -3.35580
C         -6.08010       -0.92250       -6.82980
C         -5.78640       -1.35610       -8.09160
C         -6.65610       -0.93340       -9.21850
O         -7.73050       -0.38500       -9.14390
C         -5.89710       -1.27930      -10.44250
C         -6.20890       -0.99960      -11.75820
C         -5.31070       -1.40490      -12.73270
F         -5.57120       -1.15160      -14.02060
C         -4.13450       -2.07050      -12.38530
F         -3.27840       -2.43470      -13.34590
C         -3.82590       -2.36200      -11.06480
C         -4.72090       -1.96210      -10.08600
C         -4.70380       -2.14480       -8.63300
C         -3.96550       -3.09410       -7.97450
C         -4.15850       -3.44930       -6.62410
N         -4.28940       -3.80570       -5.54090
C         -2.97790       -3.88980       -8.59130
N         -2.15050       -4.54800       -9.03750
H          3.43750        1.86750        8.05720
H          7.10420        2.45270        2.98120
H          7.70490        5.32820        7.10800
H         10.26050        5.87750        4.86770
H          9.08430        8.05540        4.59490
H          6.54180        7.49470        4.33520
H          6.23010        6.00890        2.16310
H          8.59080        5.66820        1.06220
H          9.00820        8.12510        1.94890
H         10.39120        7.11430        2.43820
H          9.97420        4.44680        2.73570
H          1.03330        0.37150        7.53430
H         -3.93680       -0.86940        2.18510
H         -6.29670       -0.99730        1.34910
H         -7.64350       -2.92760        1.94910
H         -8.87680       -4.56670        2.57500
H         -8.97930       -6.33260        2.58220
H         -6.57940       -6.51110        3.18760
H         -7.42900       -5.52850        4.38720
H         -6.41420       -4.75490        3.16330
H         -5.97610       -5.10760       -1.33170
H         -4.61780       -3.16260       -1.93420
H         -3.74100        1.66350        0.51160
H         -5.03240        3.75090        0.61760
H         -9.51150        3.59650       -1.34930
H         -9.42460        5.36340       -1.36490
H         -7.62800        5.30160       -3.07510
H         -7.65170        3.53670       -3.07540
H         -9.05200        4.43800       -3.66910
H         -8.29290        1.83040       -1.37560
H         -7.00760       -0.22870       -1.48930
H          0.06410       -0.85630       -0.84440
H          2.84750       -1.99850        3.20360
H          3.98070       -4.13560        3.00530
H          5.52970       -7.27080        1.73170
H          5.11640       -5.95930        2.84570
H          5.84350       -5.64440       -0.12130
H          5.42150       -4.30730        0.95170
H          6.90190       -5.23130        1.23420
H          1.11580       -5.37540        0.08270
H         -0.04730       -3.23740        0.31270
H          0.32600        1.46120        2.76460
H          1.91530        3.32510        2.62760
H          6.52470        3.99040        0.54000
H          6.18580        2.25320        0.54860
H          4.78990        4.35820       -1.19540
H          4.38650        2.64080       -1.19510
H          5.97020        3.17450       -1.77390
H          4.64200        0.81880        0.48720
H          3.06270       -1.00940        0.60610
H         -3.22090       -0.84160       -6.48790
H         -7.08060       -0.51810       -6.70970
H         -7.11790       -0.48440      -12.02480
H         -2.90450       -2.87630      -10.84510
