
  xtb     02022214163D
 energy: -201.786164604430 gnorm: 0.000462702419 xtb: 6.4.1 (unknown)
116130  0     0  0            999 V2000
    0.9991    6.3525    3.4107 C   0  0  0  0  0  0  0  0  0  0  0  0
    0.0429    7.3249    3.3468 C   0  0  0  0  0  0  0  0  0  0  0  0
   -1.0398    7.3680    2.3342 C   0  0  0  0  0  0  0  0  0  0  0  0
   -1.1404    6.7048    1.3232 O   0  0  0  0  0  0  0  0  0  0  0  0
   -2.0442    8.3050    2.8730 C   0  0  0  0  0  0  0  0  0  0  0  0
   -3.2743    8.6233    2.3025 C   0  0  0  0  0  0  0  0  0  0  0  0
   -4.0203    9.5116    3.0392 C   0  0  0  0  0  0  0  0  0  0  0  0
   -3.5778   10.0454    4.2573 C   0  0  0  0  0  0  0  0  0  0  0  0
   -2.3665    9.7412    4.8313 C   0  0  0  0  0  0  0  0  0  0  0  0
   -1.5927    8.8372    4.0979 C   0  0  0  0  0  0  0  0  0  0  0  0
   -0.2774    8.2780    4.3897 C   0  0  0  0  0  0  0  0  0  0  0  0
    0.5536    8.6457    5.4156 C   0  0  0  0  0  0  0  0  0  0  0  0
    0.2264    9.5906    6.4092 C   0  0  0  0  0  0  0  0  0  0  0  0
    0.0155   10.3437    7.2498 N   0  0  0  0  0  0  0  0  0  0  0  0
    1.8645    8.1526    5.5860 C   0  0  0  0  0  0  0  0  0  0  0  0
    2.9467    7.8123    5.7647 N   0  0  0  0  0  0  0  0  0  0  0  0
   -4.8384   10.8493    4.4542 C   0  0  0  0  0  0  0  0  0  0  0  0
   -5.8846   10.3146    5.4634 C   0  0  0  0  0  0  0  0  0  0  0  0
   -5.6989    8.8187    5.5221 C   0  0  0  0  0  0  0  0  0  0  0  0
   -6.1172    8.3132    4.3694 C   0  0  0  0  0  0  0  0  0  0  0  0
   -6.5933    9.4583    3.5102 C   0  0  0  0  0  0  0  0  0  0  0  0
   -7.1493   10.3963    4.5935 C   0  0  0  0  0  0  0  0  0  0  0  0
   -5.3309   10.2553    3.0970 C   0  0  0  0  0  0  0  0  0  0  0  0
    1.3740    5.4885    2.3552 C   0  0  0  0  0  0  0  0  0  0  0  0
    1.5273    5.7294    0.9972 C   0  0  0  0  0  0  0  0  0  0  0  0
    1.4697    7.0767    0.3599 C   0  0  0  0  0  0  0  0  0  0  0  0
    2.7379    7.3906   -0.4327 C   0  0  0  0  0  0  0  0  0  0  0  0
    1.8673    4.5507    0.3144 C   0  0  0  0  0  0  0  0  0  0  0  0
    2.0945    4.1805   -1.3803 S   0  0  0  0  0  0  0  0  0  0  0  0
    2.3061    2.5157   -0.9753 C   0  0  0  0  0  0  0  0  0  0  0  0
    2.5240    1.2830   -1.6190 C   0  0  0  0  0  0  0  0  0  0  0  0
    2.7982    0.9608   -2.9748 C   0  0  0  0  0  0  0  0  0  0  0  0
    3.0655   -0.3968   -3.3055 C   0  0  0  0  0  0  0  0  0  0  0  0
    3.4102   -0.7463   -4.5497 N   0  0  0  0  0  0  0  0  0  0  0  0
    3.4686    0.2150   -5.4453 C   0  0  0  0  0  0  0  0  0  0  0  0
    3.1742    1.5459   -5.1272 C   0  0  0  0  0  0  0  0  0  0  0  0
    2.8477    1.9172   -3.9087 N   0  0  0  0  0  0  0  0  0  0  0  0
    2.8939   -1.3819   -2.2966 C   0  0  0  0  0  0  0  0  0  0  0  0
    2.8953   -2.7876   -2.3613 C   0  0  0  0  0  0  0  0  0  0  0  0
    3.1821   -4.0415   -3.5116 S   0  0  0  0  0  0  0  0  0  0  0  0
    2.7278   -5.2318   -2.3109 C   0  0  0  0  0  0  0  0  0  0  0  0
    2.5767   -6.6251   -2.3545 C   0  0  0  0  0  0  0  0  0  0  0  0
    2.9792   -7.4798   -3.5082 C   0  0  0  0  0  0  0  0  0  0  0  0
    4.3732   -7.1388   -4.0308 C   0  0  0  0  0  0  0  0  0  0  0  0
    2.1119   -7.1127   -1.1369 C   0  0  0  0  0  0  0  0  0  0  0  0
    1.9512   -5.8453    0.0825 S   0  0  0  0  0  0  0  0  0  0  0  0
    2.3936   -4.6532   -1.0769 C   0  0  0  0  0  0  0  0  0  0  0  0
    2.4893   -3.2609   -1.1075 C   0  0  0  0  0  0  0  0  0  0  0  0
    2.2638   -2.2074   -0.2531 N   0  0  0  0  0  0  0  0  0  0  0  0
    2.5280   -1.0536   -0.9661 C   0  0  0  0  0  0  0  0  0  0  0  0
    2.5061    0.3030   -0.5937 C   0  0  0  0  0  0  0  0  0  0  0  0
    2.3689    0.9137    0.6374 N   0  0  0  0  0  0  0  0  0  0  0  0
    2.2282    2.2599    0.3993 C   0  0  0  0  0  0  0  0  0  0  0  0
    1.9854    3.4217    1.1362 C   0  0  0  0  0  0  0  0  0  0  0  0
    1.7388    3.8182    2.7936 S   0  0  0  0  0  0  0  0  0  0  0  0
    2.8932    0.4279    1.8984 C   0  0  0  0  0  0  0  0  0  0  0  0
    4.2215    1.1001    2.2439 C   0  0  0  0  0  0  0  0  0  0  0  0
    1.3198   -2.3533    0.8370 C   0  0  0  0  0  0  0  0  0  0  0  0
   -0.0744   -2.7013    0.3161 C   0  0  0  0  0  0  0  0  0  0  0  0
    1.7977   -8.4249   -0.7271 C   0  0  0  0  0  0  0  0  0  0  0  0
    1.2000   -9.3902   -1.4922 C   0  0  0  0  0  0  0  0  0  0  0  0
    0.3853   -9.1131   -2.6971 C   0  0  0  0  0  0  0  0  0  0  0  0
    0.2500   -8.0586   -3.2814 O   0  0  0  0  0  0  0  0  0  0  0  0
   -0.3392  -10.3713   -2.9739 C   0  0  0  0  0  0  0  0  0  0  0  0
   -1.2609  -10.6258   -3.9701 C   0  0  0  0  0  0  0  0  0  0  0  0
   -1.8480  -11.8836   -4.0532 C   0  0  0  0  0  0  0  0  0  0  0  0
   -2.8491  -12.2306   -5.1057 C   0  0  0  0  0  0  0  0  0  0  0  0
   -1.4705  -12.8356   -3.1040 C   0  0  0  0  0  0  0  0  0  0  0  0
   -2.0395  -14.0538   -3.1731 F   0  0  0  0  0  0  0  0  0  0  0  0
   -0.5511  -12.6059   -2.0934 C   0  0  0  0  0  0  0  0  0  0  0  0
    0.0240  -11.3468   -2.0304 C   0  0  0  0  0  0  0  0  0  0  0  0
    1.0065  -10.7745   -1.1160 C   0  0  0  0  0  0  0  0  0  0  0  0
    1.6893  -11.4485   -0.1377 C   0  0  0  0  0  0  0  0  0  0  0  0
    2.7157  -10.8823    0.6472 C   0  0  0  0  0  0  0  0  0  0  0  0
    3.5753  -10.4897    1.2994 N   0  0  0  0  0  0  0  0  0  0  0  0
    1.4756  -12.8054    0.1804 C   0  0  0  0  0  0  0  0  0  0  0  0
    1.3354  -13.9034    0.4836 N   0  0  0  0  0  0  0  0  0  0  0  0
    1.4678    6.1495    4.3671 H   0  0  0  0  0  0  0  0  0  0  0  0
   -3.5774    8.1892    1.3625 H   0  0  0  0  0  0  0  0  0  0  0  0
   -2.0406   10.1534    5.7719 H   0  0  0  0  0  0  0  0  0  0  0  0
   -4.7100   11.9277    4.5224 H   0  0  0  0  0  0  0  0  0  0  0  0
   -5.8979   10.8345    6.4175 H   0  0  0  0  0  0  0  0  0  0  0  0
   -5.2439    8.3038    6.3479 H   0  0  0  0  0  0  0  0  0  0  0  0
   -6.0811    7.2914    4.0396 H   0  0  0  0  0  0  0  0  0  0  0  0
   -7.2529    9.1983    2.6864 H   0  0  0  0  0  0  0  0  0  0  0  0
   -7.3622   11.4008    4.2303 H   0  0  0  0  0  0  0  0  0  0  0  0
   -8.0291    9.9906    5.0907 H   0  0  0  0  0  0  0  0  0  0  0  0
   -5.5257   10.9459    2.2788 H   0  0  0  0  0  0  0  0  0  0  0  0
    0.6006    7.1096   -0.3022 H   0  0  0  0  0  0  0  0  0  0  0  0
    1.3290    7.8347    1.1319 H   0  0  0  0  0  0  0  0  0  0  0  0
    2.6808    8.4023   -0.8261 H   0  0  0  0  0  0  0  0  0  0  0  0
    2.8602    6.7052   -1.2665 H   0  0  0  0  0  0  0  0  0  0  0  0
    3.6134    7.3193    0.2093 H   0  0  0  0  0  0  0  0  0  0  0  0
    3.7534   -0.0795   -6.4459 H   0  0  0  0  0  0  0  0  0  0  0  0
    3.2089    2.3280   -5.8730 H   0  0  0  0  0  0  0  0  0  0  0  0
    2.2424   -7.3507   -4.3062 H   0  0  0  0  0  0  0  0  0  0  0  0
    2.9530   -8.5273   -3.2023 H   0  0  0  0  0  0  0  0  0  0  0  0
    4.6536   -7.8476   -4.8057 H   0  0  0  0  0  0  0  0  0  0  0  0
    4.4019   -6.1395   -4.4553 H   0  0  0  0  0  0  0  0  0  0  0  0
    5.1051   -7.1984   -3.2280 H   0  0  0  0  0  0  0  0  0  0  0  0
    2.1615    0.6270    2.6884 H   0  0  0  0  0  0  0  0  0  0  0  0
    3.0646   -0.6446    1.8166 H   0  0  0  0  0  0  0  0  0  0  0  0
    4.9415    0.9434    1.4435 H   0  0  0  0  0  0  0  0  0  0  0  0
    4.6171    0.6689    3.1592 H   0  0  0  0  0  0  0  0  0  0  0  0
    4.0928    2.1678    2.3954 H   0  0  0  0  0  0  0  0  0  0  0  0
    1.2565   -1.4193    1.3903 H   0  0  0  0  0  0  0  0  0  0  0  0
    1.6804   -3.1466    1.4989 H   0  0  0  0  0  0  0  0  0  0  0  0
   -0.7663   -2.7739    1.1503 H   0  0  0  0  0  0  0  0  0  0  0  0
   -0.0692   -3.6510   -0.2114 H   0  0  0  0  0  0  0  0  0  0  0  0
   -0.4248   -1.9269   -0.3631 H   0  0  0  0  0  0  0  0  0  0  0  0
    1.9872   -8.6433    0.3179 H   0  0  0  0  0  0  0  0  0  0  0  0
   -1.5167   -9.8497   -4.6754 H   0  0  0  0  0  0  0  0  0  0  0  0
   -3.0383  -11.3807   -5.7546 H   0  0  0  0  0  0  0  0  0  0  0  0
   -2.4894  -13.0657   -5.7060 H   0  0  0  0  0  0  0  0  0  0  0  0
   -3.7852  -12.5439   -4.6446 H   0  0  0  0  0  0  0  0  0  0  0  0
   -0.3210  -13.3948   -1.3964 H   0  0  0  0  0  0  0  0  0  0  0  0
  1  2  2  0  0  0  0
  2  3  1  0  0  0  0
  3  4  2  0  0  0  0
  3  5  1  0  0  0  0
  5  6  2  0  0  0  0
  6  7  1  0  0  0  0
  7  8  2  0  0  0  0
  8  9  1  0  0  0  0
  9 10  2  0  0  0  0
 10 11  1  0  0  0  0
 11 12  2  0  0  0  0
 12 13  1  0  0  0  0
 13 14  3  0  0  0  0
 12 15  1  0  0  0  0
 15 16  3  0  0  0  0
  8 17  1  0  0  0  0
 17 18  1  0  0  0  0
 18 19  1  0  0  0  0
 19 20  2  0  0  0  0
 20 21  1  0  0  0  0
 21 22  1  0  0  0  0
 21 23  1  0  0  0  0
  1 24  1  0  0  0  0
 24 25  2  0  0  0  0
 25 26  1  0  0  0  0
 26 27  1  0  0  0  0
 25 28  1  0  0  0  0
 28 29  1  0  0  0  0
 29 30  1  0  0  0  0
 30 31  1  0  0  0  0
 31 32  2  0  0  0  0
 32 33  1  0  0  0  0
 33 34  1  0  0  0  0
 34 35  2  0  0  0  0
 35 36  1  0  0  0  0
 36 37  2  0  0  0  0
 33 38  2  0  0  0  0
 38 39  1  0  0  0  0
 39 40  1  0  0  0  0
 40 41  1  0  0  0  0
 41 42  1  0  0  0  0
 42 43  1  0  0  0  0
 43 44  1  0  0  0  0
 42 45  2  0  0  0  0
 45 46  1  0  0  0  0
 46 47  1  0  0  0  0
 47 48  1  0  0  0  0
 48 49  1  0  0  0  0
 49 50  1  0  0  0  0
 50 51  2  0  0  0  0
 51 52  1  0  0  0  0
 52 53  1  0  0  0  0
 53 54  1  0  0  0  0
 54 55  1  0  0  0  0
 52 56  1  0  0  0  0
 56 57  1  0  0  0  0
 49 58  1  0  0  0  0
 58 59  1  0  0  0  0
 45 60  1  0  0  0  0
 60 61  2  0  0  0  0
 61 62  1  0  0  0  0
 62 63  2  0  0  0  0
 62 64  1  0  0  0  0
 64 65  2  0  0  0  0
 65 66  1  0  0  0  0
 66 67  1  0  0  0  0
 66 68  2  0  0  0  0
 68 69  1  0  0  0  0
 68 70  1  0  0  0  0
 70 71  2  0  0  0  0
 71 72  1  0  0  0  0
 72 73  2  0  0  0  0
 73 74  1  0  0  0  0
 74 75  3  0  0  0  0
 73 76  1  0  0  0  0
 76 77  3  0  0  0  0
 11  2  1  0  0  0  0
 23 17  1  0  0  0  0
 55 24  1  0  0  0  0
 72 61  1  0  0  0  0
 10  5  1  0  0  0  0
 22 18  1  0  0  0  0
 54 28  2  0  0  0  0
 71 64  1  0  0  0  0
 23  7  1  0  0  0  0
 53 30  2  0  0  0  0
 51 31  1  0  0  0  0
 37 32  1  0  0  0  0
 50 38  1  0  0  0  0
 48 39  2  0  0  0  0
 47 41  2  0  0  0  0
  1 78  1  0  0  0  0
  6 79  1  0  0  0  0
  9 80  1  0  0  0  0
 17 81  1  0  0  0  0
 18 82  1  0  0  0  0
 19 83  1  0  0  0  0
 20 84  1  0  0  0  0
 21 85  1  0  0  0  0
 22 86  1  0  0  0  0
 22 87  1  0  0  0  0
 23 88  1  0  0  0  0
 26 89  1  0  0  0  0
 26 90  1  0  0  0  0
 27 91  1  0  0  0  0
 27 92  1  0  0  0  0
 27 93  1  0  0  0  0
 35 94  1  0  0  0  0
 36 95  1  0  0  0  0
 43 96  1  0  0  0  0
 43 97  1  0  0  0  0
 44 98  1  0  0  0  0
 44 99  1  0  0  0  0
 44100  1  0  0  0  0
 56101  1  0  0  0  0
 56102  1  0  0  0  0
 57103  1  0  0  0  0
 57104  1  0  0  0  0
 57105  1  0  0  0  0
 58106  1  0  0  0  0
 58107  1  0  0  0  0
 59108  1  0  0  0  0
 59109  1  0  0  0  0
 59110  1  0  0  0  0
 60111  1  0  0  0  0
 65112  1  0  0  0  0
 67113  1  0  0  0  0
 67114  1  0  0  0  0
 67115  1  0  0  0  0
 70116  1  0  0  0  0
M  END
