
  xtb     02022214343D
 energy: -235.583529772389 gnorm: 0.000491445050 xtb: 6.4.1 (unknown)
136152  0     0  0            999 V2000
    1.9974    6.1506    3.6914 C   0  0  0  0  0  0  0  0  0  0  0  0
    3.0012    6.4776    4.5606 C   0  0  0  0  0  0  0  0  0  0  0  0
    3.9997    5.5257    5.0995 C   0  0  0  0  0  0  0  0  0  0  0  0
    4.0401    4.3228    4.9431 O   0  0  0  0  0  0  0  0  0  0  0  0
    5.0255    6.3560    5.7572 C   0  0  0  0  0  0  0  0  0  0  0  0
    6.1844    5.9052    6.3835 C   0  0  0  0  0  0  0  0  0  0  0  0
    6.9736    6.9094    6.8905 C   0  0  0  0  0  0  0  0  0  0  0  0
    6.6429    8.2659    6.7708 C   0  0  0  0  0  0  0  0  0  0  0  0
    5.5056    8.7249    6.1498 C   0  0  0  0  0  0  0  0  0  0  0  0
    4.6825    7.7176    5.6385 C   0  0  0  0  0  0  0  0  0  0  0  0
    3.4067    7.8140    4.9357 C   0  0  0  0  0  0  0  0  0  0  0  0
    2.6667    8.9559    4.7613 C   0  0  0  0  0  0  0  0  0  0  0  0
    1.3794    8.9899    4.1864 C   0  0  0  0  0  0  0  0  0  0  0  0
    0.3189    9.0852    3.7554 N   0  0  0  0  0  0  0  0  0  0  0  0
    3.0715   10.2415    5.1731 C   0  0  0  0  0  0  0  0  0  0  0  0
    3.3407   11.3155    5.4782 N   0  0  0  0  0  0  0  0  0  0  0  0
    7.8839    8.7147    7.5013 C   0  0  0  0  0  0  0  0  0  0  0  0
    7.7303    9.1644    8.9753 C   0  0  0  0  0  0  0  0  0  0  0  0
    6.5212    8.4446    9.5190 C   0  0  0  0  0  0  0  0  0  0  0  0
    6.8323    7.1605    9.6345 C   0  0  0  0  0  0  0  0  0  0  0  0
    8.2577    6.9888    9.1709 C   0  0  0  0  0  0  0  0  0  0  0  0
    8.8522    8.3336    9.6185 C   0  0  0  0  0  0  0  0  0  0  0  0
    8.2506    7.2032    7.6371 C   0  0  0  0  0  0  0  0  0  0  0  0
    1.4810    4.8572    3.4602 C   0  0  0  0  0  0  0  0  0  0  0  0
    1.3490    3.7686    4.3188 C   0  0  0  0  0  0  0  0  0  0  0  0
    1.5757    3.8106    5.7596 C   0  0  0  0  0  0  0  0  0  0  0  0
    1.1598    4.9071    6.5131 C   0  0  0  0  0  0  0  0  0  0  0  0
    1.3900    4.9319    7.8738 C   0  0  0  0  0  0  0  0  0  0  0  0
    2.0274    3.8702    8.4955 C   0  0  0  0  0  0  0  0  0  0  0  0
    2.4327    2.7634    7.7622 C   0  0  0  0  0  0  0  0  0  0  0  0
    3.0700    1.5791    8.4295 C   0  0  0  0  0  0  0  0  0  0  0  0
    2.0277    0.4878    8.6818 C   0  0  0  0  0  0  0  0  0  0  0  0
    2.1970    2.7415    6.3956 C   0  0  0  0  0  0  0  0  0  0  0  0
    0.8544    2.6443    3.6403 C   0  0  0  0  0  0  0  0  0  0  0  0
    0.5159    1.0085    4.1576 S   0  0  0  0  0  0  0  0  0  0  0  0
    0.0206    0.6285    2.5453 C   0  0  0  0  0  0  0  0  0  0  0  0
   -0.3942   -0.4793    1.7955 C   0  0  0  0  0  0  0  0  0  0  0  0
   -0.5266   -1.8312    2.1786 C   0  0  0  0  0  0  0  0  0  0  0  0
   -0.8453   -2.8008    1.1764 C   0  0  0  0  0  0  0  0  0  0  0  0
   -0.8956   -4.0328    1.6590 N   0  0  0  0  0  0  0  0  0  0  0  0
   -0.5719   -3.9729    3.2442 S   0  0  0  0  0  0  0  0  0  0  0  0
   -0.3528   -2.3741    3.3736 N   0  0  0  0  0  0  0  0  0  0  0  0
   -1.0906   -2.3587   -0.1412 C   0  0  0  0  0  0  0  0  0  0  0  0
   -1.4734   -3.0849   -1.2755 C   0  0  0  0  0  0  0  0  0  0  0  0
   -1.7669   -4.7226   -1.7452 S   0  0  0  0  0  0  0  0  0  0  0  0
   -2.1841   -4.1589   -3.3474 C   0  0  0  0  0  0  0  0  0  0  0  0
   -2.5488   -4.8358   -4.5181 C   0  0  0  0  0  0  0  0  0  0  0  0
   -2.5377   -6.2897   -4.6389 C   0  0  0  0  0  0  0  0  0  0  0  0
   -1.9261   -6.9062   -5.7289 C   0  0  0  0  0  0  0  0  0  0  0  0
   -1.9428   -8.2820   -5.8360 C   0  0  0  0  0  0  0  0  0  0  0  0
   -2.5630   -9.0522   -4.8647 C   0  0  0  0  0  0  0  0  0  0  0  0
   -3.1613   -8.4544   -3.7645 C   0  0  0  0  0  0  0  0  0  0  0  0
   -3.7910   -9.2754   -2.6772 C   0  0  0  0  0  0  0  0  0  0  0  0
   -2.8352   -9.4102   -1.4901 C   0  0  0  0  0  0  0  0  0  0  0  0
   -3.1357   -7.0711   -3.6570 C   0  0  0  0  0  0  0  0  0  0  0  0
   -2.7938   -3.9445   -5.5640 C   0  0  0  0  0  0  0  0  0  0  0  0
   -2.4750   -2.2731   -5.0937 S   0  0  0  0  0  0  0  0  0  0  0  0
   -2.0912   -2.7660   -3.4878 C   0  0  0  0  0  0  0  0  0  0  0  0
   -1.6753   -2.1559   -2.3008 C   0  0  0  0  0  0  0  0  0  0  0  0
   -1.4223   -0.8922   -1.8419 N   0  0  0  0  0  0  0  0  0  0  0  0
   -1.0315   -0.9816   -0.5174 C   0  0  0  0  0  0  0  0  0  0  0  0
   -0.6016   -0.0326    0.4546 C   0  0  0  0  0  0  0  0  0  0  0  0
   -0.2810    1.3130    0.4082 N   0  0  0  0  0  0  0  0  0  0  0  0
    0.0880    1.7103    1.6633 C   0  0  0  0  0  0  0  0  0  0  0  0
    0.5676    2.8673    2.2871 C   0  0  0  0  0  0  0  0  0  0  0  0
    0.8934    4.4996    1.8371 S   0  0  0  0  0  0  0  0  0  0  0  0
   -0.1976    2.2732   -0.6665 C   0  0  0  0  0  0  0  0  0  0  0  0
   -1.4157    3.1968   -0.6922 C   0  0  0  0  0  0  0  0  0  0  0  0
   -1.6978    0.2236   -2.7167 C   0  0  0  0  0  0  0  0  0  0  0  0
   -0.5664    0.4506   -3.7203 C   0  0  0  0  0  0  0  0  0  0  0  0
   -3.2021   -4.1580   -6.8935 C   0  0  0  0  0  0  0  0  0  0  0  0
   -3.9318   -5.2097   -7.3846 C   0  0  0  0  0  0  0  0  0  0  0  0
   -4.7847   -6.1098   -6.5785 C   0  0  0  0  0  0  0  0  0  0  0  0
   -5.0159   -6.0448   -5.3901 O   0  0  0  0  0  0  0  0  0  0  0  0
   -5.4161   -7.0292   -7.5495 C   0  0  0  0  0  0  0  0  0  0  0  0
   -6.2619   -8.0873   -7.2859 C   0  0  0  0  0  0  0  0  0  0  0  0
   -6.7351   -8.8135   -8.3751 C   0  0  0  0  0  0  0  0  0  0  0  0
   -7.5432   -9.9279   -8.2802 O   0  0  0  0  0  0  0  0  0  0  0  0
   -8.3797  -10.1642   -7.2456 C   0  0  0  0  0  0  0  0  0  0  0  0
   -8.5443   -9.4330   -6.3117 O   0  0  0  0  0  0  0  0  0  0  0  0
   -9.0810  -11.4770   -7.4639 C   0  0  0  0  0  0  0  0  0  0  0  0
   -6.3608   -8.4701   -9.6751 C   0  0  0  0  0  0  0  0  0  0  0  0
   -5.5147   -7.4048   -9.9270 C   0  0  0  0  0  0  0  0  0  0  0  0
   -5.0324   -6.6721   -8.8516 C   0  0  0  0  0  0  0  0  0  0  0  0
   -4.1183   -5.5349   -8.7813 C   0  0  0  0  0  0  0  0  0  0  0  0
   -3.4929   -4.9502   -9.8541 C   0  0  0  0  0  0  0  0  0  0  0  0
   -2.5386   -3.9154   -9.7763 C   0  0  0  0  0  0  0  0  0  0  0  0
   -1.7381   -3.0913   -9.7939 N   0  0  0  0  0  0  0  0  0  0  0  0
   -3.7133   -5.3209  -11.1963 C   0  0  0  0  0  0  0  0  0  0  0  0
   -3.8496   -5.5687  -12.3093 N   0  0  0  0  0  0  0  0  0  0  0  0
    1.5828    6.9320    3.0640 H   0  0  0  0  0  0  0  0  0  0  0  0
    6.4042    4.8509    6.4462 H   0  0  0  0  0  0  0  0  0  0  0  0
    5.2693    9.7717    6.0545 H   0  0  0  0  0  0  0  0  0  0  0  0
    8.5618    9.3554    6.9409 H   0  0  0  0  0  0  0  0  0  0  0  0
    7.7552   10.2406    9.1236 H   0  0  0  0  0  0  0  0  0  0  0  0
    5.5750    8.9189    9.7028 H   0  0  0  0  0  0  0  0  0  0  0  0
    6.1973    6.3468    9.9328 H   0  0  0  0  0  0  0  0  0  0  0  0
    8.7636    6.0841    9.4980 H   0  0  0  0  0  0  0  0  0  0  0  0
    9.8366    8.5344    9.1977 H   0  0  0  0  0  0  0  0  0  0  0  0
    8.8868    8.4395   10.7018 H   0  0  0  0  0  0  0  0  0  0  0  0
    9.1686    6.8571    7.1657 H   0  0  0  0  0  0  0  0  0  0  0  0
    0.6451    5.7270    6.0329 H   0  0  0  0  0  0  0  0  0  0  0  0
    1.0672    5.7827    8.4561 H   0  0  0  0  0  0  0  0  0  0  0  0
    2.2076    3.9023    9.5606 H   0  0  0  0  0  0  0  0  0  0  0  0
    3.8604    1.1802    7.7909 H   0  0  0  0  0  0  0  0  0  0  0  0
    3.5153    1.8820    9.3792 H   0  0  0  0  0  0  0  0  0  0  0  0
    2.4866   -0.3715    9.1652 H   0  0  0  0  0  0  0  0  0  0  0  0
    1.5837    0.1638    7.7435 H   0  0  0  0  0  0  0  0  0  0  0  0
    1.2342    0.8645    9.3236 H   0  0  0  0  0  0  0  0  0  0  0  0
    2.5357    1.9010    5.8099 H   0  0  0  0  0  0  0  0  0  0  0  0
   -1.4313   -6.3061   -6.4791 H   0  0  0  0  0  0  0  0  0  0  0  0
   -1.4681   -8.7596   -6.6810 H   0  0  0  0  0  0  0  0  0  0  0  0
   -2.5793  -10.1282   -4.9644 H   0  0  0  0  0  0  0  0  0  0  0  0
   -4.7127   -8.7945   -2.3448 H   0  0  0  0  0  0  0  0  0  0  0  0
   -4.0399  -10.2679   -3.0574 H   0  0  0  0  0  0  0  0  0  0  0  0
   -3.2934   -9.9992   -0.6992 H   0  0  0  0  0  0  0  0  0  0  0  0
   -1.9148   -9.9008   -1.7996 H   0  0  0  0  0  0  0  0  0  0  0  0
   -2.5828   -8.4300   -1.0926 H   0  0  0  0  0  0  0  0  0  0  0  0
   -3.6242   -6.5911   -2.8231 H   0  0  0  0  0  0  0  0  0  0  0  0
    0.6956    2.8808   -0.4862 H   0  0  0  0  0  0  0  0  0  0  0  0
   -0.0571    1.7586   -1.6117 H   0  0  0  0  0  0  0  0  0  0  0  0
   -2.3446    2.6308   -0.7270 H   0  0  0  0  0  0  0  0  0  0  0  0
   -1.4333    3.8144    0.2019 H   0  0  0  0  0  0  0  0  0  0  0  0
   -1.3668    3.8498   -1.5590 H   0  0  0  0  0  0  0  0  0  0  0  0
   -2.6097   -0.0205   -3.2720 H   0  0  0  0  0  0  0  0  0  0  0  0
   -1.9039    1.1115   -2.1259 H   0  0  0  0  0  0  0  0  0  0  0  0
   -0.7506    1.3599   -4.2854 H   0  0  0  0  0  0  0  0  0  0  0  0
    0.3988    0.5307   -3.2240 H   0  0  0  0  0  0  0  0  0  0  0  0
   -0.5140   -0.3807   -4.4182 H   0  0  0  0  0  0  0  0  0  0  0  0
   -2.9178   -3.3718   -7.5836 H   0  0  0  0  0  0  0  0  0  0  0  0
   -6.5323   -8.3247   -6.2702 H   0  0  0  0  0  0  0  0  0  0  0  0
   -8.3480  -12.2805   -7.4717 H   0  0  0  0  0  0  0  0  0  0  0  0
   -9.5827  -11.4679   -8.4282 H   0  0  0  0  0  0  0  0  0  0  0  0
   -9.8011  -11.6406   -6.6685 H   0  0  0  0  0  0  0  0  0  0  0  0
   -6.7482   -9.0615  -10.4900 H   0  0  0  0  0  0  0  0  0  0  0  0
   -5.2503   -7.1633  -10.9433 H   0  0  0  0  0  0  0  0  0  0  0  0
  1  2  2  0  0  0  0
  2  3  1  0  0  0  0
  3  4  2  0  0  0  0
  3  5  1  0  0  0  0
  5  6  2  0  0  0  0
  6  7  1  0  0  0  0
  7  8  2  0  0  0  0
  8  9  1  0  0  0  0
  9 10  2  0  0  0  0
 10 11  1  0  0  0  0
 11 12  2  0  0  0  0
 12 13  1  0  0  0  0
 13 14  3  0  0  0  0
 12 15  1  0  0  0  0
 15 16  3  0  0  0  0
  8 17  1  0  0  0  0
 17 18  1  0  0  0  0
 18 19  1  0  0  0  0
 19 20  2  0  0  0  0
 20 21  1  0  0  0  0
 21 22  1  0  0  0  0
 21 23  1  0  0  0  0
  1 24  1  0  0  0  0
 24 25  2  0  0  0  0
 25 26  1  0  0  0  0
 26 27  2  0  0  0  0
 27 28  1  0  0  0  0
 28 29  2  0  0  0  0
 29 30  1  0  0  0  0
 30 31  1  0  0  0  0
 31 32  1  0  0  0  0
 30 33  2  0  0  0  0
 25 34  1  0  0  0  0
 34 35  1  0  0  0  0
 35 36  1  0  0  0  0
 36 37  1  0  0  0  0
 37 38  1  0  0  0  0
 38 39  1  0  0  0  0
 39 40  2  0  0  0  0
 40 41  1  0  0  0  0
 41 42  1  0  0  0  0
 39 43  1  0  0  0  0
 43 44  1  0  0  0  0
 44 45  1  0  0  0  0
 45 46  1  0  0  0  0
 46 47  1  0  0  0  0
 47 48  1  0  0  0  0
 48 49  2  0  0  0  0
 49 50  1  0  0  0  0
 50 51  2  0  0  0  0
 51 52  1  0  0  0  0
 52 53  1  0  0  0  0
 53 54  1  0  0  0  0
 52 55  2  0  0  0  0
 47 56  2  0  0  0  0
 56 57  1  0  0  0  0
 57 58  1  0  0  0  0
 58 59  1  0  0  0  0
 59 60  1  0  0  0  0
 60 61  1  0  0  0  0
 61 62  1  0  0  0  0
 62 63  1  0  0  0  0
 63 64  1  0  0  0  0
 64 65  1  0  0  0  0
 65 66  1  0  0  0  0
 63 67  1  0  0  0  0
 67 68  1  0  0  0  0
 60 69  1  0  0  0  0
 69 70  1  0  0  0  0
 56 71  1  0  0  0  0
 71 72  2  0  0  0  0
 72 73  1  0  0  0  0
 73 74  2  0  0  0  0
 73 75  1  0  0  0  0
 75 76  2  0  0  0  0
 76 77  1  0  0  0  0
 77 78  1  0  0  0  0
 78 79  1  0  0  0  0
 79 80  2  0  0  0  0
 79 81  1  0  0  0  0
 77 82  2  0  0  0  0
 82 83  1  0  0  0  0
 83 84  2  0  0  0  0
 84 85  1  0  0  0  0
 85 86  2  0  0  0  0
 86 87  1  0  0  0  0
 87 88  3  0  0  0  0
 86 89  1  0  0  0  0
 89 90  3  0  0  0  0
 11  2  1  0  0  0  0
 23 17  1  0  0  0  0
 66 24  1  0  0  0  0
 85 72  1  0  0  0  0
 10  5  1  0  0  0  0
 22 18  1  0  0  0  0
 33 26  1  0  0  0  0
 65 34  2  0  0  0  0
 84 75  1  0  0  0  0
 23  7  1  0  0  0  0
 64 36  2  0  0  0  0
 62 37  2  0  0  0  0
 42 38  2  0  0  0  0
 61 43  2  0  0  0  0
 59 44  2  0  0  0  0
 58 46  2  0  0  0  0
 55 48  1  0  0  0  0
  1 91  1  0  0  0  0
  6 92  1  0  0  0  0
  9 93  1  0  0  0  0
 17 94  1  0  0  0  0
 18 95  1  0  0  0  0
 19 96  1  0  0  0  0
 20 97  1  0  0  0  0
 21 98  1  0  0  0  0
 22 99  1  0  0  0  0
 22100  1  0  0  0  0
 23101  1  0  0  0  0
 27102  1  0  0  0  0
 28103  1  0  0  0  0
 29104  1  0  0  0  0
 31105  1  0  0  0  0
 31106  1  0  0  0  0
 32107  1  0  0  0  0
 32108  1  0  0  0  0
 32109  1  0  0  0  0
 33110  1  0  0  0  0
 49111  1  0  0  0  0
 50112  1  0  0  0  0
 51113  1  0  0  0  0
 53114  1  0  0  0  0
 53115  1  0  0  0  0
 54116  1  0  0  0  0
 54117  1  0  0  0  0
 54118  1  0  0  0  0
 55119  1  0  0  0  0
 67120  1  0  0  0  0
 67121  1  0  0  0  0
 68122  1  0  0  0  0
 68123  1  0  0  0  0
 68124  1  0  0  0  0
 69125  1  0  0  0  0
 69126  1  0  0  0  0
 70127  1  0  0  0  0
 70128  1  0  0  0  0
 70129  1  0  0  0  0
 71130  1  0  0  0  0
 76131  1  0  0  0  0
 81132  1  0  0  0  0
 81133  1  0  0  0  0
 81134  1  0  0  0  0
 82135  1  0  0  0  0
 83136  1  0  0  0  0
M  END
