
  xtb     02102223293D
 energy: -302.171522918092 gnorm: 0.000480851473 xtb: 6.4.1 (unknown)
177195  0     0  0            999 V2000
    7.0246   -0.0247    3.3935 C   0  0  0  0  0  0  0  0  0  0  0  0
    7.4481   -0.3817    4.6437 C   0  0  0  0  0  0  0  0  0  0  0  0
    6.7150   -0.3001    5.9277 C   0  0  0  0  0  0  0  0  0  0  0  0
    5.6253    0.1895    6.1492 O   0  0  0  0  0  0  0  0  0  0  0  0
    7.5884   -0.9288    6.9338 C   0  0  0  0  0  0  0  0  0  0  0  0
    7.2884   -1.1329    8.2787 C   0  0  0  0  0  0  0  0  0  0  0  0
    8.2763   -1.7802    8.9801 C   0  0  0  0  0  0  0  0  0  0  0  0
    9.4793   -2.1876    8.3870 C   0  0  0  0  0  0  0  0  0  0  0  0
    9.7922   -1.9807    7.0651 C   0  0  0  0  0  0  0  0  0  0  0  0
    8.7964   -1.3290    6.3303 C   0  0  0  0  0  0  0  0  0  0  0  0
    8.7483   -0.9772    4.9135 C   0  0  0  0  0  0  0  0  0  0  0  0
    9.7613   -1.2048    4.0166 C   0  0  0  0  0  0  0  0  0  0  0  0
    9.7469   -0.9339    2.6320 C   0  0  0  0  0  0  0  0  0  0  0  0
    9.8408   -0.7696    1.4979 N   0  0  0  0  0  0  0  0  0  0  0  0
   11.0121   -1.7681    4.3504 C   0  0  0  0  0  0  0  0  0  0  0  0
   12.0564   -2.2091    4.5340 N   0  0  0  0  0  0  0  0  0  0  0  0
    9.9933   -2.8021    9.6642 C   0  0  0  0  0  0  0  0  0  0  0  0
    9.9299   -4.3445    9.7937 C   0  0  0  0  0  0  0  0  0  0  0  0
    8.7954   -4.8049    8.9121 C   0  0  0  0  0  0  0  0  0  0  0  0
    7.6600   -4.4172    9.4773 C   0  0  0  0  0  0  0  0  0  0  0  0
    8.0063   -3.6861   10.7509 C   0  0  0  0  0  0  0  0  0  0  0  0
    9.2641   -4.4616   11.1741 C   0  0  0  0  0  0  0  0  0  0  0  0
    8.6551   -2.3451   10.3262 C   0  0  0  0  0  0  0  0  0  0  0  0
    5.7808    0.4281    2.9129 C   0  0  0  0  0  0  0  0  0  0  0  0
    4.5737    0.7236    3.5275 C   0  0  0  0  0  0  0  0  0  0  0  0
    3.5745    0.9948    2.6027 C   0  0  0  0  0  0  0  0  0  0  0  0
    1.8662    1.3176    2.7373 S   0  0  0  0  0  0  0  0  0  0  0  0
    1.7422    1.2962    1.0100 C   0  0  0  0  0  0  0  0  0  0  0  0
    0.6749    1.3472    0.0584 C   0  0  0  0  0  0  0  0  0  0  0  0
   -0.7007    1.4714    0.2336 C   0  0  0  0  0  0  0  0  0  0  0  0
   -1.4874    1.3676   -0.8893 C   0  0  0  0  0  0  0  0  0  0  0  0
   -3.0010    1.4202   -0.9757 C   0  0  0  0  0  0  0  0  0  0  0  0
   -3.6478    0.4591    0.0017 C   0  0  0  0  0  0  0  0  0  0  0  0
   -3.9952    0.8843    1.2784 C   0  0  0  0  0  0  0  0  0  0  0  0
   -4.6521    0.0328    2.1431 C   0  0  0  0  0  0  0  0  0  0  0  0
   -4.9779   -1.2593    1.7505 C   0  0  0  0  0  0  0  0  0  0  0  0
   -5.8107   -2.1264    2.6568 C   0  0  0  0  0  0  0  0  0  0  0  0
   -7.0673   -1.5396    2.9681 O   0  0  0  0  0  0  0  0  0  0  0  0
   -7.9184   -1.3884    1.8918 C   0  0  0  0  0  0  0  0  0  0  0  0
   -7.4764   -0.3694    1.0325 O   0  0  0  0  0  0  0  0  0  0  0  0
   -8.3729   -0.1126   -0.0211 C   0  0  0  0  0  0  0  0  0  0  0  0
   -4.5775   -1.7010    0.4994 C   0  0  0  0  0  0  0  0  0  0  0  0
   -3.9102   -0.8526   -0.3647 C   0  0  0  0  0  0  0  0  0  0  0  0
   -3.5662    2.8260   -0.8329 C   0  0  0  0  0  0  0  0  0  0  0  0
   -4.9458    2.9864   -0.7482 C   0  0  0  0  0  0  0  0  0  0  0  0
   -5.5007    4.2484   -0.6901 C   0  0  0  0  0  0  0  0  0  0  0  0
   -4.6911    5.3786   -0.7266 C   0  0  0  0  0  0  0  0  0  0  0  0
   -5.3245    6.7480   -0.6743 C   0  0  0  0  0  0  0  0  0  0  0  0
   -6.4751    6.8592   -1.4867 O   0  0  0  0  0  0  0  0  0  0  0  0
   -6.1930    6.8097   -2.8464 C   0  0  0  0  0  0  0  0  0  0  0  0
   -7.4102    6.7707   -3.5133 O   0  0  0  0  0  0  0  0  0  0  0  0
   -7.2661    6.7562   -4.9104 C   0  0  0  0  0  0  0  0  0  0  0  0
   -3.3172    5.2173   -0.8186 C   0  0  0  0  0  0  0  0  0  0  0  0
   -2.7574    3.9516   -0.8714 C   0  0  0  0  0  0  0  0  0  0  0  0
   -3.2093    1.0325   -2.4143 C   0  0  0  0  0  0  0  0  0  0  0  0
   -1.9974    0.9251   -3.0766 C   0  0  0  0  0  0  0  0  0  0  0  0
   -0.9153    1.1233   -2.1623 C   0  0  0  0  0  0  0  0  0  0  0  0
    0.4636    1.0459   -2.3440 C   0  0  0  0  0  0  0  0  0  0  0  0
    1.2514    1.1700   -1.2243 C   0  0  0  0  0  0  0  0  0  0  0  0
    2.7623    1.0770   -1.1303 C   0  0  0  0  0  0  0  0  0  0  0  0
    3.2892   -0.1805   -1.7899 C   0  0  0  0  0  0  0  0  0  0  0  0
    3.3801   -1.3665   -1.0726 C   0  0  0  0  0  0  0  0  0  0  0  0
    3.9464   -2.4876   -1.6437 C   0  0  0  0  0  0  0  0  0  0  0  0
    4.4369   -2.4459   -2.9419 C   0  0  0  0  0  0  0  0  0  0  0  0
    5.1672   -3.6413   -3.4951 C   0  0  0  0  0  0  0  0  0  0  0  0
    6.1666   -4.1301   -2.6115 O   0  0  0  0  0  0  0  0  0  0  0  0
    7.2478   -3.2906   -2.4368 C   0  0  0  0  0  0  0  0  0  0  0  0
    6.8911   -2.1363   -1.7206 O   0  0  0  0  0  0  0  0  0  0  0  0
    7.9914   -1.3162   -1.4127 C   0  0  0  0  0  0  0  0  0  0  0  0
    4.2834   -1.2828   -3.6809 C   0  0  0  0  0  0  0  0  0  0  0  0
    3.7063   -0.1614   -3.1135 C   0  0  0  0  0  0  0  0  0  0  0  0
    3.4865    2.3242   -1.6135 C   0  0  0  0  0  0  0  0  0  0  0  0
    2.8215    3.5206   -1.8339 C   0  0  0  0  0  0  0  0  0  0  0  0
    3.5326    4.6729   -2.1196 C   0  0  0  0  0  0  0  0  0  0  0  0
    4.9167    4.6495   -2.1887 C   0  0  0  0  0  0  0  0  0  0  0  0
    5.7210    5.9097   -2.3708 C   0  0  0  0  0  0  0  0  0  0  0  0
    6.5043    6.2109   -1.2224 O   0  0  0  0  0  0  0  0  0  0  0  0
    5.7732    6.6271   -0.1122 C   0  0  0  0  0  0  0  0  0  0  0  0
    4.9980    5.6387    0.4932 O   0  0  0  0  0  0  0  0  0  0  0  0
    5.7453    4.6393    1.1526 C   0  0  0  0  0  0  0  0  0  0  0  0
    5.5787    3.4411   -2.0038 C   0  0  0  0  0  0  0  0  0  0  0  0
    4.8735    2.2921   -1.7106 C   0  0  0  0  0  0  0  0  0  0  0  0
    2.9470    1.0830    0.3631 C   0  0  0  0  0  0  0  0  0  0  0  0
    3.9978    0.9215    1.2588 C   0  0  0  0  0  0  0  0  0  0  0  0
    5.6663    0.5470    1.1492 S   0  0  0  0  0  0  0  0  0  0  0  0
   -2.1425    0.4653   -4.7397 S   0  0  0  0  0  0  0  0  0  0  0  0
   -3.8736    0.3679   -4.5452 C   0  0  0  0  0  0  0  0  0  0  0  0
   -4.9048   -0.0560   -5.3680 C   0  0  0  0  0  0  0  0  0  0  0  0
   -6.1298   -0.0413   -4.7134 C   0  0  0  0  0  0  0  0  0  0  0  0
   -5.9778    0.5543   -3.0504 S   0  0  0  0  0  0  0  0  0  0  0  0
   -4.2832    0.7244   -3.2411 C   0  0  0  0  0  0  0  0  0  0  0  0
   -7.4134   -0.4842   -5.0715 C   0  0  0  0  0  0  0  0  0  0  0  0
   -7.8993   -1.0621   -6.2166 C   0  0  0  0  0  0  0  0  0  0  0  0
   -7.2308   -1.2157   -7.5273 C   0  0  0  0  0  0  0  0  0  0  0  0
   -6.0921   -0.9294   -7.8403 O   0  0  0  0  0  0  0  0  0  0  0  0
   -8.2487   -1.7805   -8.4323 C   0  0  0  0  0  0  0  0  0  0  0  0
   -8.1254   -2.0914   -9.7554 C   0  0  0  0  0  0  0  0  0  0  0  0
   -9.2351   -2.6325  -10.4415 C   0  0  0  0  0  0  0  0  0  0  0  0
   -9.1622   -2.9816  -11.8053 C   0  0  0  0  0  0  0  0  0  0  0  0
  -10.2433   -3.5076  -12.4562 C   0  0  0  0  0  0  0  0  0  0  0  0
  -11.4365   -3.6964  -11.7458 C   0  0  0  0  0  0  0  0  0  0  0  0
  -12.4893   -4.2162  -12.4033 F   0  0  0  0  0  0  0  0  0  0  0  0
  -11.5616   -3.3735  -10.4233 C   0  0  0  0  0  0  0  0  0  0  0  0
  -10.4573   -2.8326   -9.7364 C   0  0  0  0  0  0  0  0  0  0  0  0
  -10.5540   -2.4983   -8.3654 C   0  0  0  0  0  0  0  0  0  0  0  0
   -9.4617   -1.9840   -7.7189 C   0  0  0  0  0  0  0  0  0  0  0  0
   -9.2499   -1.5843   -6.3309 C   0  0  0  0  0  0  0  0  0  0  0  0
  -10.1586   -1.7679   -5.3184 C   0  0  0  0  0  0  0  0  0  0  0  0
  -11.4552   -2.2910   -5.5083 C   0  0  0  0  0  0  0  0  0  0  0  0
  -12.5240   -2.7026   -5.5888 N   0  0  0  0  0  0  0  0  0  0  0  0
   -9.9454   -1.5222   -3.9463 C   0  0  0  0  0  0  0  0  0  0  0  0
   -9.8586   -1.3854   -2.8082 N   0  0  0  0  0  0  0  0  0  0  0  0
    7.7432   -0.1656    2.5950 H   0  0  0  0  0  0  0  0  0  0  0  0
    6.3471   -0.8044    8.6910 H   0  0  0  0  0  0  0  0  0  0  0  0
   10.7230   -2.3018    6.6293 H   0  0  0  0  0  0  0  0  0  0  0  0
   10.9228   -2.3916   10.0533 H   0  0  0  0  0  0  0  0  0  0  0  0
   10.8822   -4.8483    9.6517 H   0  0  0  0  0  0  0  0  0  0  0  0
    8.9331   -5.3003    7.9688 H   0  0  0  0  0  0  0  0  0  0  0  0
    6.6595   -4.5236    9.1006 H   0  0  0  0  0  0  0  0  0  0  0  0
    7.2078   -3.5900   11.4819 H   0  0  0  0  0  0  0  0  0  0  0  0
    9.0493   -5.4924   11.4518 H   0  0  0  0  0  0  0  0  0  0  0  0
    9.8267   -3.9756   11.9699 H   0  0  0  0  0  0  0  0  0  0  0  0
    8.7096   -1.6315   11.1460 H   0  0  0  0  0  0  0  0  0  0  0  0
    4.4461    0.7151    4.5943 H   0  0  0  0  0  0  0  0  0  0  0  0
   -1.1263    1.6184    1.2141 H   0  0  0  0  0  0  0  0  0  0  0  0
   -3.7774    1.8973    1.5844 H   0  0  0  0  0  0  0  0  0  0  0  0
   -4.9533    0.3775    3.1204 H   0  0  0  0  0  0  0  0  0  0  0  0
   -5.9687   -3.1135    2.1973 H   0  0  0  0  0  0  0  0  0  0  0  0
   -5.3234   -2.2566    3.6273 H   0  0  0  0  0  0  0  0  0  0  0  0
   -8.9019   -1.1303    2.3179 H   0  0  0  0  0  0  0  0  0  0  0  0
   -8.0157   -2.3371    1.3194 H   0  0  0  0  0  0  0  0  0  0  0  0
   -7.9283    0.6846   -0.6123 H   0  0  0  0  0  0  0  0  0  0  0  0
   -8.5187   -0.9967   -0.6507 H   0  0  0  0  0  0  0  0  0  0  0  0
   -9.3478    0.2130    0.3591 H   0  0  0  0  0  0  0  0  0  0  0  0
   -4.8053   -2.7096    0.1843 H   0  0  0  0  0  0  0  0  0  0  0  0
   -3.6137   -1.2136   -1.3391 H   0  0  0  0  0  0  0  0  0  0  0  0
   -5.5834    2.1153   -0.7133 H   0  0  0  0  0  0  0  0  0  0  0  0
   -6.5710    4.3741   -0.6299 H   0  0  0  0  0  0  0  0  0  0  0  0
   -4.5870    7.5176   -0.9501 H   0  0  0  0  0  0  0  0  0  0  0  0
   -5.6836    6.9543    0.3387 H   0  0  0  0  0  0  0  0  0  0  0  0
   -5.5840    5.9106   -3.0940 H   0  0  0  0  0  0  0  0  0  0  0  0
   -5.6052    7.7066   -3.1540 H   0  0  0  0  0  0  0  0  0  0  0  0
   -8.2723    6.7161   -5.3203 H   0  0  0  0  0  0  0  0  0  0  0  0
   -6.6966    5.8786   -5.2427 H   0  0  0  0  0  0  0  0  0  0  0  0
   -6.7582    7.6608   -5.2679 H   0  0  0  0  0  0  0  0  0  0  0  0
   -2.6745    6.0856   -0.8506 H   0  0  0  0  0  0  0  0  0  0  0  0
   -1.6852    3.8473   -0.9467 H   0  0  0  0  0  0  0  0  0  0  0  0
    0.8876    0.8718   -3.3210 H   0  0  0  0  0  0  0  0  0  0  0  0
    3.0233   -1.4096   -0.0537 H   0  0  0  0  0  0  0  0  0  0  0  0
    4.0525   -3.3962   -1.0715 H   0  0  0  0  0  0  0  0  0  0  0  0
    4.4829   -4.4854   -3.6262 H   0  0  0  0  0  0  0  0  0  0  0  0
    5.6198   -3.3938   -4.4667 H   0  0  0  0  0  0  0  0  0  0  0  0
    7.6857   -2.9935   -3.4161 H   0  0  0  0  0  0  0  0  0  0  0  0
    7.9967   -3.8745   -1.8770 H   0  0  0  0  0  0  0  0  0  0  0  0
    8.7047   -1.8278   -0.7578 H   0  0  0  0  0  0  0  0  0  0  0  0
    7.5898   -0.4475   -0.8967 H   0  0  0  0  0  0  0  0  0  0  0  0
    8.5115   -0.9954   -2.3235 H   0  0  0  0  0  0  0  0  0  0  0  0
    4.6376   -1.2413   -4.7013 H   0  0  0  0  0  0  0  0  0  0  0  0
    3.6176    0.7470   -3.6921 H   0  0  0  0  0  0  0  0  0  0  0  0
    1.7446    3.5621   -1.7638 H   0  0  0  0  0  0  0  0  0  0  0  0
    3.0027    5.6026   -2.2670 H   0  0  0  0  0  0  0  0  0  0  0  0
    5.0605    6.7581   -2.5987 H   0  0  0  0  0  0  0  0  0  0  0  0
    6.4507    5.7925   -3.1769 H   0  0  0  0  0  0  0  0  0  0  0  0
    5.0591    7.4193   -0.3870 H   0  0  0  0  0  0  0  0  0  0  0  0
    6.5244    7.0233    0.5889 H   0  0  0  0  0  0  0  0  0  0  0  0
    6.4143    4.1207    0.4604 H   0  0  0  0  0  0  0  0  0  0  0  0
    6.3357    5.0721    1.9684 H   0  0  0  0  0  0  0  0  0  0  0  0
    5.0204    3.9349    1.5550 H   0  0  0  0  0  0  0  0  0  0  0  0
    6.6570    3.4131   -2.0668 H   0  0  0  0  0  0  0  0  0  0  0  0
    5.4000    1.3627   -1.5485 H   0  0  0  0  0  0  0  0  0  0  0  0
   -4.7947   -0.3772   -6.3875 H   0  0  0  0  0  0  0  0  0  0  0  0
   -8.1298   -0.3657   -4.2666 H   0  0  0  0  0  0  0  0  0  0  0  0
   -7.1904   -1.9297  -10.2708 H   0  0  0  0  0  0  0  0  0  0  0  0
   -8.2318   -2.8271  -12.3309 H   0  0  0  0  0  0  0  0  0  0  0  0
  -10.2040   -3.7814  -13.4986 H   0  0  0  0  0  0  0  0  0  0  0  0
  -12.4955   -3.5339   -9.9075 H   0  0  0  0  0  0  0  0  0  0  0  0
  -11.4944   -2.6593   -7.8639 H   0  0  0  0  0  0  0  0  0  0  0  0
  1  2  2  0  0  0  0
  2  3  1  0  0  0  0
  3  4  2  0  0  0  0
  3  5  1  0  0  0  0
  5  6  2  0  0  0  0
  6  7  1  0  0  0  0
  7  8  2  0  0  0  0
  8  9  1  0  0  0  0
  9 10  2  0  0  0  0
 10 11  1  0  0  0  0
 11 12  2  0  0  0  0
 12 13  1  0  0  0  0
 13 14  3  0  0  0  0
 12 15  1  0  0  0  0
 15 16  3  0  0  0  0
  8 17  1  0  0  0  0
 17 18  1  0  0  0  0
 18 19  1  0  0  0  0
 19 20  2  0  0  0  0
 20 21  1  0  0  0  0
 21 22  1  0  0  0  0
 21 23  1  0  0  0  0
  1 24  1  0  0  0  0
 24 25  2  0  0  0  0
 25 26  1  0  0  0  0
 26 27  1  0  0  0  0
 27 28  1  0  0  0  0
 28 29  1  0  0  0  0
 29 30  2  0  0  0  0
 30 31  1  0  0  0  0
 31 32  1  0  0  0  0
 32 33  1  0  0  0  0
 33 34  2  0  0  0  0
 34 35  1  0  0  0  0
 35 36  2  0  0  0  0
 36 37  1  0  0  0  0
 37 38  1  0  0  0  0
 38 39  1  0  0  0  0
 39 40  1  0  0  0  0
 40 41  1  0  0  0  0
 36 42  1  0  0  0  0
 42 43  2  0  0  0  0
 32 44  1  0  0  0  0
 44 45  2  0  0  0  0
 45 46  1  0  0  0  0
 46 47  2  0  0  0  0
 47 48  1  0  0  0  0
 48 49  1  0  0  0  0
 49 50  1  0  0  0  0
 50 51  1  0  0  0  0
 51 52  1  0  0  0  0
 47 53  1  0  0  0  0
 53 54  2  0  0  0  0
 32 55  1  0  0  0  0
 55 56  2  0  0  0  0
 56 57  1  0  0  0  0
 57 58  1  0  0  0  0
 58 59  2  0  0  0  0
 59 60  1  0  0  0  0
 60 61  1  0  0  0  0
 61 62  2  0  0  0  0
 62 63  1  0  0  0  0
 63 64  2  0  0  0  0
 64 65  1  0  0  0  0
 65 66  1  0  0  0  0
 66 67  1  0  0  0  0
 67 68  1  0  0  0  0
 68 69  1  0  0  0  0
 64 70  1  0  0  0  0
 70 71  2  0  0  0  0
 60 72  1  0  0  0  0
 72 73  2  0  0  0  0
 73 74  1  0  0  0  0
 74 75  2  0  0  0  0
 75 76  1  0  0  0  0
 76 77  1  0  0  0  0
 77 78  1  0  0  0  0
 78 79  1  0  0  0  0
 79 80  1  0  0  0  0
 75 81  1  0  0  0  0
 81 82  2  0  0  0  0
 60 83  1  0  0  0  0
 83 84  1  0  0  0  0
 84 85  1  0  0  0  0
 56 86  1  0  0  0  0
 86 87  1  0  0  0  0
 87 88  1  0  0  0  0
 88 89  2  0  0  0  0
 89 90  1  0  0  0  0
 90 91  1  0  0  0  0
 89 92  1  0  0  0  0
 92 93  2  0  0  0  0
 93 94  1  0  0  0  0
 94 95  2  0  0  0  0
 94 96  1  0  0  0  0
 96 97  2  0  0  0  0
 97 98  1  0  0  0  0
 98 99  2  0  0  0  0
 99100  1  0  0  0  0
100101  2  0  0  0  0
101102  1  0  0  0  0
101103  1  0  0  0  0
103104  2  0  0  0  0
104105  1  0  0  0  0
105106  2  0  0  0  0
106107  1  0  0  0  0
107108  2  0  0  0  0
108109  1  0  0  0  0
109110  3  0  0  0  0
108111  1  0  0  0  0
111112  3  0  0  0  0
 11  2  1  0  0  0  0
 23 17  1  0  0  0  0
 85 24  1  0  0  0  0
 91 87  2  0  0  0  0
107 93  1  0  0  0  0
 10  5  1  0  0  0  0
 22 18  1  0  0  0  0
 84 26  2  0  0  0  0
106 96  1  0  0  0  0
 23  7  1  0  0  0  0
 83 28  2  0  0  0  0
104 98  1  0  0  0  0
 59 29  1  0  0  0  0
 71 61  1  0  0  0  0
 82 72  1  0  0  0  0
 57 31  2  0  0  0  0
 43 33  1  0  0  0  0
 54 44  1  0  0  0  0
 91 55  1  0  0  0  0
  1113  1  0  0  0  0
  6114  1  0  0  0  0
  9115  1  0  0  0  0
 17116  1  0  0  0  0
 18117  1  0  0  0  0
 19118  1  0  0  0  0
 20119  1  0  0  0  0
 21120  1  0  0  0  0
 22121  1  0  0  0  0
 22122  1  0  0  0  0
 23123  1  0  0  0  0
 25124  1  0  0  0  0
 30125  1  0  0  0  0
 34126  1  0  0  0  0
 35127  1  0  0  0  0
 37128  1  0  0  0  0
 37129  1  0  0  0  0
 39130  1  0  0  0  0
 39131  1  0  0  0  0
 41132  1  0  0  0  0
 41133  1  0  0  0  0
 41134  1  0  0  0  0
 42135  1  0  0  0  0
 43136  1  0  0  0  0
 45137  1  0  0  0  0
 46138  1  0  0  0  0
 48139  1  0  0  0  0
 48140  1  0  0  0  0
 50141  1  0  0  0  0
 50142  1  0  0  0  0
 52143  1  0  0  0  0
 52144  1  0  0  0  0
 52145  1  0  0  0  0
 53146  1  0  0  0  0
 54147  1  0  0  0  0
 58148  1  0  0  0  0
 62149  1  0  0  0  0
 63150  1  0  0  0  0
 65151  1  0  0  0  0
 65152  1  0  0  0  0
 67153  1  0  0  0  0
 67154  1  0  0  0  0
 69155  1  0  0  0  0
 69156  1  0  0  0  0
 69157  1  0  0  0  0
 70158  1  0  0  0  0
 71159  1  0  0  0  0
 73160  1  0  0  0  0
 74161  1  0  0  0  0
 76162  1  0  0  0  0
 76163  1  0  0  0  0
 78164  1  0  0  0  0
 78165  1  0  0  0  0
 80166  1  0  0  0  0
 80167  1  0  0  0  0
 80168  1  0  0  0  0
 81169  1  0  0  0  0
 82170  1  0  0  0  0
 88171  1  0  0  0  0
 92172  1  0  0  0  0
 97173  1  0  0  0  0
 99174  1  0  0  0  0
100175  1  0  0  0  0
103176  1  0  0  0  0
105177  1  0  0  0  0
M  END
