244

C         -8.59520        7.76670       -0.40210
C         -9.27090        8.38250        0.61500
C        -10.74970        8.25490        0.67660
O        -11.48520        7.88310       -0.21090
C        -11.11490        8.61610        2.06210
C        -12.36740        8.50830        2.66200
C        -12.38760        8.87640        3.98640
C        -11.24670        9.31620        4.67020
C        -10.00590        9.43560        4.08990
C         -9.96640        9.07020        2.74230
C         -8.84580        9.07770        1.80300
C         -7.70400        9.82980        1.93530
C         -6.78960       10.01800        0.88200
N         -6.04020       10.21960        0.03530
C         -7.35970       10.55900        3.08860
N         -7.01350       11.15030        4.01070
C        -11.99610        9.50120        5.96630
C        -12.36060       10.95030        6.35180
C        -13.46910       10.78600        7.36640
C        -14.55090       10.37270        6.71870
C        -14.19180       10.25070        5.25520
C        -13.18060       11.39800        5.13490
C        -13.26960        9.01450        5.20300
C         -7.25810        7.34050       -0.46010
S         -6.65610        6.68150       -1.97990
C         -5.17310        6.27590       -1.23680
C         -3.98450        5.58750       -1.55960
C         -3.19490        5.49130       -0.41390
C         -3.83400        6.20730        0.75000
C         -5.13680        6.63800        0.11780
C         -6.30640        7.22510        0.55290
C         -4.12820        5.31820        1.94270
C         -4.42590        5.90400        3.16710
C         -4.71560        5.12010        4.26680
C         -4.71950        3.73390        4.17340
C         -4.96750        2.88200        5.38470
C         -3.64750        2.57220        6.09420
C         -4.43870        3.15530        2.94380
C         -4.15450        3.93560        1.83780
C         -2.92830        7.36370        1.14510
C         -1.78850        7.09600        1.89350
C         -0.93300        8.11870        2.25390
C         -1.19070        9.43020        1.87430
C         -0.29480       10.55070        2.31690
C         -0.79910       11.14460        3.63390
C         -2.32580        9.68710        1.11810
C         -3.18430        8.66740        0.74840
C         -2.06370        4.71570       -0.63780
S         -0.79240        4.09350        0.37040
C         -0.24700        3.11830       -0.95260
C          0.68750        2.04620       -1.09240
C          1.51170        1.43090       -0.15440
C          2.13900        0.26930       -0.53760
C          2.98940       -0.66080        0.31250
C          4.27390        0.06560        0.66980
C          4.29130        0.94620        1.74440
C          5.44000        1.64560        2.05960
C          6.59940        1.48930        1.31060
C          7.86120        2.21090        1.68640
C          8.68050        1.37410        2.67120
C          6.57540        0.61160        0.23600
C          5.42690       -0.08830       -0.08610
C          2.28300       -1.19860        1.54220
C          0.89950       -1.19370        1.64870
C          0.28240       -1.73640        2.76120
C          1.02540       -2.31120        3.78310
C          0.35350       -2.85180        5.01230
C          0.20270       -1.75080        6.06410
C          2.40880       -2.33270        3.66070
C          3.03120       -1.78710        2.55460
C          3.19760       -1.80300       -0.64500
C          2.63820       -1.51450       -1.87730
C          1.98040       -0.24540       -1.84590
C          1.20460        0.40440       -2.80240
C          0.55190        1.54910       -2.40930
C         -0.46900        2.35990       -3.19200
C         -1.52560        1.41060       -3.72270
C         -1.37090        0.82390       -4.97230
C         -2.29790       -0.08850       -5.43820
C         -3.40110       -0.44080       -4.67160
C         -4.37930       -1.46890       -5.16190
C         -3.92800       -2.87210       -4.75080
C         -3.54610        0.14100       -3.41980
C         -2.61880        1.05100       -2.94730
C          0.13110        3.21000       -4.29700
C          1.50040        3.37410       -4.44070
C          2.00420        4.18160       -5.44530
C          1.15810        4.84630       -6.32160
C          1.70700        5.75340       -7.38490
C          1.82410        7.18480       -6.85740
C         -0.21350        4.69000       -6.16170
C         -0.72230        3.88360       -5.16320
C         -0.97380        3.28790       -2.11800
C         -2.00860        4.20630       -1.95230
S         -3.33990        4.74410       -2.93070
S          2.76230       -2.80520       -3.02650
C          3.53970       -3.78340       -1.81820
C          3.94990       -5.10940       -1.74360
C          4.42570       -5.42430       -0.47130
S          4.39990       -4.09730        0.64310
C          3.70470       -3.09910       -0.59570
C          4.75140       -6.79620       -0.43690
S          5.29820       -7.94400        0.70550
C          5.19080       -9.21770       -0.50770
C          4.72150       -8.72600       -1.72120
C          4.50200       -7.36150       -1.69250
C          4.01840       -6.30670       -2.65980
C          5.03330       -5.98290       -3.74670
C          6.34990       -6.41430       -3.67400
C          7.24870       -6.06860       -4.66710
C          6.86210       -5.28020       -5.74220
C          7.83110       -4.95420       -6.84190
C          7.80940       -6.04860       -7.91090
C          5.54540       -4.84080       -5.79950
C          4.64100       -5.18350       -4.81320
C          2.68590       -6.72060       -3.25020
C          2.66130       -7.60100       -4.32480
C          1.45900       -8.00770       -4.86970
C          0.25200       -7.54670       -4.35880
C         -1.05520       -8.01320       -4.93160
C         -1.53700       -9.27260       -4.20860
C          0.28290       -6.68120       -3.27440
C          1.48360       -6.27570       -2.72080
C          5.45620      -10.56920       -0.20920
C          6.15760      -11.09070        0.83680
C          5.91000      -12.48360        1.28700
O          5.31950      -13.35050        0.68100
C          6.47840      -12.55540        2.64890
C          6.37090      -13.60810        3.55440
C          6.97030      -13.36720        4.76750
C          7.63070      -12.16740        5.06480
C          7.75720      -11.12480        4.17750
C          7.15400      -11.35100        2.93890
C          7.10030      -10.49640        1.75560
C          7.98780       -9.49510        1.45210
C          8.06860       -8.90790        0.17290
N          8.19180       -8.44600       -0.87160
C          8.97230       -9.01660        2.33710
N          9.78400       -8.58220        3.02370
C          7.96660      -12.60700        6.46770
C          7.11750      -12.03100        7.62800
C          5.76960      -11.68680        7.04480
C          5.14800      -12.82400        6.76290
C          6.06460      -13.95780        7.15050
C          6.76840      -13.33340        8.36590
C          7.23460      -13.94540        6.13560
H         -9.21990        7.47070       -1.23960
H        -13.22160        8.15760        2.10420
H         -9.13030        9.76390        4.62600
H        -11.63830        8.91320        6.80960
H        -11.51670       11.56960        6.64310
H        -13.34110       10.92850        8.42350
H        -15.50680       10.10080        7.12660
H        -15.01740       10.23360        4.54880
H        -13.64310       12.37190        5.28620
H        -12.62200       11.40130        4.20080
H        -13.76090        8.10270        5.53830
H         -6.49650        7.50640        1.57240
H         -4.41680        6.98060        3.25950
H         -4.94040        5.59190        5.21280
H         -5.44550        1.94590        5.08860
H         -5.63360        3.40310        6.07500
H         -3.16330        3.49360        6.41000
H         -2.97250        2.04500        5.42360
H         -3.82190        1.95270        6.97080
H         -4.44380        2.07890        2.84700
H         -3.95010        3.45920        0.89030
H         -1.57700        6.08230        2.20320
H         -0.05250        7.89410        2.83900
H         -0.27610       11.33210        1.55460
H          0.72330       10.18050        2.45400
H         -1.81030       11.52640        3.51320
H         -0.15540       11.96000        3.95550
H         -0.81190       10.38390        4.41140
H         -2.54840       10.69820        0.81000
H         -4.05930        8.90280        0.16180
H          1.59880        1.82640        0.84560
H          3.40370        1.07410        2.34680
H          5.43610        2.32500        2.90020
H          8.45890        2.40170        0.79280
H          7.61650        3.17070        2.14580
H          8.10500        1.18190        3.57400
H          9.59450        1.89560        2.94580
H          8.94600        0.41820        2.22560
H          7.46580        0.47350       -0.36060
H          5.43510       -0.76070       -0.93160
H          0.29820       -0.76300        0.86130
H         -0.79610       -1.71700        2.83190
H         -0.63370       -3.24130        4.75500
H          0.94580       -3.66880        5.42890
H         -0.27630       -2.14120        6.95900
H         -0.40160       -0.93470        5.67400
H          1.17780       -1.35340        6.33690
H          3.00720       -2.78530        4.43820
H          4.10870       -1.81220        2.47810
H          1.08750       -0.00700       -3.79330
H         -0.52370        1.08970       -5.58800
H         -2.16310       -0.53280       -6.41410
H         -4.45380       -1.41980       -6.25010
H         -5.36750       -1.27080       -4.74230
H         -2.94780       -3.09200       -5.16850
H         -4.63400       -3.61870       -5.10720
H         -3.86110       -2.94510       -3.66750
H         -4.39570       -0.12080       -2.80500
H         -2.74890        1.48180       -1.96490
H          2.17950        2.86750       -3.77060
H          3.07420        4.29280       -5.54920
H          2.69250        5.40340       -7.69840
H          1.04760        5.74410       -8.25520
H          2.21400        7.84440       -7.62910
H          2.49310        7.21830       -6.00030
H          0.84980        7.55330       -6.54430
H         -0.89090        5.20270       -6.82930
H         -1.79140        3.76540       -5.05850
H          4.58320       -9.35760       -2.58000
H          6.68500       -7.02280       -2.84750
H          8.26880       -6.41730       -4.59820
H          7.56650       -3.99850       -7.29910
H          8.84010       -4.87130       -6.43340
H          8.51450       -5.81890       -8.70640
H          6.81460       -6.13610       -8.34240
H          8.07830       -7.00780       -7.47430
H          5.22350       -4.22020       -6.62380
H          3.62000       -4.83400       -4.87300
H          3.59160       -7.95750       -4.74290
H          1.45730       -8.68860       -5.70900
H         -1.80630       -7.22770       -4.82520
H         -0.93680       -8.23190       -5.99470
H         -1.67070       -9.07190       -3.14790
H         -0.80780      -10.07240       -4.31530
H         -2.48520       -9.60940       -4.62120
H         -0.64440       -6.31460       -2.85750
H          1.47800       -5.60580       -1.87340
H          4.96190      -11.29520       -0.84770
H          5.85380      -14.51720        3.28990
H          8.26190      -10.20200        4.41330
H          9.02600      -12.65190        6.71210
H          7.60750      -11.24720        8.19970
H          5.44010      -10.68320        6.84880
H          4.19560      -12.96000        6.28460
H          5.59560      -14.92870        7.28780
H          6.09490      -13.17390        9.20680
H          7.64270      -13.89280        8.69580
H          7.81700      -14.86430        6.16240
