117

C          3.82420       -5.08050        1.89720
C          3.00880       -6.08290        1.43310
C          1.71220       -5.91350        0.77270
O          1.17910       -4.86830        0.43610
C          1.15680       -7.26510        0.59350
C         -0.08150       -7.59790        0.05050
C         -0.34430       -8.94670        0.04340
C          0.56020       -9.89490        0.53890
C          1.78990       -9.57990        1.06730
C          2.07710       -8.21250        1.08540
C          3.25830       -7.50320        1.57660
C          4.39550       -8.10170        2.05800
C          4.58440       -9.49580        2.15810
N          4.81540      -10.61530        2.26920
C          5.55410       -7.43360        2.50480
N          6.53670       -6.97130        2.88200
C         -0.36350      -11.04900        0.24230
C         -1.14280      -11.67100        1.42770
C         -1.29570      -10.58320        2.46160
C         -2.15230       -9.68930        1.98580
C         -2.59280      -10.15590        0.62030
C         -2.55930      -11.67810        0.83100
C         -1.36960       -9.99340       -0.31560
C          3.67470       -3.68970        1.86920
C          4.58830       -2.80870        2.47400
C          5.86290       -3.19680        3.14950
C          6.98360       -3.39690        2.12580
C          4.18320       -1.48750        2.33920
S          4.85640        0.02200        2.92940
C          3.50720        0.85620        2.24260
C          2.96590        2.14980        2.21070
C          3.38070        3.32290        2.89480
C          2.51500        4.44610        2.87490
N          2.79830        5.54790        3.57790
C          3.92060        5.54180        4.26460
C          4.78910        4.44470        4.26040
N          4.52310        3.34440        3.58970
C          1.35690        4.38390        2.05600
C          0.38980        5.36560        1.78810
S         -0.02100        6.96790        2.28890
C         -1.36800        6.94010        1.16470
C         -2.35780        7.86690        0.86400
C         -2.43500        9.21080        1.51220
C         -1.77690       10.28050        0.63670
C         -3.22430        7.38530       -0.13150
S         -2.78630        5.76340       -0.67100
C         -1.46960        5.74060        0.43930
C         -0.46710        4.84230        0.81410
N         -0.09150        3.56220        0.49160
C          1.01600        3.25320        1.26040
C          1.76120        2.06660        1.45370
N          1.55940        0.75400        1.08840
C          2.61090        0.01890        1.56690
C          2.98020       -1.32700        1.63000
S          2.32210       -2.83640        1.12300
C          0.38720        0.08560        0.57240
C          0.58840       -0.38390       -0.86850
C         -0.49560        3.04350       -0.79780
C          0.29290        3.71210       -1.92320
C         -4.32600        8.11280       -0.59640
C         -5.25040        7.82440       -1.56750
C         -5.23670        6.66590       -2.46050
O         -4.49330        5.69960       -2.42130
C         -6.29920        6.90580       -3.45590
C         -6.63500        6.13940       -4.55270
C         -7.63690        6.61360       -5.38750
C         -8.24540        7.83330       -5.14920
C         -7.90120        8.62240       -4.04570
O         -8.39040        9.85130       -3.80500
C         -9.43630       10.36590       -4.59680
C         -6.94200        8.11840       -3.15750
C         -6.39470        8.65340       -1.91620
C         -6.93640        9.64230       -1.13520
C         -8.17830       10.28890       -1.32140
N         -9.18540       10.84070       -1.30060
C         -6.37980       10.10380        0.07750
N         -5.99430       10.54580        1.06630
H          4.72770       -5.40090        2.39780
H         -0.74910       -6.83400       -0.31660
H          2.47250      -10.32340        1.44300
H          0.01820      -11.80330       -0.44290
H         -0.74350      -12.61720        1.78290
H         -0.73970      -10.54770        3.38010
H         -2.45480       -8.75760        2.42710
H         -3.51430       -9.72360        0.23900
H         -3.31270      -12.02200        1.53810
H         -2.63720      -12.24630       -0.09490
H         -1.64020      -10.05510       -1.36800
H          5.73750       -4.11150        3.73080
H          6.14300       -2.39260        3.83290
H          6.73830       -4.20310        1.43880
H          7.90700       -3.65280        2.63730
H          7.14020       -2.48530        1.55380
H          4.13920        6.43580        4.83200
H          5.71760        4.45480        4.81440
H         -3.47150        9.48820        1.71190
H         -1.90640        9.15810        2.46600
H         -2.27770       10.35400       -0.32610
H         -0.73100       10.03640        0.46480
H         -1.83240       11.24680        1.13030
H          0.20700       -0.79430        1.19930
H         -0.47380        0.74720        0.67780
H          0.95270        0.42070       -1.50380
H         -0.34960       -0.75650       -1.27000
H          1.31430       -1.19200       -0.89480
H         -1.56090        3.26090       -0.91620
H         -0.34760        1.97140       -0.84500
H         -0.03360        3.32050       -2.88230
H          0.13030        4.78680       -1.91630
H          1.35810        3.52030       -1.80720
H         -4.44120        9.06860       -0.10410
H         -6.12630        5.20830       -4.74380
H         -7.93730        6.03810       -6.25010
H         -8.99460        8.18510       -5.84070
H         -9.10470       10.55440       -5.62250
H        -10.29970        9.69530       -4.60210
H         -9.71460       11.30420       -4.12050
