
  xtb     02022214113D
 energy: -230.225314791854 gnorm: 0.000836386545 xtb: 6.4.1 (unknown)
130146  0     0  0            999 V2000
    5.9314   -2.5162    1.2696 C   0  0  0  0  0  0  0  0  0  0  0  0
    6.6770   -3.1835    2.1974 C   0  0  0  0  0  0  0  0  0  0  0  0
    6.1558   -4.0650    3.2700 C   0  0  0  0  0  0  0  0  0  0  0  0
    5.0535   -4.5668    3.3380 O   0  0  0  0  0  0  0  0  0  0  0  0
    7.2979   -4.3207    4.1655 C   0  0  0  0  0  0  0  0  0  0  0  0
    7.2674   -4.9695    5.3974 C   0  0  0  0  0  0  0  0  0  0  0  0
    8.4868   -5.0287    6.0276 C   0  0  0  0  0  0  0  0  0  0  0  0
    9.6565   -4.5005    5.4637 C   0  0  0  0  0  0  0  0  0  0  0  0
    9.7028   -3.8698    4.2440 C   0  0  0  0  0  0  0  0  0  0  0  0
    8.4677   -3.7848    3.5919 C   0  0  0  0  0  0  0  0  0  0  0  0
    8.1231   -3.1609    2.3156 C   0  0  0  0  0  0  0  0  0  0  0  0
    9.0200   -2.6356    1.4213 C   0  0  0  0  0  0  0  0  0  0  0  0
   10.4199   -2.6453    1.5947 C   0  0  0  0  0  0  0  0  0  0  0  0
   11.5657   -2.6155    1.6644 N   0  0  0  0  0  0  0  0  0  0  0  0
    8.6910   -2.0369    0.1875 C   0  0  0  0  0  0  0  0  0  0  0  0
    8.5053   -1.5353   -0.8292 N   0  0  0  0  0  0  0  0  0  0  0  0
   10.5050   -4.9055    6.6439 C   0  0  0  0  0  0  0  0  0  0  0  0
   10.8933   -3.7830    7.6291 C   0  0  0  0  0  0  0  0  0  0  0  0
   11.2790   -4.5217    8.8900 C   0  0  0  0  0  0  0  0  0  0  0  0
   10.1685   -5.0120    9.4260 C   0  0  0  0  0  0  0  0  0  0  0  0
    9.0137   -4.6136    8.5354 C   0  0  0  0  0  0  0  0  0  0  0  0
    9.5167   -3.2498    8.0455 C   0  0  0  0  0  0  0  0  0  0  0  0
    9.1996   -5.4870    7.2759 C   0  0  0  0  0  0  0  0  0  0  0  0
    4.5406   -2.2595    1.3023 C   0  0  0  0  0  0  0  0  0  0  0  0
    3.6528   -2.1284    2.3675 C   0  0  0  0  0  0  0  0  0  0  0  0
    4.0181   -2.1733    3.7811 C   0  0  0  0  0  0  0  0  0  0  0  0
    3.2506   -2.9131    4.6749 C   0  0  0  0  0  0  0  0  0  0  0  0
    3.6370   -3.0037    5.9995 C   0  0  0  0  0  0  0  0  0  0  0  0
    4.7788   -2.3609    6.4408 C   0  0  0  0  0  0  0  0  0  0  0  0
    5.5424   -1.5962    5.5655 C   0  0  0  0  0  0  0  0  0  0  0  0
    6.7543   -0.8515    6.0469 C   0  0  0  0  0  0  0  0  0  0  0  0
    6.4107    0.6112    6.3339 C   0  0  0  0  0  0  0  0  0  0  0  0
    5.1468   -1.5019    4.2413 C   0  0  0  0  0  0  0  0  0  0  0  0
    2.3563   -1.8383    1.9172 C   0  0  0  0  0  0  0  0  0  0  0  0
    0.8564   -1.5414    2.7638 S   0  0  0  0  0  0  0  0  0  0  0  0
    0.0894   -1.2308    1.2450 C   0  0  0  0  0  0  0  0  0  0  0  0
   -1.1708   -0.8596    0.7485 C   0  0  0  0  0  0  0  0  0  0  0  0
   -2.4300   -0.7045    1.3699 C   0  0  0  0  0  0  0  0  0  0  0  0
   -3.5679   -0.3732    0.5583 C   0  0  0  0  0  0  0  0  0  0  0  0
   -4.6888   -0.3186    1.2598 N   0  0  0  0  0  0  0  0  0  0  0  0
   -4.3451   -0.6494    2.8059 S   0  0  0  0  0  0  0  0  0  0  0  0
   -2.7509   -0.8746    2.6426 N   0  0  0  0  0  0  0  0  0  0  0  0
   -3.3705   -0.0671   -0.8077 C   0  0  0  0  0  0  0  0  0  0  0  0
   -4.2263    0.4936   -1.7665 C   0  0  0  0  0  0  0  0  0  0  0  0
   -5.8799    0.9725   -1.9194 S   0  0  0  0  0  0  0  0  0  0  0  0
   -5.5238    1.6004   -3.5119 C   0  0  0  0  0  0  0  0  0  0  0  0
   -6.3196    2.2290   -4.4769 C   0  0  0  0  0  0  0  0  0  0  0  0
   -7.7631    2.3991   -4.3519 C   0  0  0  0  0  0  0  0  0  0  0  0
   -8.3083    2.8817   -3.1646 C   0  0  0  0  0  0  0  0  0  0  0  0
   -9.6719    3.0860   -3.0697 C   0  0  0  0  0  0  0  0  0  0  0  0
  -10.4977    2.8036   -4.1424 C   0  0  0  0  0  0  0  0  0  0  0  0
   -9.9737    2.2885   -5.3235 C   0  0  0  0  0  0  0  0  0  0  0  0
  -10.8660    1.9916   -6.4949 C   0  0  0  0  0  0  0  0  0  0  0  0
  -10.8584    3.1551   -7.4882 C   0  0  0  0  0  0  0  0  0  0  0  0
   -8.6057    2.0904   -5.4166 C   0  0  0  0  0  0  0  0  0  0  0  0
   -5.5701    2.5737   -5.6053 C   0  0  0  0  0  0  0  0  0  0  0  0
   -3.8977    2.0192   -5.4814 S   0  0  0  0  0  0  0  0  0  0  0  0
   -4.1848    1.4176   -3.8929 C   0  0  0  0  0  0  0  0  0  0  0  0
   -3.4446    0.7814   -2.8936 C   0  0  0  0  0  0  0  0  0  0  0  0
   -2.1488    0.3830   -2.6851 N   0  0  0  0  0  0  0  0  0  0  0  0
   -2.0846   -0.1564   -1.4110 C   0  0  0  0  0  0  0  0  0  0  0  0
   -1.0204   -0.7083   -0.6574 C   0  0  0  0  0  0  0  0  0  0  0  0
    0.2701   -1.0583   -1.0125 N   0  0  0  0  0  0  0  0  0  0  0  0
    0.9462   -1.3544    0.1440 C   0  0  0  0  0  0  0  0  0  0  0  0
    2.2446   -1.7045    0.5269 C   0  0  0  0  0  0  0  0  0  0  0  0
    3.7634   -1.9458   -0.2502 S   0  0  0  0  0  0  0  0  0  0  0  0
    0.7052   -1.6092   -2.2780 C   0  0  0  0  0  0  0  0  0  0  0  0
    0.8351   -3.1301   -2.2094 C   0  0  0  0  0  0  0  0  0  0  0  0
   -1.0870    0.9450   -3.4982 C   0  0  0  0  0  0  0  0  0  0  0  0
   -0.1788    1.8705   -2.6961 C   0  0  0  0  0  0  0  0  0  0  0  0
   -5.9259    3.2468   -6.7866 C   0  0  0  0  0  0  0  0  0  0  0  0
   -6.9269    4.1730   -6.9487 C   0  0  0  0  0  0  0  0  0  0  0  0
   -7.5438    4.9555   -5.8587 C   0  0  0  0  0  0  0  0  0  0  0  0
   -7.2637    4.9405   -4.6787 O   0  0  0  0  0  0  0  0  0  0  0  0
   -8.4898    5.8772   -6.5238 C   0  0  0  0  0  0  0  0  0  0  0  0
   -9.3521    6.7847   -5.9463 C   0  0  0  0  0  0  0  0  0  0  0  0
  -10.1590    7.5483   -6.7812 C   0  0  0  0  0  0  0  0  0  0  0  0
  -11.2626    8.6753   -6.1011 Cl  0  0  0  0  0  0  0  0  0  0  0  0
  -10.0765    7.4008   -8.1692 C   0  0  0  0  0  0  0  0  0  0  0  0
  -11.0723    8.3587   -9.1902 Cl  0  0  0  0  0  0  0  0  0  0  0  0
   -9.2010    6.4876   -8.7470 C   0  0  0  0  0  0  0  0  0  0  0  0
   -8.4055    5.7161   -7.9167 C   0  0  0  0  0  0  0  0  0  0  0  0
   -7.4381    4.6590   -8.2097 C   0  0  0  0  0  0  0  0  0  0  0  0
   -7.1600    4.1601   -9.4579 C   0  0  0  0  0  0  0  0  0  0  0  0
   -6.3122    3.0645   -9.7209 C   0  0  0  0  0  0  0  0  0  0  0  0
   -5.6604    2.1632  -10.0083 N   0  0  0  0  0  0  0  0  0  0  0  0
   -7.7144    4.6640  -10.6523 C   0  0  0  0  0  0  0  0  0  0  0  0
   -8.1275    5.0285  -11.6594 N   0  0  0  0  0  0  0  0  0  0  0  0
    6.4380   -2.1075    0.4031 H   0  0  0  0  0  0  0  0  0  0  0  0
    6.3435   -5.3642    5.7897 H   0  0  0  0  0  0  0  0  0  0  0  0
   10.6110   -3.4695    3.8254 H   0  0  0  0  0  0  0  0  0  0  0  0
   11.3260   -5.5858    6.4268 H   0  0  0  0  0  0  0  0  0  0  0  0
   11.6126   -3.0664    7.2420 H   0  0  0  0  0  0  0  0  0  0  0  0
   12.2920   -4.6543    9.2216 H   0  0  0  0  0  0  0  0  0  0  0  0
   10.0688   -5.6363   10.2944 H   0  0  0  0  0  0  0  0  0  0  0  0
    8.0205   -4.6541    8.9749 H   0  0  0  0  0  0  0  0  0  0  0  0
    8.9389   -2.8351    7.2217 H   0  0  0  0  0  0  0  0  0  0  0  0
    9.5832   -2.5205    8.8515 H   0  0  0  0  0  0  0  0  0  0  0  0
    9.1524   -6.5535    7.4877 H   0  0  0  0  0  0  0  0  0  0  0  0
    2.3812   -3.4447    4.3222 H   0  0  0  0  0  0  0  0  0  0  0  0
    3.0476   -3.5900    6.6886 H   0  0  0  0  0  0  0  0  0  0  0  0
    5.0852   -2.4502    7.4733 H   0  0  0  0  0  0  0  0  0  0  0  0
    7.1321   -1.3162    6.9598 H   0  0  0  0  0  0  0  0  0  0  0  0
    7.5413   -0.8962    5.2894 H   0  0  0  0  0  0  0  0  0  0  0  0
    7.2910    1.1473    6.6805 H   0  0  0  0  0  0  0  0  0  0  0  0
    6.0389    1.0974    5.4351 H   0  0  0  0  0  0  0  0  0  0  0  0
    5.6408    0.6736    7.0996 H   0  0  0  0  0  0  0  0  0  0  0  0
    5.7258   -0.9001    3.5538 H   0  0  0  0  0  0  0  0  0  0  0  0
   -7.6600    3.1313   -2.3402 H   0  0  0  0  0  0  0  0  0  0  0  0
  -10.0916    3.4733   -2.1535 H   0  0  0  0  0  0  0  0  0  0  0  0
  -11.5617    2.9742   -4.0638 H   0  0  0  0  0  0  0  0  0  0  0  0
  -11.8864    1.8226   -6.1470 H   0  0  0  0  0  0  0  0  0  0  0  0
  -10.5232    1.0872   -7.0018 H   0  0  0  0  0  0  0  0  0  0  0  0
   -9.8609    3.2969   -7.8975 H   0  0  0  0  0  0  0  0  0  0  0  0
  -11.5421    2.9585   -8.3102 H   0  0  0  0  0  0  0  0  0  0  0  0
  -11.1591    4.0791   -6.9980 H   0  0  0  0  0  0  0  0  0  0  0  0
   -8.1870    1.6774   -6.3243 H   0  0  0  0  0  0  0  0  0  0  0  0
    1.6675   -1.1632   -2.5485 H   0  0  0  0  0  0  0  0  0  0  0  0
   -0.0381   -1.3664   -3.0321 H   0  0  0  0  0  0  0  0  0  0  0  0
    1.5958   -3.4285   -1.4942 H   0  0  0  0  0  0  0  0  0  0  0  0
   -0.1134   -3.5761   -1.9173 H   0  0  0  0  0  0  0  0  0  0  0  0
    1.1147   -3.5132   -3.1869 H   0  0  0  0  0  0  0  0  0  0  0  0
   -1.5785    1.5160   -4.2896 H   0  0  0  0  0  0  0  0  0  0  0  0
   -0.5006    0.1634   -3.9867 H   0  0  0  0  0  0  0  0  0  0  0  0
    0.5430    2.3351   -3.3618 H   0  0  0  0  0  0  0  0  0  0  0  0
   -0.7668    2.6523   -2.2207 H   0  0  0  0  0  0  0  0  0  0  0  0
    0.3596    1.3261   -1.9256 H   0  0  0  0  0  0  0  0  0  0  0  0
   -5.3005    3.0212   -7.6429 H   0  0  0  0  0  0  0  0  0  0  0  0
   -9.4023    6.8889   -4.8741 H   0  0  0  0  0  0  0  0  0  0  0  0
   -9.1637    6.4036   -9.8207 H   0  0  0  0  0  0  0  0  0  0  0  0
  1  2  2  0  0  0  0
  2  3  1  0  0  0  0
  3  4  2  0  0  0  0
  3  5  1  0  0  0  0
  5  6  2  0  0  0  0
  6  7  1  0  0  0  0
  7  8  2  0  0  0  0
  8  9  1  0  0  0  0
  9 10  2  0  0  0  0
 10 11  1  0  0  0  0
 11 12  2  0  0  0  0
 12 13  1  0  0  0  0
 13 14  3  0  0  0  0
 12 15  1  0  0  0  0
 15 16  3  0  0  0  0
  8 17  1  0  0  0  0
 17 18  1  0  0  0  0
 18 19  1  0  0  0  0
 19 20  2  0  0  0  0
 20 21  1  0  0  0  0
 21 22  1  0  0  0  0
 21 23  1  0  0  0  0
  1 24  1  0  0  0  0
 24 25  2  0  0  0  0
 25 26  1  0  0  0  0
 26 27  2  0  0  0  0
 27 28  1  0  0  0  0
 28 29  2  0  0  0  0
 29 30  1  0  0  0  0
 30 31  1  0  0  0  0
 31 32  1  0  0  0  0
 30 33  2  0  0  0  0
 25 34  1  0  0  0  0
 34 35  1  0  0  0  0
 35 36  1  0  0  0  0
 36 37  1  0  0  0  0
 37 38  1  0  0  0  0
 38 39  1  0  0  0  0
 39 40  2  0  0  0  0
 40 41  1  0  0  0  0
 41 42  1  0  0  0  0
 39 43  1  0  0  0  0
 43 44  1  0  0  0  0
 44 45  1  0  0  0  0
 45 46  1  0  0  0  0
 46 47  1  0  0  0  0
 47 48  1  0  0  0  0
 48 49  2  0  0  0  0
 49 50  1  0  0  0  0
 50 51  2  0  0  0  0
 51 52  1  0  0  0  0
 52 53  1  0  0  0  0
 53 54  1  0  0  0  0
 52 55  2  0  0  0  0
 47 56  2  0  0  0  0
 56 57  1  0  0  0  0
 57 58  1  0  0  0  0
 58 59  1  0  0  0  0
 59 60  1  0  0  0  0
 60 61  1  0  0  0  0
 61 62  1  0  0  0  0
 62 63  1  0  0  0  0
 63 64  1  0  0  0  0
 64 65  1  0  0  0  0
 65 66  1  0  0  0  0
 63 67  1  0  0  0  0
 67 68  1  0  0  0  0
 60 69  1  0  0  0  0
 69 70  1  0  0  0  0
 56 71  1  0  0  0  0
 71 72  2  0  0  0  0
 72 73  1  0  0  0  0
 73 74  2  0  0  0  0
 73 75  1  0  0  0  0
 75 76  2  0  0  0  0
 76 77  1  0  0  0  0
 77 78  1  0  0  0  0
 77 79  2  0  0  0  0
 79 80  1  0  0  0  0
 79 81  1  0  0  0  0
 81 82  2  0  0  0  0
 82 83  1  0  0  0  0
 83 84  2  0  0  0  0
 84 85  1  0  0  0  0
 85 86  3  0  0  0  0
 84 87  1  0  0  0  0
 87 88  3  0  0  0  0
 11  2  1  0  0  0  0
 23 17  1  0  0  0  0
 66 24  1  0  0  0  0
 83 72  1  0  0  0  0
 10  5  1  0  0  0  0
 22 18  1  0  0  0  0
 33 26  1  0  0  0  0
 65 34  2  0  0  0  0
 82 75  1  0  0  0  0
 23  7  1  0  0  0  0
 64 36  2  0  0  0  0
 62 37  2  0  0  0  0
 42 38  2  0  0  0  0
 61 43  2  0  0  0  0
 59 44  2  0  0  0  0
 58 46  2  0  0  0  0
 55 48  1  0  0  0  0
  1 89  1  0  0  0  0
  6 90  1  0  0  0  0
  9 91  1  0  0  0  0
 17 92  1  0  0  0  0
 18 93  1  0  0  0  0
 19 94  1  0  0  0  0
 20 95  1  0  0  0  0
 21 96  1  0  0  0  0
 22 97  1  0  0  0  0
 22 98  1  0  0  0  0
 23 99  1  0  0  0  0
 27100  1  0  0  0  0
 28101  1  0  0  0  0
 29102  1  0  0  0  0
 31103  1  0  0  0  0
 31104  1  0  0  0  0
 32105  1  0  0  0  0
 32106  1  0  0  0  0
 32107  1  0  0  0  0
 33108  1  0  0  0  0
 49109  1  0  0  0  0
 50110  1  0  0  0  0
 51111  1  0  0  0  0
 53112  1  0  0  0  0
 53113  1  0  0  0  0
 54114  1  0  0  0  0
 54115  1  0  0  0  0
 54116  1  0  0  0  0
 55117  1  0  0  0  0
 67118  1  0  0  0  0
 67119  1  0  0  0  0
 68120  1  0  0  0  0
 68121  1  0  0  0  0
 68122  1  0  0  0  0
 69123  1  0  0  0  0
 69124  1  0  0  0  0
 70125  1  0  0  0  0
 70126  1  0  0  0  0
 70127  1  0  0  0  0
 71128  1  0  0  0  0
 76129  1  0  0  0  0
 81130  1  0  0  0  0
M  END
