
  xtb     02022218553D
 energy: -198.437403343900 gnorm: 0.000703697184 xtb: 6.4.1 (unknown)
113127  0     0  0            999 V2000
    3.5628   -2.2732    4.4590 C   0  0  0  0  0  0  0  0  0  0  0  0
    4.3747   -1.6631    5.3709 C   0  0  0  0  0  0  0  0  0  0  0  0
    4.6803   -0.2120    5.3847 C   0  0  0  0  0  0  0  0  0  0  0  0
    4.4405    0.6065    4.5218 O   0  0  0  0  0  0  0  0  0  0  0  0
    5.2286    0.0607    6.7275 C   0  0  0  0  0  0  0  0  0  0  0  0
    5.6020    1.3017    7.2376 C   0  0  0  0  0  0  0  0  0  0  0  0
    6.0573    1.2609    8.5336 C   0  0  0  0  0  0  0  0  0  0  0  0
    6.1252    0.0742    9.2762 C   0  0  0  0  0  0  0  0  0  0  0  0
    5.7555   -1.1562    8.7880 C   0  0  0  0  0  0  0  0  0  0  0  0
    5.2991   -1.1377    7.4670 C   0  0  0  0  0  0  0  0  0  0  0  0
    4.8228   -2.2302    6.6265 C   0  0  0  0  0  0  0  0  0  0  0  0
    4.8723   -3.5668    6.9249 C   0  0  0  0  0  0  0  0  0  0  0  0
    4.4974   -4.5914    6.0301 C   0  0  0  0  0  0  0  0  0  0  0  0
    4.2348   -5.4721    5.3416 N   0  0  0  0  0  0  0  0  0  0  0  0
    5.3450   -4.0962    8.1429 C   0  0  0  0  0  0  0  0  0  0  0  0
    5.7073   -4.5879    9.1151 N   0  0  0  0  0  0  0  0  0  0  0  0
    6.6667    0.7752   10.4967 C   0  0  0  0  0  0  0  0  0  0  0  0
    8.1799    0.6371   10.7955 C   0  0  0  0  0  0  0  0  0  0  0  0
    8.8564    0.3841    9.4710 C   0  0  0  0  0  0  0  0  0  0  0  0
    8.7971    1.5057    8.7655 C   0  0  0  0  0  0  0  0  0  0  0  0
    8.0792    2.5374    9.6002 C   0  0  0  0  0  0  0  0  0  0  0  0
    8.5391    2.1168   11.0052 C   0  0  0  0  0  0  0  0  0  0  0  0
    6.5960    2.0963    9.6676 C   0  0  0  0  0  0  0  0  0  0  0  0
    3.2075   -1.7697    3.1858 C   0  0  0  0  0  0  0  0  0  0  0  0
    3.9541   -1.0888    2.2344 C   0  0  0  0  0  0  0  0  0  0  0  0
    5.4228   -0.8444    2.3263 C   0  0  0  0  0  0  0  0  0  0  0  0
    6.1733   -1.3715    1.1042 C   0  0  0  0  0  0  0  0  0  0  0  0
    3.1709   -0.7761    1.1114 C   0  0  0  0  0  0  0  0  0  0  0  0
    3.5046    0.0985   -0.3677 S   0  0  0  0  0  0  0  0  0  0  0  0
    1.8640   -0.1283   -0.8549 C   0  0  0  0  0  0  0  0  0  0  0  0
    1.0348    0.1372   -1.9563 C   0  0  0  0  0  0  0  0  0  0  0  0
    1.3637    0.7005   -3.2160 C   0  0  0  0  0  0  0  0  0  0  0  0
    0.3635    0.7121   -4.2199 C   0  0  0  0  0  0  0  0  0  0  0  0
    0.6269    1.1584   -5.4533 N   0  0  0  0  0  0  0  0  0  0  0  0
    1.8467    1.5969   -5.6761 C   0  0  0  0  0  0  0  0  0  0  0  0
    2.8281    1.6075   -4.6776 C   0  0  0  0  0  0  0  0  0  0  0  0
    2.5954    1.1613   -3.4626 N   0  0  0  0  0  0  0  0  0  0  0  0
   -0.9393    0.2745   -3.8676 C   0  0  0  0  0  0  0  0  0  0  0  0
   -2.1185    0.2858   -4.6303 C   0  0  0  0  0  0  0  0  0  0  0  0
   -2.6384    0.6701   -6.2293 S   0  0  0  0  0  0  0  0  0  0  0  0
   -4.2866    0.2866   -5.7730 C   0  0  0  0  0  0  0  0  0  0  0  0
   -5.5081    0.3361   -6.4592 C   0  0  0  0  0  0  0  0  0  0  0  0
   -5.6523    0.6002   -7.9187 C   0  0  0  0  0  0  0  0  0  0  0  0
   -4.5731   -0.0711   -8.7636 C   0  0  0  0  0  0  0  0  0  0  0  0
   -6.5655   -0.0167   -5.6204 C   0  0  0  0  0  0  0  0  0  0  0  0
   -6.0169   -0.4884   -4.0089 S   0  0  0  0  0  0  0  0  0  0  0  0
   -4.3914   -0.1210   -4.4329 C   0  0  0  0  0  0  0  0  0  0  0  0
   -3.1533   -0.1296   -3.7881 C   0  0  0  0  0  0  0  0  0  0  0  0
   -2.6602   -0.4335   -2.5430 N   0  0  0  0  0  0  0  0  0  0  0  0
   -1.2947   -0.1981   -2.5729 C   0  0  0  0  0  0  0  0  0  0  0  0
   -0.2517   -0.3830   -1.6338 C   0  0  0  0  0  0  0  0  0  0  0  0
   -0.1800   -0.9922   -0.3974 N   0  0  0  0  0  0  0  0  0  0  0  0
    1.0955   -0.8345    0.0749 C   0  0  0  0  0  0  0  0  0  0  0  0
    1.8429   -1.2171    1.1926 C   0  0  0  0  0  0  0  0  0  0  0  0
    1.5576   -2.0885    2.6501 S   0  0  0  0  0  0  0  0  0  0  0  0
   -1.0835   -1.9011    0.2680 C   0  0  0  0  0  0  0  0  0  0  0  0
   -1.7595   -1.2512    1.4749 C   0  0  0  0  0  0  0  0  0  0  0  0
   -3.5818   -0.4029   -1.4276 C   0  0  0  0  0  0  0  0  0  0  0  0
   -3.7851    1.0265   -0.9286 C   0  0  0  0  0  0  0  0  0  0  0  0
   -7.9463   -0.1445   -5.8552 C   0  0  0  0  0  0  0  0  0  0  0  0
   -8.7249    0.5921   -6.7108 C   0  0  0  0  0  0  0  0  0  0  0  0
   -8.3876    1.9446   -7.2039 C   0  0  0  0  0  0  0  0  0  0  0  0
   -7.3700    2.5712   -6.9973 O   0  0  0  0  0  0  0  0  0  0  0  0
   -9.6077    2.4279   -7.8864 C   0  0  0  0  0  0  0  0  0  0  0  0
   -9.8404    3.6287   -8.5356 C   0  0  0  0  0  0  0  0  0  0  0  0
   -8.6079    4.8164   -8.6686 Cl  0  0  0  0  0  0  0  0  0  0  0  0
  -11.0962    3.8589   -9.0942 C   0  0  0  0  0  0  0  0  0  0  0  0
  -12.0905    2.9032   -8.9869 C   0  0  0  0  0  0  0  0  0  0  0  0
  -11.8717    1.6944   -8.3362 C   0  0  0  0  0  0  0  0  0  0  0  0
  -10.6228    1.4573   -7.7888 C   0  0  0  0  0  0  0  0  0  0  0  0
  -10.0925    0.2982   -7.0720 C   0  0  0  0  0  0  0  0  0  0  0  0
  -10.7528   -0.8856   -6.8635 C   0  0  0  0  0  0  0  0  0  0  0  0
  -12.0862   -1.1326   -7.2494 C   0  0  0  0  0  0  0  0  0  0  0  0
  -13.1691   -1.3933   -7.5279 N   0  0  0  0  0  0  0  0  0  0  0  0
  -10.1849   -2.0283   -6.2615 C   0  0  0  0  0  0  0  0  0  0  0  0
   -9.7874   -3.0042   -5.8045 N   0  0  0  0  0  0  0  0  0  0  0  0
    3.0689   -3.1952    4.7454 H   0  0  0  0  0  0  0  0  0  0  0  0
    5.5255    2.1936    6.6354 H   0  0  0  0  0  0  0  0  0  0  0  0
    5.8010   -2.0601    9.3726 H   0  0  0  0  0  0  0  0  0  0  0  0
    6.0578    0.7044   11.3958 H   0  0  0  0  0  0  0  0  0  0  0  0
    8.4201   -0.0559   11.5972 H   0  0  0  0  0  0  0  0  0  0  0  0
    9.2455   -0.5711    9.1706 H   0  0  0  0  0  0  0  0  0  0  0  0
    9.1266    1.6750    7.7571 H   0  0  0  0  0  0  0  0  0  0  0  0
    8.2287    3.5752    9.3141 H   0  0  0  0  0  0  0  0  0  0  0  0
    7.9744    2.5911   11.8068 H   0  0  0  0  0  0  0  0  0  0  0  0
    9.6050    2.2730   11.1638 H   0  0  0  0  0  0  0  0  0  0  0  0
    5.9435    2.8898   10.0269 H   0  0  0  0  0  0  0  0  0  0  0  0
    5.5894    0.2309    2.4298 H   0  0  0  0  0  0  0  0  0  0  0  0
    5.8112   -1.3283    3.2237 H   0  0  0  0  0  0  0  0  0  0  0  0
    7.2424   -1.2372    1.2479 H   0  0  0  0  0  0  0  0  0  0  0  0
    5.8801   -0.8417    0.2024 H   0  0  0  0  0  0  0  0  0  0  0  0
    5.9748   -2.4323    0.9660 H   0  0  0  0  0  0  0  0  0  0  0  0
    2.0522    1.9536   -6.6759 H   0  0  0  0  0  0  0  0  0  0  0  0
    3.8246    1.9818   -4.8675 H   0  0  0  0  0  0  0  0  0  0  0  0
   -5.6255    1.6832   -8.0767 H   0  0  0  0  0  0  0  0  0  0  0  0
   -6.6363    0.2522   -8.2421 H   0  0  0  0  0  0  0  0  0  0  0  0
   -4.8157    0.0438   -9.8171 H   0  0  0  0  0  0  0  0  0  0  0  0
   -3.5986    0.3751   -8.5890 H   0  0  0  0  0  0  0  0  0  0  0  0
   -4.5161   -1.1336   -8.5370 H   0  0  0  0  0  0  0  0  0  0  0  0
   -1.8028   -2.2821   -0.4582 H   0  0  0  0  0  0  0  0  0  0  0  0
   -0.4911   -2.7535    0.6187 H   0  0  0  0  0  0  0  0  0  0  0  0
   -2.4934   -1.9310    1.8988 H   0  0  0  0  0  0  0  0  0  0  0  0
   -1.0175   -1.0303    2.2375 H   0  0  0  0  0  0  0  0  0  0  0  0
   -2.2521   -0.3212    1.2034 H   0  0  0  0  0  0  0  0  0  0  0  0
   -3.2380   -1.0350   -0.6165 H   0  0  0  0  0  0  0  0  0  0  0  0
   -4.5310   -0.8054   -1.7913 H   0  0  0  0  0  0  0  0  0  0  0  0
   -4.1835    1.6523   -1.7237 H   0  0  0  0  0  0  0  0  0  0  0  0
   -2.8401    1.4529   -0.5971 H   0  0  0  0  0  0  0  0  0  0  0  0
   -4.4864    1.0332   -0.0988 H   0  0  0  0  0  0  0  0  0  0  0  0
   -8.4424   -0.8847   -5.2373 H   0  0  0  0  0  0  0  0  0  0  0  0
  -11.2831    4.7883   -9.6081 H   0  0  0  0  0  0  0  0  0  0  0  0
  -13.0597    3.0999   -9.4191 H   0  0  0  0  0  0  0  0  0  0  0  0
  -12.6660    0.9703   -8.2643 H   0  0  0  0  0  0  0  0  0  0  0  0
  1  2  2  0  0  0  0
  2  3  1  0  0  0  0
  3  4  2  0  0  0  0
  3  5  1  0  0  0  0
  5  6  2  0  0  0  0
  6  7  1  0  0  0  0
  7  8  2  0  0  0  0
  8  9  1  0  0  0  0
  9 10  2  0  0  0  0
 10 11  1  0  0  0  0
 11 12  2  0  0  0  0
 12 13  1  0  0  0  0
 13 14  3  0  0  0  0
 12 15  1  0  0  0  0
 15 16  3  0  0  0  0
  8 17  1  0  0  0  0
 17 18  1  0  0  0  0
 18 19  1  0  0  0  0
 19 20  2  0  0  0  0
 20 21  1  0  0  0  0
 21 22  1  0  0  0  0
 21 23  1  0  0  0  0
  1 24  1  0  0  0  0
 24 25  2  0  0  0  0
 25 26  1  0  0  0  0
 26 27  1  0  0  0  0
 25 28  1  0  0  0  0
 28 29  1  0  0  0  0
 29 30  1  0  0  0  0
 30 31  1  0  0  0  0
 31 32  2  0  0  0  0
 32 33  1  0  0  0  0
 33 34  1  0  0  0  0
 34 35  2  0  0  0  0
 35 36  1  0  0  0  0
 36 37  2  0  0  0  0
 33 38  2  0  0  0  0
 38 39  1  0  0  0  0
 39 40  1  0  0  0  0
 40 41  1  0  0  0  0
 41 42  1  0  0  0  0
 42 43  1  0  0  0  0
 43 44  1  0  0  0  0
 42 45  2  0  0  0  0
 45 46  1  0  0  0  0
 46 47  1  0  0  0  0
 47 48  1  0  0  0  0
 48 49  1  0  0  0  0
 49 50  1  0  0  0  0
 50 51  2  0  0  0  0
 51 52  1  0  0  0  0
 52 53  1  0  0  0  0
 53 54  1  0  0  0  0
 54 55  1  0  0  0  0
 52 56  1  0  0  0  0
 56 57  1  0  0  0  0
 49 58  1  0  0  0  0
 58 59  1  0  0  0  0
 45 60  1  0  0  0  0
 60 61  2  0  0  0  0
 61 62  1  0  0  0  0
 62 63  2  0  0  0  0
 62 64  1  0  0  0  0
 64 65  2  0  0  0  0
 65 66  1  0  0  0  0
 65 67  1  0  0  0  0
 67 68  2  0  0  0  0
 68 69  1  0  0  0  0
 69 70  2  0  0  0  0
 70 71  1  0  0  0  0
 71 72  2  0  0  0  0
 72 73  1  0  0  0  0
 73 74  3  0  0  0  0
 72 75  1  0  0  0  0
 75 76  3  0  0  0  0
 11  2  1  0  0  0  0
 23 17  1  0  0  0  0
 55 24  1  0  0  0  0
 71 61  1  0  0  0  0
 10  5  1  0  0  0  0
 22 18  1  0  0  0  0
 54 28  2  0  0  0  0
 70 64  1  0  0  0  0
 23  7  1  0  0  0  0
 53 30  2  0  0  0  0
 51 31  1  0  0  0  0
 37 32  1  0  0  0  0
 50 38  1  0  0  0  0
 48 39  2  0  0  0  0
 47 41  2  0  0  0  0
  1 77  1  0  0  0  0
  6 78  1  0  0  0  0
  9 79  1  0  0  0  0
 17 80  1  0  0  0  0
 18 81  1  0  0  0  0
 19 82  1  0  0  0  0
 20 83  1  0  0  0  0
 21 84  1  0  0  0  0
 22 85  1  0  0  0  0
 22 86  1  0  0  0  0
 23 87  1  0  0  0  0
 26 88  1  0  0  0  0
 26 89  1  0  0  0  0
 27 90  1  0  0  0  0
 27 91  1  0  0  0  0
 27 92  1  0  0  0  0
 35 93  1  0  0  0  0
 36 94  1  0  0  0  0
 43 95  1  0  0  0  0
 43 96  1  0  0  0  0
 44 97  1  0  0  0  0
 44 98  1  0  0  0  0
 44 99  1  0  0  0  0
 56100  1  0  0  0  0
 56101  1  0  0  0  0
 57102  1  0  0  0  0
 57103  1  0  0  0  0
 57104  1  0  0  0  0
 58105  1  0  0  0  0
 58106  1  0  0  0  0
 59107  1  0  0  0  0
 59108  1  0  0  0  0
 59109  1  0  0  0  0
 60110  1  0  0  0  0
 67111  1  0  0  0  0
 68112  1  0  0  0  0
 69113  1  0  0  0  0
M  END
