
  xtb     02022219143D
 energy: -224.114581264599 gnorm: 0.000915951821 xtb: 6.4.1 (unknown)
127143  0     0  0            999 V2000
    0.9376    5.8332   -2.0381 C   0  0  0  0  0  0  0  0  0  0  0  0
    0.5258    7.0334   -1.5270 C   0  0  0  0  0  0  0  0  0  0  0  0
   -0.4175    7.1974   -0.3974 C   0  0  0  0  0  0  0  0  0  0  0  0
   -0.9986    6.3275    0.2187 O   0  0  0  0  0  0  0  0  0  0  0  0
   -0.4030    8.6339   -0.0697 C   0  0  0  0  0  0  0  0  0  0  0  0
   -1.1351    9.2651    0.9323 C   0  0  0  0  0  0  0  0  0  0  0  0
   -0.9009   10.6154    1.0298 C   0  0  0  0  0  0  0  0  0  0  0  0
    0.0024   11.2892    0.1967 C   0  0  0  0  0  0  0  0  0  0  0  0
    0.7293   10.6785   -0.7974 C   0  0  0  0  0  0  0  0  0  0  0  0
    0.5018    9.3044   -0.9165 C   0  0  0  0  0  0  0  0  0  0  0  0
    1.0720    8.3342   -1.8471 C   0  0  0  0  0  0  0  0  0  0  0  0
    1.8981    8.6236   -2.9035 C   0  0  0  0  0  0  0  0  0  0  0  0
    2.3979    9.9079   -3.1999 C   0  0  0  0  0  0  0  0  0  0  0  0
    2.8497   10.9221   -3.4935 N   0  0  0  0  0  0  0  0  0  0  0  0
    2.3345    7.6848   -3.8610 C   0  0  0  0  0  0  0  0  0  0  0  0
    2.7062    6.9841   -4.6921 N   0  0  0  0  0  0  0  0  0  0  0  0
   -0.2436   12.6162    0.8703 C   0  0  0  0  0  0  0  0  0  0  0  0
    0.8240   13.1267    1.8696 C   0  0  0  0  0  0  0  0  0  0  0  0
    1.5208   11.9050    2.4150 C   0  0  0  0  0  0  0  0  0  0  0  0
    0.6639   11.2671    3.2011 C   0  0  0  0  0  0  0  0  0  0  0  0
   -0.6281   12.0464    3.2017 C   0  0  0  0  0  0  0  0  0  0  0  0
   -0.0817   13.4761    3.0615 C   0  0  0  0  0  0  0  0  0  0  0  0
   -1.2525   11.8659    1.7958 C   0  0  0  0  0  0  0  0  0  0  0  0
    0.2822    4.5924   -1.8855 C   0  0  0  0  0  0  0  0  0  0  0  0
   -1.0728    4.2982   -1.7563 C   0  0  0  0  0  0  0  0  0  0  0  0
   -2.1444    5.2747   -1.9233 C   0  0  0  0  0  0  0  0  0  0  0  0
   -2.0921    6.2116   -2.9535 C   0  0  0  0  0  0  0  0  0  0  0  0
   -3.0895    7.1587   -3.0717 C   0  0  0  0  0  0  0  0  0  0  0  0
   -4.1348    7.1893   -2.1631 C   0  0  0  0  0  0  0  0  0  0  0  0
   -4.2109    6.2510   -1.1428 C   0  0  0  0  0  0  0  0  0  0  0  0
   -5.2995    6.3168   -0.1118 C   0  0  0  0  0  0  0  0  0  0  0  0
   -4.8206    7.1412    1.0853 C   0  0  0  0  0  0  0  0  0  0  0  0
   -3.2176    5.2884   -1.0394 C   0  0  0  0  0  0  0  0  0  0  0  0
   -1.2787    2.9269   -1.5477 C   0  0  0  0  0  0  0  0  0  0  0  0
   -2.7221    1.9789   -1.2780 S   0  0  0  0  0  0  0  0  0  0  0  0
   -1.7379    0.5615   -1.1666 C   0  0  0  0  0  0  0  0  0  0  0  0
   -1.8762   -0.8077   -0.9018 C   0  0  0  0  0  0  0  0  0  0  0  0
   -3.0100   -1.5597   -0.5227 C   0  0  0  0  0  0  0  0  0  0  0  0
   -2.8377   -2.9373   -0.1699 C   0  0  0  0  0  0  0  0  0  0  0  0
   -3.9673   -3.5048    0.2223 N   0  0  0  0  0  0  0  0  0  0  0  0
   -5.1481   -2.3997    0.1484 S   0  0  0  0  0  0  0  0  0  0  0  0
   -4.2623   -1.1538   -0.3847 N   0  0  0  0  0  0  0  0  0  0  0  0
   -1.5616   -3.5237   -0.3194 C   0  0  0  0  0  0  0  0  0  0  0  0
   -1.1416   -4.8490   -0.1548 C   0  0  0  0  0  0  0  0  0  0  0  0
   -1.7829   -6.3702    0.3613 S   0  0  0  0  0  0  0  0  0  0  0  0
   -0.2298   -7.1033    0.0109 C   0  0  0  0  0  0  0  0  0  0  0  0
    0.2523   -8.3992    0.1542 C   0  0  0  0  0  0  0  0  0  0  0  0
   -0.5112   -9.5067    0.7227 C   0  0  0  0  0  0  0  0  0  0  0  0
   -1.8003   -9.7775    0.2702 C   0  0  0  0  0  0  0  0  0  0  0  0
   -2.5066  -10.8343    0.8097 C   0  0  0  0  0  0  0  0  0  0  0  0
   -1.9494  -11.6107    1.8115 C   0  0  0  0  0  0  0  0  0  0  0  0
   -0.6787  -11.3345    2.2995 C   0  0  0  0  0  0  0  0  0  0  0  0
   -0.0676  -12.1632    3.3930 C   0  0  0  0  0  0  0  0  0  0  0  0
    1.0349  -13.0709    2.8458 C   0  0  0  0  0  0  0  0  0  0  0  0
    0.0334  -10.2833    1.7424 C   0  0  0  0  0  0  0  0  0  0  0  0
    1.5874   -8.5072   -0.2878 C   0  0  0  0  0  0  0  0  0  0  0  0
    2.2454   -6.9533   -0.7947 S   0  0  0  0  0  0  0  0  0  0  0  0
    0.7256   -6.1971   -0.4842 C   0  0  0  0  0  0  0  0  0  0  0  0
    0.1970   -4.9059   -0.5628 C   0  0  0  0  0  0  0  0  0  0  0  0
    0.6248   -3.6605   -0.9384 N   0  0  0  0  0  0  0  0  0  0  0  0
   -0.4344   -2.7834   -0.7877 C   0  0  0  0  0  0  0  0  0  0  0  0
   -0.5733   -1.3816   -0.9755 C   0  0  0  0  0  0  0  0  0  0  0  0
    0.3304   -0.3663   -1.2465 N   0  0  0  0  0  0  0  0  0  0  0  0
   -0.3721    0.8036   -1.3494 C   0  0  0  0  0  0  0  0  0  0  0  0
   -0.1056    2.1602   -1.5633 C   0  0  0  0  0  0  0  0  0  0  0  0
    1.2827    3.1415   -1.8514 S   0  0  0  0  0  0  0  0  0  0  0  0
    1.7648   -0.3193   -1.0694 C   0  0  0  0  0  0  0  0  0  0  0  0
    2.1618   -0.6441    0.3685 C   0  0  0  0  0  0  0  0  0  0  0  0
    1.8530   -3.5298   -1.6911 C   0  0  0  0  0  0  0  0  0  0  0  0
    1.5785   -3.1911   -3.1540 C   0  0  0  0  0  0  0  0  0  0  0  0
    2.2270   -9.7399   -0.4222 C   0  0  0  0  0  0  0  0  0  0  0  0
    3.5065  -10.0486   -0.8238 C   0  0  0  0  0  0  0  0  0  0  0  0
    4.5754   -9.0815   -1.1083 C   0  0  0  0  0  0  0  0  0  0  0  0
    4.4910   -7.8660   -1.1250 O   0  0  0  0  0  0  0  0  0  0  0  0
    5.7721   -9.8921   -1.3627 C   0  0  0  0  0  0  0  0  0  0  0  0
    5.4342  -11.2809   -1.2646 C   0  0  0  0  0  0  0  0  0  0  0  0
    6.4903  -12.1062   -1.4870 C   0  0  0  0  0  0  0  0  0  0  0  0
    7.9271  -11.2066   -1.8214 S   0  0  0  0  0  0  0  0  0  0  0  0
    7.0832   -9.6826   -1.6605 C   0  0  0  0  0  0  0  0  0  0  0  0
    7.8889   -8.2057   -1.8693 Cl  0  0  0  0  0  0  0  0  0  0  0  0
    4.0188  -11.3963   -0.9612 C   0  0  0  0  0  0  0  0  0  0  0  0
    3.3408  -12.5867   -0.8760 C   0  0  0  0  0  0  0  0  0  0  0  0
    4.0103  -13.8184   -1.0236 C   0  0  0  0  0  0  0  0  0  0  0  0
    4.5394  -14.8315   -1.1326 N   0  0  0  0  0  0  0  0  0  0  0  0
    1.9570  -12.7452   -0.6727 C   0  0  0  0  0  0  0  0  0  0  0  0
    0.8366  -12.9571   -0.5279 N   0  0  0  0  0  0  0  0  0  0  0  0
    1.8802    5.7941   -2.5725 H   0  0  0  0  0  0  0  0  0  0  0  0
   -1.8177    8.7069    1.5538 H   0  0  0  0  0  0  0  0  0  0  0  0
    1.4238   11.2090   -1.4275 H   0  0  0  0  0  0  0  0  0  0  0  0
   -0.6284   13.4104    0.2336 H   0  0  0  0  0  0  0  0  0  0  0  0
    1.4664   13.9123    1.4812 H   0  0  0  0  0  0  0  0  0  0  0  0
    2.5150   11.6085    2.1364 H   0  0  0  0  0  0  0  0  0  0  0  0
    0.7989   10.3307    3.7100 H   0  0  0  0  0  0  0  0  0  0  0  0
   -1.3076   11.8485    4.0265 H   0  0  0  0  0  0  0  0  0  0  0  0
    0.4800   13.8000    3.9364 H   0  0  0  0  0  0  0  0  0  0  0  0
   -0.8482   14.2122    2.8231 H   0  0  0  0  0  0  0  0  0  0  0  0
   -2.2970   12.1699    1.7634 H   0  0  0  0  0  0  0  0  0  0  0  0
   -1.2779    6.1854   -3.6637 H   0  0  0  0  0  0  0  0  0  0  0  0
   -3.0500    7.8814   -3.8738 H   0  0  0  0  0  0  0  0  0  0  0  0
   -4.9003    7.9470   -2.2511 H   0  0  0  0  0  0  0  0  0  0  0  0
   -6.1940    6.7758   -0.5372 H   0  0  0  0  0  0  0  0  0  0  0  0
   -5.5542    5.3095    0.2225 H   0  0  0  0  0  0  0  0  0  0  0  0
   -3.9120    6.7061    1.4951 H   0  0  0  0  0  0  0  0  0  0  0  0
   -4.6029    8.1618    0.7762 H   0  0  0  0  0  0  0  0  0  0  0  0
   -5.5812    7.1664    1.8623 H   0  0  0  0  0  0  0  0  0  0  0  0
   -3.2519    4.5682   -0.2365 H   0  0  0  0  0  0  0  0  0  0  0  0
   -2.2286   -9.1751   -0.5164 H   0  0  0  0  0  0  0  0  0  0  0  0
   -3.4989  -11.0554    0.4465 H   0  0  0  0  0  0  0  0  0  0  0  0
   -2.5106  -12.4353    2.2255 H   0  0  0  0  0  0  0  0  0  0  0  0
   -0.8391  -12.7768    3.8609 H   0  0  0  0  0  0  0  0  0  0  0  0
    0.3545  -11.5062    4.1580 H   0  0  0  0  0  0  0  0  0  0  0  0
    1.8584  -12.4789    2.4518 H   0  0  0  0  0  0  0  0  0  0  0  0
    1.4200  -13.7166    3.6315 H   0  0  0  0  0  0  0  0  0  0  0  0
    0.6480  -13.6898    2.0400 H   0  0  0  0  0  0  0  0  0  0  0  0
    1.0148  -10.0403    2.1266 H   0  0  0  0  0  0  0  0  0  0  0  0
    2.0727    0.7023   -1.3051 H   0  0  0  0  0  0  0  0  0  0  0  0
    2.2624   -0.9754   -1.7834 H   0  0  0  0  0  0  0  0  0  0  0  0
    1.7295    0.0880    1.0467 H   0  0  0  0  0  0  0  0  0  0  0  0
    3.2431   -0.6129    0.4701 H   0  0  0  0  0  0  0  0  0  0  0  0
    1.8081   -1.6293    0.6631 H   0  0  0  0  0  0  0  0  0  0  0  0
    2.3560   -4.4980   -1.6345 H   0  0  0  0  0  0  0  0  0  0  0  0
    2.5143   -2.7996   -1.2246 H   0  0  0  0  0  0  0  0  0  0  0  0
    1.0124   -2.2672   -3.2482 H   0  0  0  0  0  0  0  0  0  0  0  0
    1.0034   -3.9893   -3.6174 H   0  0  0  0  0  0  0  0  0  0  0  0
    2.5171   -3.0861   -3.6911 H   0  0  0  0  0  0  0  0  0  0  0  0
    1.5891  -10.5801   -0.1728 H   0  0  0  0  0  0  0  0  0  0  0  0
    6.5328  -13.1770   -1.4772 H   0  0  0  0  0  0  0  0  0  0  0  0
  1  2  2  0  0  0  0
  2  3  1  0  0  0  0
  3  4  2  0  0  0  0
  3  5  1  0  0  0  0
  5  6  2  0  0  0  0
  6  7  1  0  0  0  0
  7  8  2  0  0  0  0
  8  9  1  0  0  0  0
  9 10  2  0  0  0  0
 10 11  1  0  0  0  0
 11 12  2  0  0  0  0
 12 13  1  0  0  0  0
 13 14  3  0  0  0  0
 12 15  1  0  0  0  0
 15 16  3  0  0  0  0
  8 17  1  0  0  0  0
 17 18  1  0  0  0  0
 18 19  1  0  0  0  0
 19 20  2  0  0  0  0
 20 21  1  0  0  0  0
 21 22  1  0  0  0  0
 21 23  1  0  0  0  0
  1 24  1  0  0  0  0
 24 25  2  0  0  0  0
 25 26  1  0  0  0  0
 26 27  2  0  0  0  0
 27 28  1  0  0  0  0
 28 29  2  0  0  0  0
 29 30  1  0  0  0  0
 30 31  1  0  0  0  0
 31 32  1  0  0  0  0
 30 33  2  0  0  0  0
 25 34  1  0  0  0  0
 34 35  1  0  0  0  0
 35 36  1  0  0  0  0
 36 37  1  0  0  0  0
 37 38  1  0  0  0  0
 38 39  1  0  0  0  0
 39 40  2  0  0  0  0
 40 41  1  0  0  0  0
 41 42  1  0  0  0  0
 39 43  1  0  0  0  0
 43 44  1  0  0  0  0
 44 45  1  0  0  0  0
 45 46  1  0  0  0  0
 46 47  1  0  0  0  0
 47 48  1  0  0  0  0
 48 49  2  0  0  0  0
 49 50  1  0  0  0  0
 50 51  2  0  0  0  0
 51 52  1  0  0  0  0
 52 53  1  0  0  0  0
 53 54  1  0  0  0  0
 52 55  2  0  0  0  0
 47 56  2  0  0  0  0
 56 57  1  0  0  0  0
 57 58  1  0  0  0  0
 58 59  1  0  0  0  0
 59 60  1  0  0  0  0
 60 61  1  0  0  0  0
 61 62  1  0  0  0  0
 62 63  1  0  0  0  0
 63 64  1  0  0  0  0
 64 65  1  0  0  0  0
 65 66  1  0  0  0  0
 63 67  1  0  0  0  0
 67 68  1  0  0  0  0
 60 69  1  0  0  0  0
 69 70  1  0  0  0  0
 56 71  1  0  0  0  0
 71 72  2  0  0  0  0
 72 73  1  0  0  0  0
 73 74  2  0  0  0  0
 73 75  1  0  0  0  0
 75 76  1  0  0  0  0
 76 77  2  0  0  0  0
 77 78  1  0  0  0  0
 78 79  1  0  0  0  0
 79 80  1  0  0  0  0
 76 81  1  0  0  0  0
 81 82  2  0  0  0  0
 82 83  1  0  0  0  0
 83 84  3  0  0  0  0
 82 85  1  0  0  0  0
 85 86  3  0  0  0  0
 11  2  1  0  0  0  0
 23 17  1  0  0  0  0
 66 24  1  0  0  0  0
 81 72  1  0  0  0  0
 10  5  1  0  0  0  0
 22 18  1  0  0  0  0
 33 26  1  0  0  0  0
 65 34  2  0  0  0  0
 79 75  2  0  0  0  0
 23  7  1  0  0  0  0
 64 36  2  0  0  0  0
 62 37  2  0  0  0  0
 42 38  2  0  0  0  0
 61 43  2  0  0  0  0
 59 44  2  0  0  0  0
 58 46  2  0  0  0  0
 55 48  1  0  0  0  0
  1 87  1  0  0  0  0
  6 88  1  0  0  0  0
  9 89  1  0  0  0  0
 17 90  1  0  0  0  0
 18 91  1  0  0  0  0
 19 92  1  0  0  0  0
 20 93  1  0  0  0  0
 21 94  1  0  0  0  0
 22 95  1  0  0  0  0
 22 96  1  0  0  0  0
 23 97  1  0  0  0  0
 27 98  1  0  0  0  0
 28 99  1  0  0  0  0
 29100  1  0  0  0  0
 31101  1  0  0  0  0
 31102  1  0  0  0  0
 32103  1  0  0  0  0
 32104  1  0  0  0  0
 32105  1  0  0  0  0
 33106  1  0  0  0  0
 49107  1  0  0  0  0
 50108  1  0  0  0  0
 51109  1  0  0  0  0
 53110  1  0  0  0  0
 53111  1  0  0  0  0
 54112  1  0  0  0  0
 54113  1  0  0  0  0
 54114  1  0  0  0  0
 55115  1  0  0  0  0
 67116  1  0  0  0  0
 67117  1  0  0  0  0
 68118  1  0  0  0  0
 68119  1  0  0  0  0
 68120  1  0  0  0  0
 69121  1  0  0  0  0
 69122  1  0  0  0  0
 70123  1  0  0  0  0
 70124  1  0  0  0  0
 70125  1  0  0  0  0
 71126  1  0  0  0  0
 77127  1  0  0  0  0
M  END
