132

C         -5.19150       -2.70650        4.22200
C         -6.16610       -3.18280        3.38130
C         -6.17940       -3.06770        1.92120
O         -5.40580       -2.43940        1.21580
C         -7.32240       -3.86530        1.45080
C         -7.69670       -4.09190        0.12890
C         -8.80310       -4.89470       -0.00790
C         -9.48600       -5.43290        1.09070
C         -9.12580       -5.21640        2.40010
C         -8.00330       -4.40000        2.56310
C         -7.32130       -3.96200        3.78140
C         -7.72870       -4.24050        5.06120
C         -8.87670       -4.99370        5.38510
N         -9.79420       -5.59410        5.72660
C         -7.09090       -3.81730        6.24650
N         -6.64530       -3.52190        7.26390
C        -10.49520       -6.13720        0.21860
C        -11.90340       -5.50600        0.08940
C        -11.73440       -4.02690        0.33260
C        -11.08800       -3.51670       -0.70710
C        -10.80770       -4.64210       -1.67220
C        -12.05210       -5.51390       -1.44050
C         -9.73390       -5.53700       -1.00530
C         -4.02690       -1.98210        3.93990
C         -3.06450       -1.67370        4.92020
C         -3.07400       -2.18200        6.28890
C         -3.29870       -3.53100        6.55960
C         -3.29240       -3.98140        7.86530
C         -3.05440       -3.10200        8.90640
C         -2.80820       -1.75780        8.65490
C         -2.48090       -0.80980        9.77170
C         -0.96400       -0.69980        9.94110
C         -2.81620       -1.31060        7.34350
C         -2.06360       -0.84690        4.41170
S         -0.58690       -0.19840        5.10240
C         -0.19390        0.47580        3.55660
C          0.86160        1.14980        2.92400
C          2.16390        1.47160        3.36910
C          3.12760        1.94200        2.41440
N          4.32470        2.11890        2.95000
S          4.24620        1.73640        4.52120
N          2.68190        1.32490        4.57800
C          2.70590        2.21130        1.09290
C          3.37760        2.76770       -0.00550
S          4.97510        3.25740       -0.44750
C          4.36800        3.74160       -2.01440
C          4.99860        4.28120       -3.14470
C          6.41870        4.61360       -3.18670
C          6.86580        5.80730       -3.75050
C          8.21780        6.08270       -3.79600
C          9.13390        5.18450       -3.27200
C          8.70450        4.00420       -2.67960
C          9.68400        3.01620       -2.11350
C         10.04260        1.94780       -3.14840
C          7.34540        3.72810       -2.64590
C          4.08600        4.50910       -4.17400
S          2.43340        4.11930       -3.68050
C          2.98400        3.55590       -2.14960
C          2.42430        2.96850       -1.01210
N          1.19740        2.52790       -0.58680
C          1.35330        2.02370        0.69110
C          0.46670        1.35110        1.56950
N         -0.78120        0.78350        1.38320
C         -1.16640        0.23760        2.57880
C         -2.23330       -0.52970        3.05560
S         -3.63790       -1.26630        2.37920
C         -1.38130        0.28110        0.16560
C         -0.53980       -0.84440       -0.43130
C         -0.00810        2.97560       -1.24950
C         -0.29190        2.20780       -2.53900
C          4.22120        5.00140       -5.48700
C          5.29890        4.93420       -6.34110
C          6.39130        3.97370       -6.10000
O          6.29820        3.04400       -5.31990
N          7.53640        4.13300       -6.85030
C          8.65970        3.25740       -6.53850
C          8.56540        1.94170       -7.30010
C          7.68900        5.00700       -7.91470
O          8.75060        5.11560       -8.49170
C          6.48110        5.75410       -8.28020
C          5.33520        5.72240       -7.53730
C          4.15720        6.55680       -7.93720
C          6.58420        6.54350       -9.44440
N          6.65490        7.18230      -10.39480
H         -5.30890       -2.92730        5.27560
H         -7.13800       -3.66040       -0.68700
H         -9.66020       -5.64430        3.23150
H        -10.53340       -7.22050        0.31400
H        -12.67540       -6.00290        0.67070
H        -12.04180       -3.52970        1.23390
H        -10.74700       -2.50770       -0.84810
H        -10.58240       -4.35270       -2.69540
H        -11.97330       -6.50770       -1.87920
H        -12.97040       -5.03500       -1.77700
H         -9.27490       -6.22890       -1.70920
H         -3.44660       -4.22650        5.74600
H         -3.47300       -5.02560        8.07130
H         -3.05630       -3.46240        9.92460
H         -2.92540       -1.16510       10.70290
H         -2.89050        0.17790        9.55120
H         -0.50550       -0.34030        9.02250
H         -0.53870       -1.67280       10.17680
H         -0.72030       -0.01010       10.74570
H         -2.64310       -0.26470        7.13470
H          6.15220        6.51970       -4.13870
H          8.56220        7.00570       -4.23890
H         10.18990        5.40780       -3.31700
H          9.24540        2.53320       -1.23800
H         10.59220        3.53430       -1.79980
H         10.54390        2.39800       -4.00250
H         10.70650        1.20590       -2.71070
H          9.14420        1.44560       -3.50010
H          7.00380        2.79580       -2.22320
H         -1.52630        1.07820       -0.55840
H         -2.36660       -0.10450        0.43720
H          0.45720       -0.48970       -0.68550
H         -1.01920       -1.23080       -1.32640
H         -0.44210       -1.65700        0.28480
H          0.12520        4.03510       -1.49900
H         -0.83620        2.90960       -0.54250
H         -1.24810        2.52340       -2.94730
H         -0.31560        1.13560       -2.37100
H          0.47840        2.41700       -3.27560
H          3.32330        5.47950       -5.86170
H          9.56920        3.79430       -6.81370
H          8.63670        3.07770       -5.46290
H          9.41340        1.31110       -7.04760
H          8.57250        2.12570       -8.37200
H          7.64890        1.42160       -7.03190
H          3.95750        7.32250       -7.18830
H          3.26720        5.93680       -8.04040
H          4.34840        7.04890       -8.88730
