134

C          3.22010       -6.00990       -0.54560
C          4.50790       -5.58500       -0.41810
C          4.94810       -4.19760       -0.70920
O          4.40280       -3.36900       -1.40450
C          6.14020       -3.99370        0.13830
C          6.80500       -2.79110        0.36300
C          7.84210       -2.88400        1.26010
C          8.19980       -4.08520        1.88770
C          7.55590       -5.28100        1.67240
C          6.49320       -5.20500        0.76870
C          5.55530       -6.23400        0.33900
C          5.66960       -7.58760        0.51080
C          6.71480       -8.21330        1.21760
N          7.54140       -8.76650        1.79100
C          4.77280       -8.50000       -0.08340
N          4.08750       -9.27260       -0.58500
C          9.31140       -3.43540        2.67310
C         10.76570       -3.65340        2.18820
C         10.68800       -3.91220        0.70400
C         10.34930       -2.77490        0.11160
C         10.19090       -1.72640        1.18480
C         11.25890       -2.19750        2.18470
C          8.91190       -2.09730        1.97460
C          2.24490       -5.32440       -1.31920
C          2.36900       -4.79270       -2.59500
C          3.50230       -5.07960       -3.46790
C          4.01950       -4.09100       -4.30040
C          5.12380       -4.36380       -5.08510
C          5.71470       -5.61450       -5.05390
C          5.19970       -6.61950       -4.24220
C          5.80180       -7.99530       -4.24690
C          5.22440       -8.82670       -5.39390
C          4.09070       -6.34260       -3.46040
C          1.24670       -4.01390       -2.92960
S          0.83000       -3.04780       -4.32560
C         -0.57210       -2.47150       -3.48950
C         -1.58580       -1.50750       -3.64200
C         -1.99800       -0.69430       -4.72320
C         -3.08060        0.23580       -4.53020
N         -3.38400        0.89070       -5.63810
S         -2.39900        0.38970       -6.82170
N         -1.54060       -0.68220       -5.96410
C         -3.59390        0.43170       -3.22570
C         -4.34890        1.47090       -2.65990
S         -5.15710        2.92420       -3.14880
C         -5.34000        3.35780       -1.45850
C         -5.78300        4.51380       -0.82200
C         -6.31280        5.68400       -1.51830
C         -7.32410        5.53050       -2.46350
C         -7.83840        6.64080       -3.10320
C         -7.34260        7.90270       -2.82260
C         -6.31030        8.07170       -1.90950
C         -5.76070        9.43470       -1.59850
C         -6.20070        9.90070       -0.20990
C         -5.80440        6.95430       -1.26220
C         -5.60480        4.43790        0.57280
S         -4.86440        2.91940        1.06550
C         -4.83160        2.39140       -0.57460
C         -4.29090        1.30640       -1.26880
N         -3.58520        0.17530       -0.95990
C         -3.14890       -0.37790       -2.14250
C         -2.27350       -1.45820       -2.40060
N         -1.77500       -2.43760       -1.56130
C         -0.72620       -3.03100       -2.21530
C          0.29060       -3.93880       -1.91060
S          0.70910       -4.92650       -0.56050
C         -2.49570       -3.14340       -0.52340
C         -2.99320       -4.49980       -1.02170
C         -3.14550       -0.06630        0.39630
C         -4.27760       -0.58020        1.28350
C         -6.02500        5.44590        1.44730
C         -5.76610        5.62140        2.78450
C         -4.88930        4.78840        3.60970
O         -4.41660        3.69840        3.33510
C         -4.68050        5.53880        4.86380
C         -3.87310        5.22130        5.92790
C         -3.81240        6.10960        7.01150
O         -2.98880        5.74520        8.01880
C         -2.85540        6.58920        9.13940
C         -4.57470        7.27850        6.98570
C         -5.39380        7.58530        5.90840
C         -5.45230        6.71670        4.83120
C         -6.18770        6.76300        3.57360
C         -7.12980        7.70030        3.23140
C         -7.47290        8.79800        4.04630
N         -7.78530        9.71650        4.66100
C         -7.90870        7.68870        2.05630
N         -8.59730        7.74540        1.13790
H          2.87160       -6.83720        0.06400
H          6.49530       -1.88520       -0.13420
H          7.82470       -6.19820        2.17110
H          9.22280       -3.49090        3.75640
H         11.33250       -4.37340        2.77220
H         10.82580       -4.87940        0.25740
H         10.14700       -2.60170       -0.92910
H         10.23430       -0.69130        0.85620
H         11.18630       -1.71250        3.15720
H         12.27170       -2.09660        1.79790
H          8.56020       -1.28070        2.60250
H          3.57950       -3.10670       -4.30120
H          5.53080       -3.59170       -5.72140
H          6.58290       -5.81680       -5.66490
H          5.58970       -8.49610       -3.29990
H          6.88550       -7.92400       -4.36330
H          4.14710       -8.92360       -5.28220
H          5.66360       -9.82130       -5.39940
H          5.42900       -8.34930       -6.34980
H          3.67150       -7.12460       -2.84190
H         -7.71450        4.54590       -2.67210
H         -8.63360        6.52300       -3.82400
H         -7.75520        8.76520       -3.32530
H         -6.11060       10.14920       -2.34540
H         -4.66860        9.40800       -1.63920
H         -5.85810       10.91580       -0.02300
H         -7.28470        9.87580       -0.12850
H         -5.78870        9.25170        0.56030
H         -4.98050        7.06630       -0.57040
H         -3.35440       -2.54640       -0.22910
H         -1.83290       -3.28670        0.33640
H         -3.62220       -4.37090       -1.90010
H         -3.57610       -4.98150       -0.24160
H         -2.16170       -5.14940       -1.28010
H         -2.30070       -0.75440        0.37900
H         -2.79500        0.88730        0.80650
H         -5.04100        0.18480        1.39280
H         -3.88850       -0.81690        2.26930
H         -4.74530       -1.47000        0.86760
H         -6.60500        6.22030        0.95910
H         -3.28870        4.31550        5.94090
H         -2.46230        7.57050        8.85710
H         -3.80740        6.71300        9.66420
H         -2.14400        6.09190        9.79660
H         -4.53740        7.97090        7.81150
H         -5.96390        8.49980        5.92640
