119

C         -1.28240       -5.23460        5.61090
C         -0.96830       -6.41220        4.97890
C         -0.60450       -6.57020        3.56890
O         -0.52300       -5.69900        2.71790
C         -0.35750       -8.00600        3.36060
C          0.01390       -8.62760        2.17050
C          0.17950       -9.98730        2.27940
C         -0.01300      -10.67800        3.48290
C         -0.38500      -10.07670        4.66220
C         -0.55700       -8.69180        4.57530
C         -0.94170       -7.72150        5.60060
C         -1.21470       -8.02480        6.91090
C         -1.16470       -9.32370        7.45880
N         -1.14070      -10.34620        7.98100
C         -1.58150       -7.10460        7.91450
N         -1.88850       -6.42770        8.79150
C          0.33530      -12.01030        2.86670
C          1.74340      -12.56380        3.17140
C          1.97220      -13.58890        2.08400
C          2.15440      -12.93440        0.94420
C          2.05130      -11.45600        1.24200
C          2.64100      -11.43040        2.65810
C          0.54930      -11.23960        1.52450
C         -1.30540       -3.91770        5.13810
C         -1.61750       -2.81700        5.95490
C         -1.95170       -2.87400        7.40970
C         -0.67860       -2.89580        8.26010
C         -1.51790       -1.62160        5.25440
S         -1.75420        0.05250        5.72590
C         -1.34740        0.53040        4.11570
C         -1.22910        1.70250        3.35270
C         -1.51840        3.04470        3.71210
C         -1.39550        4.04360        2.71460
N         -1.70500        5.31940        2.97170
C         -2.11820        5.59430        4.19000
C         -2.22290        4.61070        5.18050
N         -1.92840        3.34990        4.94840
C         -0.88030        3.66000        1.44930
C         -0.51440        4.46160        0.35750
S         -0.52700        6.12380       -0.10870
C          0.30750        5.70000       -1.58860
C          0.72310        6.44680       -2.69900
C          0.65400        7.93720       -2.77960
C          1.22380        8.61360       -1.53310
C          1.31170        5.62960       -3.66150
S          1.40520        3.94830       -3.14320
C          0.57150        4.32560       -1.68800
C          0.08970        3.62120       -0.58260
N          0.08790        2.33180       -0.12450
C         -0.52220        2.32210        1.11250
C         -0.81440        1.30180        2.04960
N         -0.72260       -0.07930        2.01670
C         -1.04790       -0.54030        3.26780
C         -1.14790       -1.77830        3.90790
S         -0.91650       -3.43230        3.48650
C         -0.87410       -0.99670        0.90670
C         -2.32710       -1.04450        0.43810
C          0.84870        1.32550       -0.82640
C          0.07500        0.75650       -2.01510
C          1.87480        5.91890       -4.92160
C          1.58480        6.90690       -5.81870
C          2.58400        7.24270       -6.86780
O          3.58280        6.61620       -7.14330
C          2.12250        8.51780       -7.45060
C          2.73860        9.31620       -8.36970
C          2.11880       10.52560       -8.75770
C          2.71340       11.38800       -9.70110
C          2.10980       12.56020      -10.06280
C          0.88110       12.89770       -9.47990
F          0.30280       14.05610       -9.84670
C          0.26080       12.09750       -8.56110
C          0.86740       10.88570       -8.17840
C          0.24660       10.03260       -7.23570
C          0.86270        8.86350       -6.88230
C          0.45810        7.79530       -5.97060
C         -0.82610        7.56470       -5.54270
C         -1.90360        8.43760       -5.78970
N         -2.81150        9.12320       -5.94520
C         -1.22900        6.38450       -4.88980
N         -1.61230        5.42360       -4.39100
H         -1.54560       -5.31540        6.65650
H          0.14780       -8.05620        1.26540
H         -0.53370      -10.62580        5.57660
H         -0.44070      -12.77200        2.91260
H          1.89030      -12.89530        4.19560
H          1.92440      -14.65040        2.24070
H          2.28880      -13.33980       -0.04140
H          2.47920      -10.77790        0.50840
H          3.69500      -11.70290        2.66980
H          2.50380      -10.48480        3.17930
H         -0.08400      -11.48770        0.67460
H         -2.53120       -1.98320        7.66040
H         -2.55640       -3.75200        7.64080
H         -0.08080       -2.00780        8.06830
H         -0.94080       -2.92100        9.31380
H         -0.07960       -3.77480        8.03420
H         -2.37050        6.62680        4.38840
H         -2.55390        4.84850        6.18200
H         -0.39070        8.24090       -2.90670
H          1.21470        8.27870       -3.65130
H          2.24680        8.28670       -1.36040
H          1.22440        9.69170       -1.67340
H          0.63060        8.38270       -0.65340
H         -0.22630       -0.72750        0.08030
H         -0.57230       -1.98270        1.26890
H         -2.97430       -1.36920        1.24930
H         -2.65610       -0.06080        0.10810
H         -2.42710       -1.74590       -0.38530
H          1.15760        0.55400       -0.11990
H          1.75840        1.80790       -1.20120
H         -0.09310        1.53690       -2.75260
H         -0.89240        0.36640       -1.71060
H          0.64720       -0.03990       -2.48260
H          2.69400        5.27100       -5.22380
H          3.68900        9.03060       -8.79510
H          3.66060       11.10640      -10.13600
H          2.55180       13.23110      -10.78230
H         -0.68700       12.38760       -8.13530
H         -0.69740       10.33210       -6.80840
