113

C          3.68620       -1.28200        4.76900
C          4.47990       -0.83590        5.78870
C          4.69870        0.58570        6.13960
O          4.19380        1.56250        5.62380
C          5.75850        0.58650        7.16520
C          6.28220        1.69820        7.82030
C          7.26160        1.39850        8.73630
C          7.69720        0.08820        8.97640
C          7.19310       -1.01680        8.33340
C          6.19010       -0.73430        7.40120
C          5.41510       -1.63670        6.55480
C          5.50750       -3.00480        6.54610
C          4.68370       -3.86960        5.79530
N          4.04120       -4.64090        5.23690
C          6.43510       -3.74900        7.30420
N          7.16720       -4.41860        7.88230
C          8.70410        0.52720       10.00940
C         10.19350        0.58270        9.58870
C         10.21080        0.81330        8.09800
C          9.79680        2.05350        7.87490
C          9.49150        2.68400        9.21120
C         10.55040        1.99300       10.08510
C          8.21600        1.98660        9.74520
C          2.63770       -0.58540        4.13050
C          1.70680        0.32840        4.61400
C          1.58330        0.72220        6.04660
C          0.14260        0.71800        6.55060
C          0.82680        0.73370        3.59760
S         -0.48360        1.89450        3.54740
C         -0.71410        1.53970        1.87520
C         -1.53530        1.93680        0.81000
C         -2.52090        2.95690        0.77870
C         -3.15940        3.22280       -0.45570
N         -4.05940        4.20540       -0.57290
C         -4.32320        4.89690        0.51470
C         -3.70620        4.62090        1.74070
N         -2.81290        3.66480        1.87570
C         -2.84580        2.38650       -1.55840
C         -3.42550        2.36100       -2.83300
S         -4.62510        3.21670       -3.73290
C         -4.38270        2.09140       -5.05680
C         -4.97800        1.97860       -6.30360
C         -6.06890        2.88840       -6.76410
C         -7.44310        2.27620       -6.47750
C         -4.46950        0.87660       -7.01850
S         -3.23070        0.00850       -6.10630
C         -3.40760        1.11000       -4.79330
C         -2.86040        1.27940       -3.51940
N         -1.92670        0.66250       -2.72860
C         -1.89810        1.32100       -1.51380
C         -1.15520        1.15390       -0.31800
N         -0.10650        0.33050        0.05660
C          0.16250        0.57190        1.37750
C          1.05170        0.11850        2.35750
S          2.35520       -1.00280        2.43930
C          0.85390       -0.39210       -0.74640
C          1.63990        0.54890       -1.65630
C         -1.41610       -0.63390       -3.11350
C         -2.06050       -1.75100       -2.29600
C         -4.91670        0.53000       -8.29310
C         -4.57880       -0.51930       -9.11860
C         -3.61810       -1.57980       -8.81980
O         -2.92470       -1.70720       -7.82570
C         -3.64450       -2.49280       -9.98270
C         -2.92650       -3.65430      -10.17740
C         -3.12290       -4.35890      -11.35930
Cl        -2.26190       -5.81620      -11.66640
C         -4.03110       -3.87330      -12.30180
F         -4.21800       -4.55790      -13.43690
C         -4.75410       -2.70510      -12.11230
C         -4.55640       -2.00410      -10.93360
C         -5.14590       -0.76410      -10.42810
C         -6.05750        0.00560      -11.10620
C         -6.55490       -0.30680      -12.38900
N         -7.00020       -0.50030      -13.42920
C         -6.62720        1.21060      -10.64600
N         -7.13580        2.19660      -10.34570
H          3.89190       -2.26320        4.35660
H          5.91780        2.69040        7.60440
H          7.54040       -2.01770        8.52810
H          8.57090        0.11740       11.00870
H         10.79620       -0.24470        9.95330
H         10.45970        0.05580        7.37800
H          9.63030        2.53940        6.93140
H          9.45520        3.77010        9.23300
H         10.38870        2.13080       11.15330
H         11.56660        2.28620        9.82600
H          7.76120        2.52880       10.57200
H          2.18060        0.03600        6.65160
H          2.01550        1.72030        6.16810
H          0.13550        0.88580        7.62470
H         -0.44390        1.50170        6.08040
H         -0.33030       -0.24060        6.34850
H         -5.04810        5.69240        0.41210
H         -3.93870        5.18800        2.63140
H         -5.97920        3.83020       -6.21930
H         -5.98170        3.10020       -7.83070
H         -8.22380        2.95480       -6.80880
H         -7.56190        1.33150       -7.00300
H         -7.56260        2.09860       -5.41130
H          0.36330       -1.18380       -1.31200
H          1.54180       -0.87520       -0.04820
H          2.20050        1.26210       -1.05660
H          2.34080       -0.01960       -2.26150
H          0.97660        1.10670       -2.31380
H         -0.32930       -0.65340       -3.03910
H         -1.66990       -0.76870       -4.16770
H         -1.64210       -2.71080       -2.58560
H         -3.13200       -1.77270       -2.48000
H         -1.90250       -1.60250       -1.22990
H         -5.66740        1.20560       -8.67910
H         -2.23250       -4.00450       -9.43010
H         -5.43910       -2.38790      -12.88130
