
  xtb     02022204123D
 energy: -201.638985252986 gnorm: 0.000354055236 xtb: 6.4.1 (unknown)
117131  0     0  0            999 V2000
    3.8242   -5.0805    1.8972 C   0  0  0  0  0  0  0  0  0  0  0  0
    3.0088   -6.0829    1.4331 C   0  0  0  0  0  0  0  0  0  0  0  0
    1.7122   -5.9135    0.7727 C   0  0  0  0  0  0  0  0  0  0  0  0
    1.1791   -4.8683    0.4361 O   0  0  0  0  0  0  0  0  0  0  0  0
    1.1568   -7.2651    0.5935 C   0  0  0  0  0  0  0  0  0  0  0  0
   -0.0815   -7.5979    0.0505 C   0  0  0  0  0  0  0  0  0  0  0  0
   -0.3443   -8.9467    0.0434 C   0  0  0  0  0  0  0  0  0  0  0  0
    0.5602   -9.8949    0.5389 C   0  0  0  0  0  0  0  0  0  0  0  0
    1.7899   -9.5799    1.0673 C   0  0  0  0  0  0  0  0  0  0  0  0
    2.0771   -8.2125    1.0854 C   0  0  0  0  0  0  0  0  0  0  0  0
    3.2583   -7.5032    1.5766 C   0  0  0  0  0  0  0  0  0  0  0  0
    4.3955   -8.1017    2.0580 C   0  0  0  0  0  0  0  0  0  0  0  0
    4.5844   -9.4958    2.1581 C   0  0  0  0  0  0  0  0  0  0  0  0
    4.8154  -10.6153    2.2692 N   0  0  0  0  0  0  0  0  0  0  0  0
    5.5541   -7.4336    2.5048 C   0  0  0  0  0  0  0  0  0  0  0  0
    6.5367   -6.9713    2.8820 N   0  0  0  0  0  0  0  0  0  0  0  0
   -0.3635  -11.0490    0.2423 C   0  0  0  0  0  0  0  0  0  0  0  0
   -1.1428  -11.6710    1.4277 C   0  0  0  0  0  0  0  0  0  0  0  0
   -1.2957  -10.5832    2.4616 C   0  0  0  0  0  0  0  0  0  0  0  0
   -2.1523   -9.6893    1.9858 C   0  0  0  0  0  0  0  0  0  0  0  0
   -2.5928  -10.1559    0.6203 C   0  0  0  0  0  0  0  0  0  0  0  0
   -2.5593  -11.6781    0.8310 C   0  0  0  0  0  0  0  0  0  0  0  0
   -1.3696   -9.9934   -0.3156 C   0  0  0  0  0  0  0  0  0  0  0  0
    3.6747   -3.6897    1.8692 C   0  0  0  0  0  0  0  0  0  0  0  0
    4.5883   -2.8087    2.4740 C   0  0  0  0  0  0  0  0  0  0  0  0
    5.8629   -3.1968    3.1495 C   0  0  0  0  0  0  0  0  0  0  0  0
    6.9836   -3.3969    2.1258 C   0  0  0  0  0  0  0  0  0  0  0  0
    4.1832   -1.4875    2.3392 C   0  0  0  0  0  0  0  0  0  0  0  0
    4.8564    0.0220    2.9294 S   0  0  0  0  0  0  0  0  0  0  0  0
    3.5072    0.8562    2.2426 C   0  0  0  0  0  0  0  0  0  0  0  0
    2.9659    2.1498    2.2107 C   0  0  0  0  0  0  0  0  0  0  0  0
    3.3807    3.3229    2.8948 C   0  0  0  0  0  0  0  0  0  0  0  0
    2.5150    4.4461    2.8749 C   0  0  0  0  0  0  0  0  0  0  0  0
    2.7983    5.5479    3.5779 N   0  0  0  0  0  0  0  0  0  0  0  0
    3.9206    5.5418    4.2646 C   0  0  0  0  0  0  0  0  0  0  0  0
    4.7891    4.4447    4.2604 C   0  0  0  0  0  0  0  0  0  0  0  0
    4.5231    3.3444    3.5897 N   0  0  0  0  0  0  0  0  0  0  0  0
    1.3569    4.3839    2.0560 C   0  0  0  0  0  0  0  0  0  0  0  0
    0.3898    5.3656    1.7881 C   0  0  0  0  0  0  0  0  0  0  0  0
   -0.0210    6.9679    2.2889 S   0  0  0  0  0  0  0  0  0  0  0  0
   -1.3680    6.9401    1.1647 C   0  0  0  0  0  0  0  0  0  0  0  0
   -2.3578    7.8669    0.8640 C   0  0  0  0  0  0  0  0  0  0  0  0
   -2.4350    9.2108    1.5122 C   0  0  0  0  0  0  0  0  0  0  0  0
   -1.7769   10.2805    0.6367 C   0  0  0  0  0  0  0  0  0  0  0  0
   -3.2243    7.3853   -0.1315 C   0  0  0  0  0  0  0  0  0  0  0  0
   -2.7863    5.7634   -0.6710 S   0  0  0  0  0  0  0  0  0  0  0  0
   -1.4696    5.7406    0.4393 C   0  0  0  0  0  0  0  0  0  0  0  0
   -0.4671    4.8423    0.8141 C   0  0  0  0  0  0  0  0  0  0  0  0
   -0.0915    3.5622    0.4916 N   0  0  0  0  0  0  0  0  0  0  0  0
    1.0160    3.2532    1.2604 C   0  0  0  0  0  0  0  0  0  0  0  0
    1.7612    2.0666    1.4537 C   0  0  0  0  0  0  0  0  0  0  0  0
    1.5594    0.7540    1.0884 N   0  0  0  0  0  0  0  0  0  0  0  0
    2.6109    0.0189    1.5669 C   0  0  0  0  0  0  0  0  0  0  0  0
    2.9802   -1.3270    1.6300 C   0  0  0  0  0  0  0  0  0  0  0  0
    2.3221   -2.8364    1.1230 S   0  0  0  0  0  0  0  0  0  0  0  0
    0.3872    0.0856    0.5724 C   0  0  0  0  0  0  0  0  0  0  0  0
    0.5884   -0.3839   -0.8685 C   0  0  0  0  0  0  0  0  0  0  0  0
   -0.4956    3.0435   -0.7978 C   0  0  0  0  0  0  0  0  0  0  0  0
    0.2929    3.7121   -1.9232 C   0  0  0  0  0  0  0  0  0  0  0  0
   -4.3260    8.1128   -0.5964 C   0  0  0  0  0  0  0  0  0  0  0  0
   -5.2504    7.8244   -1.5675 C   0  0  0  0  0  0  0  0  0  0  0  0
   -5.2367    6.6659   -2.4605 C   0  0  0  0  0  0  0  0  0  0  0  0
   -4.4933    5.6996   -2.4213 O   0  0  0  0  0  0  0  0  0  0  0  0
   -6.2992    6.9058   -3.4559 C   0  0  0  0  0  0  0  0  0  0  0  0
   -6.6350    6.1394   -4.5527 C   0  0  0  0  0  0  0  0  0  0  0  0
   -7.6369    6.6136   -5.3875 C   0  0  0  0  0  0  0  0  0  0  0  0
   -8.2454    7.8333   -5.1492 C   0  0  0  0  0  0  0  0  0  0  0  0
   -7.9012    8.6224   -4.0457 C   0  0  0  0  0  0  0  0  0  0  0  0
   -8.3904    9.8513   -3.8050 O   0  0  0  0  0  0  0  0  0  0  0  0
   -9.4363   10.3659   -4.5968 C   0  0  0  0  0  0  0  0  0  0  0  0
   -6.9420    8.1184   -3.1575 C   0  0  0  0  0  0  0  0  0  0  0  0
   -6.3947    8.6534   -1.9162 C   0  0  0  0  0  0  0  0  0  0  0  0
   -6.9364    9.6423   -1.1352 C   0  0  0  0  0  0  0  0  0  0  0  0
   -8.1783   10.2889   -1.3214 C   0  0  0  0  0  0  0  0  0  0  0  0
   -9.1854   10.8407   -1.3006 N   0  0  0  0  0  0  0  0  0  0  0  0
   -6.3798   10.1038    0.0775 C   0  0  0  0  0  0  0  0  0  0  0  0
   -5.9943   10.5458    1.0663 N   0  0  0  0  0  0  0  0  0  0  0  0
    4.7277   -5.4009    2.3978 H   0  0  0  0  0  0  0  0  0  0  0  0
   -0.7491   -6.8340   -0.3166 H   0  0  0  0  0  0  0  0  0  0  0  0
    2.4725  -10.3234    1.4430 H   0  0  0  0  0  0  0  0  0  0  0  0
    0.0182  -11.8033   -0.4429 H   0  0  0  0  0  0  0  0  0  0  0  0
   -0.7435  -12.6172    1.7829 H   0  0  0  0  0  0  0  0  0  0  0  0
   -0.7397  -10.5477    3.3801 H   0  0  0  0  0  0  0  0  0  0  0  0
   -2.4548   -8.7576    2.4271 H   0  0  0  0  0  0  0  0  0  0  0  0
   -3.5143   -9.7236    0.2390 H   0  0  0  0  0  0  0  0  0  0  0  0
   -3.3127  -12.0220    1.5381 H   0  0  0  0  0  0  0  0  0  0  0  0
   -2.6372  -12.2463   -0.0949 H   0  0  0  0  0  0  0  0  0  0  0  0
   -1.6402  -10.0551   -1.3680 H   0  0  0  0  0  0  0  0  0  0  0  0
    5.7375   -4.1115    3.7308 H   0  0  0  0  0  0  0  0  0  0  0  0
    6.1430   -2.3926    3.8329 H   0  0  0  0  0  0  0  0  0  0  0  0
    6.7383   -4.2031    1.4388 H   0  0  0  0  0  0  0  0  0  0  0  0
    7.9070   -3.6528    2.6373 H   0  0  0  0  0  0  0  0  0  0  0  0
    7.1402   -2.4853    1.5538 H   0  0  0  0  0  0  0  0  0  0  0  0
    4.1392    6.4358    4.8320 H   0  0  0  0  0  0  0  0  0  0  0  0
    5.7176    4.4548    4.8144 H   0  0  0  0  0  0  0  0  0  0  0  0
   -3.4715    9.4882    1.7119 H   0  0  0  0  0  0  0  0  0  0  0  0
   -1.9064    9.1581    2.4660 H   0  0  0  0  0  0  0  0  0  0  0  0
   -2.2777   10.3540   -0.3261 H   0  0  0  0  0  0  0  0  0  0  0  0
   -0.7310   10.0364    0.4648 H   0  0  0  0  0  0  0  0  0  0  0  0
   -1.8324   11.2468    1.1303 H   0  0  0  0  0  0  0  0  0  0  0  0
    0.2070   -0.7943    1.1993 H   0  0  0  0  0  0  0  0  0  0  0  0
   -0.4738    0.7472    0.6778 H   0  0  0  0  0  0  0  0  0  0  0  0
    0.9527    0.4207   -1.5038 H   0  0  0  0  0  0  0  0  0  0  0  0
   -0.3496   -0.7565   -1.2700 H   0  0  0  0  0  0  0  0  0  0  0  0
    1.3143   -1.1920   -0.8948 H   0  0  0  0  0  0  0  0  0  0  0  0
   -1.5609    3.2609   -0.9162 H   0  0  0  0  0  0  0  0  0  0  0  0
   -0.3476    1.9714   -0.8450 H   0  0  0  0  0  0  0  0  0  0  0  0
   -0.0336    3.3205   -2.8823 H   0  0  0  0  0  0  0  0  0  0  0  0
    0.1303    4.7868   -1.9163 H   0  0  0  0  0  0  0  0  0  0  0  0
    1.3581    3.5203   -1.8072 H   0  0  0  0  0  0  0  0  0  0  0  0
   -4.4412    9.0686   -0.1041 H   0  0  0  0  0  0  0  0  0  0  0  0
   -6.1263    5.2083   -4.7438 H   0  0  0  0  0  0  0  0  0  0  0  0
   -7.9373    6.0381   -6.2501 H   0  0  0  0  0  0  0  0  0  0  0  0
   -8.9946    8.1851   -5.8407 H   0  0  0  0  0  0  0  0  0  0  0  0
   -9.1047   10.5544   -5.6225 H   0  0  0  0  0  0  0  0  0  0  0  0
  -10.2997    9.6953   -4.6021 H   0  0  0  0  0  0  0  0  0  0  0  0
   -9.7146   11.3042   -4.1205 H   0  0  0  0  0  0  0  0  0  0  0  0
  1  2  2  0  0  0  0
  2  3  1  0  0  0  0
  3  4  2  0  0  0  0
  3  5  1  0  0  0  0
  5  6  2  0  0  0  0
  6  7  1  0  0  0  0
  7  8  2  0  0  0  0
  8  9  1  0  0  0  0
  9 10  2  0  0  0  0
 10 11  1  0  0  0  0
 11 12  2  0  0  0  0
 12 13  1  0  0  0  0
 13 14  3  0  0  0  0
 12 15  1  0  0  0  0
 15 16  3  0  0  0  0
  8 17  1  0  0  0  0
 17 18  1  0  0  0  0
 18 19  1  0  0  0  0
 19 20  2  0  0  0  0
 20 21  1  0  0  0  0
 21 22  1  0  0  0  0
 21 23  1  0  0  0  0
  1 24  1  0  0  0  0
 24 25  2  0  0  0  0
 25 26  1  0  0  0  0
 26 27  1  0  0  0  0
 25 28  1  0  0  0  0
 28 29  1  0  0  0  0
 29 30  1  0  0  0  0
 30 31  1  0  0  0  0
 31 32  2  0  0  0  0
 32 33  1  0  0  0  0
 33 34  1  0  0  0  0
 34 35  2  0  0  0  0
 35 36  1  0  0  0  0
 36 37  2  0  0  0  0
 33 38  2  0  0  0  0
 38 39  1  0  0  0  0
 39 40  1  0  0  0  0
 40 41  1  0  0  0  0
 41 42  1  0  0  0  0
 42 43  1  0  0  0  0
 43 44  1  0  0  0  0
 42 45  2  0  0  0  0
 45 46  1  0  0  0  0
 46 47  1  0  0  0  0
 47 48  1  0  0  0  0
 48 49  1  0  0  0  0
 49 50  1  0  0  0  0
 50 51  2  0  0  0  0
 51 52  1  0  0  0  0
 52 53  1  0  0  0  0
 53 54  1  0  0  0  0
 54 55  1  0  0  0  0
 52 56  1  0  0  0  0
 56 57  1  0  0  0  0
 49 58  1  0  0  0  0
 58 59  1  0  0  0  0
 45 60  1  0  0  0  0
 60 61  2  0  0  0  0
 61 62  1  0  0  0  0
 62 63  2  0  0  0  0
 62 64  1  0  0  0  0
 64 65  2  0  0  0  0
 65 66  1  0  0  0  0
 66 67  2  0  0  0  0
 67 68  1  0  0  0  0
 68 69  1  0  0  0  0
 69 70  1  0  0  0  0
 68 71  2  0  0  0  0
 71 72  1  0  0  0  0
 72 73  2  0  0  0  0
 73 74  1  0  0  0  0
 74 75  3  0  0  0  0
 73 76  1  0  0  0  0
 76 77  3  0  0  0  0
 11  2  1  0  0  0  0
 23 17  1  0  0  0  0
 55 24  1  0  0  0  0
 72 61  1  0  0  0  0
 10  5  1  0  0  0  0
 22 18  1  0  0  0  0
 54 28  2  0  0  0  0
 71 64  1  0  0  0  0
 23  7  1  0  0  0  0
 53 30  2  0  0  0  0
 51 31  1  0  0  0  0
 37 32  1  0  0  0  0
 50 38  1  0  0  0  0
 48 39  2  0  0  0  0
 47 41  2  0  0  0  0
  1 78  1  0  0  0  0
  6 79  1  0  0  0  0
  9 80  1  0  0  0  0
 17 81  1  0  0  0  0
 18 82  1  0  0  0  0
 19 83  1  0  0  0  0
 20 84  1  0  0  0  0
 21 85  1  0  0  0  0
 22 86  1  0  0  0  0
 22 87  1  0  0  0  0
 23 88  1  0  0  0  0
 26 89  1  0  0  0  0
 26 90  1  0  0  0  0
 27 91  1  0  0  0  0
 27 92  1  0  0  0  0
 27 93  1  0  0  0  0
 35 94  1  0  0  0  0
 36 95  1  0  0  0  0
 43 96  1  0  0  0  0
 43 97  1  0  0  0  0
 44 98  1  0  0  0  0
 44 99  1  0  0  0  0
 44100  1  0  0  0  0
 56101  1  0  0  0  0
 56102  1  0  0  0  0
 57103  1  0  0  0  0
 57104  1  0  0  0  0
 57105  1  0  0  0  0
 58106  1  0  0  0  0
 58107  1  0  0  0  0
 59108  1  0  0  0  0
 59109  1  0  0  0  0
 59110  1  0  0  0  0
 60111  1  0  0  0  0
 65112  1  0  0  0  0
 66113  1  0  0  0  0
 67114  1  0  0  0  0
 70115  1  0  0  0  0
 70116  1  0  0  0  0
 70117  1  0  0  0  0
M  END
