
  xtb     02022219283D
 energy: -201.951414832151 gnorm: 0.000804331053 xtb: 6.4.1 (unknown)
116131  0     0  0            999 V2000
   -3.8583   -0.0468   -6.1114 C   0  0  0  0  0  0  0  0  0  0  0  0
   -4.5977    1.0887   -5.8936 C   0  0  0  0  0  0  0  0  0  0  0  0
   -4.5249    1.9608   -4.7189 C   0  0  0  0  0  0  0  0  0  0  0  0
   -3.7835    1.8502   -3.7555 O   0  0  0  0  0  0  0  0  0  0  0  0
   -5.5359    3.0122   -4.9181 C   0  0  0  0  0  0  0  0  0  0  0  0
   -5.8428    4.0564   -4.0494 C   0  0  0  0  0  0  0  0  0  0  0  0
   -6.8425    4.8839   -4.5013 C   0  0  0  0  0  0  0  0  0  0  0  0
   -7.4920    4.6847   -5.7265 C   0  0  0  0  0  0  0  0  0  0  0  0
   -7.1998    3.6567   -6.5916 C   0  0  0  0  0  0  0  0  0  0  0  0
   -6.1826    2.8047   -6.1532 C   0  0  0  0  0  0  0  0  0  0  0  0
   -5.6076    1.6190   -6.7878 C   0  0  0  0  0  0  0  0  0  0  0  0
   -5.9732    1.1241   -8.0145 C   0  0  0  0  0  0  0  0  0  0  0  0
   -6.9622    1.6918   -8.8447 C   0  0  0  0  0  0  0  0  0  0  0  0
   -7.7495    2.0908   -9.5795 N   0  0  0  0  0  0  0  0  0  0  0  0
   -5.4270   -0.0127   -8.6452 C   0  0  0  0  0  0  0  0  0  0  0  0
   -5.0406   -0.9201   -9.2358 N   0  0  0  0  0  0  0  0  0  0  0  0
   -8.3786    5.8908   -5.5439 C   0  0  0  0  0  0  0  0  0  0  0  0
   -8.0234    7.1734   -6.3357 C   0  0  0  0  0  0  0  0  0  0  0  0
   -6.5376    7.1216   -6.5914 C   0  0  0  0  0  0  0  0  0  0  0  0
   -5.9206    7.3110   -5.4327 C   0  0  0  0  0  0  0  0  0  0  0  0
   -6.9783    7.4944   -4.3724 C   0  0  0  0  0  0  0  0  0  0  0  0
   -8.0662    8.2029   -5.1951 C   0  0  0  0  0  0  0  0  0  0  0  0
   -7.6535    6.1139   -4.1793 C   0  0  0  0  0  0  0  0  0  0  0  0
   -2.8706   -0.6637   -5.3358 C   0  0  0  0  0  0  0  0  0  0  0  0
   -2.2193   -1.8451   -5.7301 C   0  0  0  0  0  0  0  0  0  0  0  0
   -2.4414   -2.5826   -7.0101 C   0  0  0  0  0  0  0  0  0  0  0  0
   -1.6164   -1.9696   -8.1448 C   0  0  0  0  0  0  0  0  0  0  0  0
   -1.2805   -2.2444   -4.7883 C   0  0  0  0  0  0  0  0  0  0  0  0
   -0.1855   -3.6133   -4.7221 S   0  0  0  0  0  0  0  0  0  0  0  0
    0.3685   -3.0523   -3.1852 C   0  0  0  0  0  0  0  0  0  0  0  0
    1.2392   -3.4559   -2.1637 C   0  0  0  0  0  0  0  0  0  0  0  0
    1.9936   -4.6523   -2.0500 C   0  0  0  0  0  0  0  0  0  0  0  0
    2.6771   -4.8923   -0.8329 C   0  0  0  0  0  0  0  0  0  0  0  0
    3.3463   -6.0323   -0.6290 N   0  0  0  0  0  0  0  0  0  0  0  0
    3.3478   -6.9021   -1.6161 C   0  0  0  0  0  0  0  0  0  0  0  0
    2.6921   -6.6547   -2.8276 C   0  0  0  0  0  0  0  0  0  0  0  0
    2.0180   -5.5460   -3.0449 N   0  0  0  0  0  0  0  0  0  0  0  0
    2.6647   -3.8687    0.1502 C   0  0  0  0  0  0  0  0  0  0  0  0
    3.3408   -3.8115    1.3774 C   0  0  0  0  0  0  0  0  0  0  0  0
    4.3662   -4.8072    2.3469 S   0  0  0  0  0  0  0  0  0  0  0  0
    4.4835   -3.4959    3.5067 C   0  0  0  0  0  0  0  0  0  0  0  0
    5.1584   -3.3751    4.7133 C   0  0  0  0  0  0  0  0  0  0  0  0
    5.9545   -4.4912    5.3064 C   0  0  0  0  0  0  0  0  0  0  0  0
    5.1025   -5.3088    6.2813 C   0  0  0  0  0  0  0  0  0  0  0  0
    4.9396   -2.1155    5.2999 C   0  0  0  0  0  0  0  0  0  0  0  0
    3.8987   -1.0911    4.3070 S   0  0  0  0  0  0  0  0  0  0  0  0
    3.7547   -2.3505    3.1392 C   0  0  0  0  0  0  0  0  0  0  0  0
    3.0994   -2.5450    1.9204 C   0  0  0  0  0  0  0  0  0  0  0  0
    2.2741   -1.8264    1.0916 N   0  0  0  0  0  0  0  0  0  0  0  0
    1.9863   -2.6246   -0.0021 C   0  0  0  0  0  0  0  0  0  0  0  0
    1.1586   -2.4654   -1.1405 C   0  0  0  0  0  0  0  0  0  0  0  0
    0.2271   -1.5219   -1.5202 N   0  0  0  0  0  0  0  0  0  0  0  0
   -0.2460   -1.8697   -2.7576 C   0  0  0  0  0  0  0  0  0  0  0  0
   -1.1983   -1.4008   -3.6668 C   0  0  0  0  0  0  0  0  0  0  0  0
   -2.2967   -0.0763   -3.7739 S   0  0  0  0  0  0  0  0  0  0  0  0
   -0.4473   -0.4889   -0.7681 C   0  0  0  0  0  0  0  0  0  0  0  0
    0.0129    0.9097   -1.1757 C   0  0  0  0  0  0  0  0  0  0  0  0
    2.2815   -0.3847    1.2171 C   0  0  0  0  0  0  0  0  0  0  0  0
    3.4559    0.2203    0.4503 C   0  0  0  0  0  0  0  0  0  0  0  0
    5.4809   -1.7519    6.5360 C   0  0  0  0  0  0  0  0  0  0  0  0
    5.3588   -0.5973    7.2714 C   0  0  0  0  0  0  0  0  0  0  0  0
    4.6062    0.5980    6.8858 C   0  0  0  0  0  0  0  0  0  0  0  0
    3.9725    0.7806    5.8584 O   0  0  0  0  0  0  0  0  0  0  0  0
    4.7676    1.5605    7.9874 C   0  0  0  0  0  0  0  0  0  0  0  0
    4.2476    2.8273    8.0919 C   0  0  0  0  0  0  0  0  0  0  0  0
    4.5408    3.5595    9.2466 C   0  0  0  0  0  0  0  0  0  0  0  0
    4.1338    4.8760    9.6038 C   0  0  0  0  0  0  0  0  0  0  0  0
    4.6121    5.2594   10.8075 C   0  0  0  0  0  0  0  0  0  0  0  0
    5.5826    4.0559   11.5832 S   0  0  0  0  0  0  0  0  0  0  0  0
    5.3513    2.9729   10.2467 C   0  0  0  0  0  0  0  0  0  0  0  0
    5.8785    1.6907   10.1400 C   0  0  0  0  0  0  0  0  0  0  0  0
    5.5797    0.9800    8.9937 C   0  0  0  0  0  0  0  0  0  0  0  0
    5.9610   -0.3636    8.5686 C   0  0  0  0  0  0  0  0  0  0  0  0
    6.7459   -1.2267    9.2936 C   0  0  0  0  0  0  0  0  0  0  0  0
    7.2929   -0.9266   10.5581 C   0  0  0  0  0  0  0  0  0  0  0  0
    7.7729   -0.7513   11.5866 N   0  0  0  0  0  0  0  0  0  0  0  0
    7.1229   -2.5279    8.9052 C   0  0  0  0  0  0  0  0  0  0  0  0
    7.4791   -3.5945    8.6662 N   0  0  0  0  0  0  0  0  0  0  0  0
   -4.0613   -0.5716   -7.0348 H   0  0  0  0  0  0  0  0  0  0  0  0
   -5.3195    4.1702   -3.1129 H   0  0  0  0  0  0  0  0  0  0  0  0
   -7.7128    3.5175   -7.5282 H   0  0  0  0  0  0  0  0  0  0  0  0
   -9.4493    5.6968   -5.5268 H   0  0  0  0  0  0  0  0  0  0  0  0
   -8.6532    7.3580   -7.2017 H   0  0  0  0  0  0  0  0  0  0  0  0
   -6.1023    6.9020   -7.5486 H   0  0  0  0  0  0  0  0  0  0  0  0
   -4.8663    7.2806   -5.2282 H   0  0  0  0  0  0  0  0  0  0  0  0
   -6.6565    7.9725   -3.4508 H   0  0  0  0  0  0  0  0  0  0  0  0
   -9.0300    8.2510   -4.6900 H   0  0  0  0  0  0  0  0  0  0  0  0
   -7.7690    9.2001   -5.5164 H   0  0  0  0  0  0  0  0  0  0  0  0
   -8.2514    6.0680   -3.2710 H   0  0  0  0  0  0  0  0  0  0  0  0
   -3.4964   -2.5793   -7.2878 H   0  0  0  0  0  0  0  0  0  0  0  0
   -2.1296   -3.6186   -6.8630 H   0  0  0  0  0  0  0  0  0  0  0  0
   -1.9008   -0.9334   -8.3114 H   0  0  0  0  0  0  0  0  0  0  0  0
   -0.5566   -2.0063   -7.9039 H   0  0  0  0  0  0  0  0  0  0  0  0
   -1.7868   -2.5237   -9.0632 H   0  0  0  0  0  0  0  0  0  0  0  0
    3.8882   -7.8223   -1.4422 H   0  0  0  0  0  0  0  0  0  0  0  0
    2.7099   -7.3704   -3.6378 H   0  0  0  0  0  0  0  0  0  0  0  0
    6.8368   -4.1142    5.8254 H   0  0  0  0  0  0  0  0  0  0  0  0
    6.2865   -5.1407    4.4940 H   0  0  0  0  0  0  0  0  0  0  0  0
    5.6937   -6.1214    6.6933 H   0  0  0  0  0  0  0  0  0  0  0  0
    4.2391   -5.7272    5.7693 H   0  0  0  0  0  0  0  0  0  0  0  0
    4.7536   -4.6871    7.1024 H   0  0  0  0  0  0  0  0  0  0  0  0
   -0.3127   -0.6797    0.2976 H   0  0  0  0  0  0  0  0  0  0  0  0
   -1.5177   -0.5751   -0.9841 H   0  0  0  0  0  0  0  0  0  0  0  0
   -0.2942    1.1130   -2.1981 H   0  0  0  0  0  0  0  0  0  0  0  0
    1.0938    1.0083   -1.1160 H   0  0  0  0  0  0  0  0  0  0  0  0
   -0.4479    1.6517   -0.5298 H   0  0  0  0  0  0  0  0  0  0  0  0
    2.3836   -0.1600    2.2820 H   0  0  0  0  0  0  0  0  0  0  0  0
    1.3492    0.0448    0.8676 H   0  0  0  0  0  0  0  0  0  0  0  0
    3.3888   -0.0246   -0.6083 H   0  0  0  0  0  0  0  0  0  0  0  0
    4.3966   -0.1668    0.8341 H   0  0  0  0  0  0  0  0  0  0  0  0
    3.4545    1.3006    0.5648 H   0  0  0  0  0  0  0  0  0  0  0  0
    6.0882   -2.5291    6.9791 H   0  0  0  0  0  0  0  0  0  0  0  0
    3.6327    3.2398    7.3069 H   0  0  0  0  0  0  0  0  0  0  0  0
    3.5133    5.4918    8.9782 H   0  0  0  0  0  0  0  0  0  0  0  0
    4.4581    6.1945   11.3100 H   0  0  0  0  0  0  0  0  0  0  0  0
    6.4908    1.2912   10.9308 H   0  0  0  0  0  0  0  0  0  0  0  0
  1  2  2  0  0  0  0
  2  3  1  0  0  0  0
  3  4  2  0  0  0  0
  3  5  1  0  0  0  0
  5  6  2  0  0  0  0
  6  7  1  0  0  0  0
  7  8  2  0  0  0  0
  8  9  1  0  0  0  0
  9 10  2  0  0  0  0
 10 11  1  0  0  0  0
 11 12  2  0  0  0  0
 12 13  1  0  0  0  0
 13 14  3  0  0  0  0
 12 15  1  0  0  0  0
 15 16  3  0  0  0  0
  8 17  1  0  0  0  0
 17 18  1  0  0  0  0
 18 19  1  0  0  0  0
 19 20  2  0  0  0  0
 20 21  1  0  0  0  0
 21 22  1  0  0  0  0
 21 23  1  0  0  0  0
  1 24  1  0  0  0  0
 24 25  2  0  0  0  0
 25 26  1  0  0  0  0
 26 27  1  0  0  0  0
 25 28  1  0  0  0  0
 28 29  1  0  0  0  0
 29 30  1  0  0  0  0
 30 31  1  0  0  0  0
 31 32  2  0  0  0  0
 32 33  1  0  0  0  0
 33 34  1  0  0  0  0
 34 35  2  0  0  0  0
 35 36  1  0  0  0  0
 36 37  2  0  0  0  0
 33 38  2  0  0  0  0
 38 39  1  0  0  0  0
 39 40  1  0  0  0  0
 40 41  1  0  0  0  0
 41 42  1  0  0  0  0
 42 43  1  0  0  0  0
 43 44  1  0  0  0  0
 42 45  2  0  0  0  0
 45 46  1  0  0  0  0
 46 47  1  0  0  0  0
 47 48  1  0  0  0  0
 48 49  1  0  0  0  0
 49 50  1  0  0  0  0
 50 51  2  0  0  0  0
 51 52  1  0  0  0  0
 52 53  1  0  0  0  0
 53 54  1  0  0  0  0
 54 55  1  0  0  0  0
 52 56  1  0  0  0  0
 56 57  1  0  0  0  0
 49 58  1  0  0  0  0
 58 59  1  0  0  0  0
 45 60  1  0  0  0  0
 60 61  2  0  0  0  0
 61 62  1  0  0  0  0
 62 63  2  0  0  0  0
 62 64  1  0  0  0  0
 64 65  2  0  0  0  0
 65 66  1  0  0  0  0
 66 67  1  0  0  0  0
 67 68  2  0  0  0  0
 68 69  1  0  0  0  0
 69 70  1  0  0  0  0
 70 71  1  0  0  0  0
 71 72  2  0  0  0  0
 72 73  1  0  0  0  0
 73 74  2  0  0  0  0
 74 75  1  0  0  0  0
 75 76  3  0  0  0  0
 74 77  1  0  0  0  0
 77 78  3  0  0  0  0
 11  2  1  0  0  0  0
 23 17  1  0  0  0  0
 55 24  1  0  0  0  0
 73 61  1  0  0  0  0
 10  5  1  0  0  0  0
 22 18  1  0  0  0  0
 54 28  2  0  0  0  0
 72 64  1  0  0  0  0
 23  7  1  0  0  0  0
 53 30  2  0  0  0  0
 70 66  2  0  0  0  0
 51 31  1  0  0  0  0
 37 32  1  0  0  0  0
 50 38  1  0  0  0  0
 48 39  2  0  0  0  0
 47 41  2  0  0  0  0
  1 79  1  0  0  0  0
  6 80  1  0  0  0  0
  9 81  1  0  0  0  0
 17 82  1  0  0  0  0
 18 83  1  0  0  0  0
 19 84  1  0  0  0  0
 20 85  1  0  0  0  0
 21 86  1  0  0  0  0
 22 87  1  0  0  0  0
 22 88  1  0  0  0  0
 23 89  1  0  0  0  0
 26 90  1  0  0  0  0
 26 91  1  0  0  0  0
 27 92  1  0  0  0  0
 27 93  1  0  0  0  0
 27 94  1  0  0  0  0
 35 95  1  0  0  0  0
 36 96  1  0  0  0  0
 43 97  1  0  0  0  0
 43 98  1  0  0  0  0
 44 99  1  0  0  0  0
 44100  1  0  0  0  0
 44101  1  0  0  0  0
 56102  1  0  0  0  0
 56103  1  0  0  0  0
 57104  1  0  0  0  0
 57105  1  0  0  0  0
 57106  1  0  0  0  0
 58107  1  0  0  0  0
 58108  1  0  0  0  0
 59109  1  0  0  0  0
 59110  1  0  0  0  0
 59111  1  0  0  0  0
 60112  1  0  0  0  0
 65113  1  0  0  0  0
 67114  1  0  0  0  0
 68115  1  0  0  0  0
 71116  1  0  0  0  0
M  END
