111

C          3.66080        1.86580        3.34940
C          3.86620        1.65720        4.68510
C          2.93100        1.02910        5.64710
O          1.73340        0.85810        5.54170
C          3.76920        0.58600        6.77800
C          3.35540       -0.16900        7.87390
C          4.36300       -0.46760        8.75910
C          5.68550       -0.04120        8.57450
C          6.10550        0.71200        7.50420
C          5.09600        1.01940        6.58690
C          5.16020        1.76280        5.33380
C          6.22410        2.50270        4.88880
C          6.21070        3.30470        3.72760
N          6.26320        3.99760        2.81320
C          7.45810        2.60660        5.56280
N          8.48640        2.72610        6.05950
C          6.16530       -0.72230        9.83180
C          6.92990       -2.04990        9.64420
C          6.84570       -2.71140       11.00080
C          5.59390       -3.11530       11.17570
C          4.81110       -2.73370        9.94010
C          5.90450       -2.89380        8.87590
C          4.69120       -1.19750       10.03780
C          2.45960        1.80280        2.61740
C          1.13300        1.92640        3.00980
C          0.25110        1.75390        1.95450
C         -1.24240        1.77790        1.75800
C         -1.72470        3.21260        2.06900
C         -3.20990        3.47390        1.85900
C         -1.96560        0.68470        2.56840
C         -1.87390        0.82790        4.08220
C         -1.33860        1.44570        0.27850
C         -0.07050        1.32240       -0.29910
C          0.88960        1.52780        0.73790
S          2.59290        1.53610        0.88120
C          0.09950        0.98680       -1.66140
C          1.36310        0.89080       -2.27250
C          1.49950        0.52040       -3.58950
C          0.36510        0.21040       -4.33440
C          0.27970       -0.24770       -5.78040
C          0.93600        0.81420       -6.68340
C          0.86360        0.52520       -8.17680
C          0.83990       -1.67380       -5.97830
C          2.34060       -1.83760       -5.77840
C         -1.21540       -0.32170       -5.95970
C         -2.09670       -0.70600       -6.94290
C         -3.43930       -0.63920       -6.53090
S         -3.56770       -0.08970       -4.86620
C         -1.86720        0.02070       -4.76810
C         -0.90590        0.34750       -3.76510
C         -1.08100        0.73780       -2.41660
C         -2.34490        0.85510       -1.81100
C         -2.47630        1.20090       -0.48610
C         -4.48950       -1.00690       -7.37360
C         -5.84940       -1.02990       -7.15800
C         -6.52950       -0.61030       -5.93250
O         -6.03360       -0.18880       -4.90310
C         -7.97460       -0.79530       -6.18570
C         -9.03330       -0.53580       -5.33910
C        -10.31030       -0.79480       -5.81070
F        -11.36810       -0.55870       -5.02420
C        -10.50350       -1.29950       -7.09620
F        -11.74760       -1.54010       -7.52630
C         -9.43810       -1.56010       -7.94600
C         -8.15770       -1.30370       -7.48210
C         -6.84570       -1.46650       -8.11320
C         -6.64000       -1.96040       -9.37600
C         -7.67470       -2.37260      -10.24260
N         -8.46270       -2.72630      -10.99860
C         -5.38820       -2.14060      -10.00080
N         -4.41320       -2.32000      -10.58150
H          4.54180        2.03580        2.74010
H          2.32640       -0.47530        7.97890
H          7.12620        1.03020        7.37150
H          6.61440       -0.07440       10.58190
H          7.92070       -1.94680        9.21040
H          7.66490       -2.76590       11.69340
H          5.15850       -3.57470       12.04360
H          3.87160       -3.25460        9.77560
H          6.22330       -3.92910        8.76630
H          5.63800       -2.49030        7.90070
H          4.15650       -0.86780       10.92650
H          0.85900        2.14540        4.02300
H         -1.46230        3.43350        3.10480
H         -1.15360        3.89650        1.43520
H         -3.43930        4.49330        2.16240
H         -3.48120        3.36680        0.81250
H         -3.82020        2.80090        2.45490
H         -3.01490        0.67550        2.26940
H         -1.53640       -0.27780        2.27710
H         -0.84710        0.74480        4.42520
H         -2.28270        1.77760        4.41670
H         -2.44850        0.03180        4.55090
H          2.24040        1.12020       -1.68620
H          2.48130        0.47740       -4.03370
H          1.98040        0.91990       -6.38700
H          0.44260        1.76860       -6.48120
H         -0.16780        0.47060       -8.51310
H          1.35340        1.32810       -8.72320
H          1.36460       -0.40600       -8.42620
H          0.57460       -1.99720       -6.98610
H          0.31770       -2.33140       -5.27800
H          2.62110       -1.64690       -4.74660
H          2.62210       -2.86090       -6.01770
H          2.90420       -1.17390       -6.42820
H         -1.83440       -1.04350       -7.92990
H         -3.22500        0.65350       -2.40300
H         -3.45900        1.25740       -0.04520
H         -4.15250       -1.33040       -8.35100
H         -8.87810       -0.14610       -4.34580
H         -9.64340       -1.94880       -8.92970
