
  xtb     02022208273D
 energy: -277.526222299881 gnorm: 0.000380293998 xtb: 6.4.1 (unknown)
168188  0     0  0            999 V2000
    7.2293   -5.5834    0.6917 C   0  0  0  0  0  0  0  0  0  0  0  0
    7.9728   -6.0437   -0.3481 C   0  0  0  0  0  0  0  0  0  0  0  0
    9.3041   -6.6623   -0.1002 C   0  0  0  0  0  0  0  0  0  0  0  0
    9.7432   -7.0297    0.9660 O   0  0  0  0  0  0  0  0  0  0  0  0
    9.9762   -6.6768   -1.4137 C   0  0  0  0  0  0  0  0  0  0  0  0
   11.2891   -7.0580   -1.6861 C   0  0  0  0  0  0  0  0  0  0  0  0
   11.6385   -6.9565   -3.0113 C   0  0  0  0  0  0  0  0  0  0  0  0
   10.7526   -6.5035   -3.9991 C   0  0  0  0  0  0  0  0  0  0  0  0
    9.4538   -6.1304   -3.7484 C   0  0  0  0  0  0  0  0  0  0  0  0
    9.0766   -6.2335   -2.4067 C   0  0  0  0  0  0  0  0  0  0  0  0
    7.7800   -5.9904   -1.7821 C   0  0  0  0  0  0  0  0  0  0  0  0
    6.5727   -6.0114   -2.4302 C   0  0  0  0  0  0  0  0  0  0  0  0
    6.4195   -6.0701   -3.8302 C   0  0  0  0  0  0  0  0  0  0  0  0
    6.2318   -6.1097   -4.9620 N   0  0  0  0  0  0  0  0  0  0  0  0
    5.3339   -6.0921   -1.7643 C   0  0  0  0  0  0  0  0  0  0  0  0
    4.2997   -6.2186   -1.2801 N   0  0  0  0  0  0  0  0  0  0  0  0
   11.7746   -6.6535   -5.0982 C   0  0  0  0  0  0  0  0  0  0  0  0
   12.4522   -5.3597   -5.5967 C   0  0  0  0  0  0  0  0  0  0  0  0
   13.7021   -5.8510   -6.2906 C   0  0  0  0  0  0  0  0  0  0  0  0
   14.5403   -6.2804   -5.3559 C   0  0  0  0  0  0  0  0  0  0  0  0
   13.8710   -6.0868   -4.0143 C   0  0  0  0  0  0  0  0  0  0  0  0
   13.0669   -4.8123   -4.3021 C   0  0  0  0  0  0  0  0  0  0  0  0
   12.7616   -7.1599   -3.9979 C   0  0  0  0  0  0  0  0  0  0  0  0
    6.1594   -4.6552    0.6745 C   0  0  0  0  0  0  0  0  0  0  0  0
    5.1810   -4.5292    1.6424 C   0  0  0  0  0  0  0  0  0  0  0  0
    4.2640   -3.5294    1.3334 C   0  0  0  0  0  0  0  0  0  0  0  0
    2.8032   -2.9539    2.0835 S   0  0  0  0  0  0  0  0  0  0  0  0
    2.6123   -1.8099    0.7983 C   0  0  0  0  0  0  0  0  0  0  0  0
    1.6409   -0.8201    0.4447 C   0  0  0  0  0  0  0  0  0  0  0  0
    0.4753   -0.4030    1.0821 C   0  0  0  0  0  0  0  0  0  0  0  0
   -0.2490    0.5958    0.4737 C   0  0  0  0  0  0  0  0  0  0  0  0
   -1.5256    1.2545    0.9619 C   0  0  0  0  0  0  0  0  0  0  0  0
   -2.5819    0.2008    1.2233 C   0  0  0  0  0  0  0  0  0  0  0  0
   -3.4520   -0.2033    0.2178 C   0  0  0  0  0  0  0  0  0  0  0  0
   -4.3939   -1.1791    0.4789 C   0  0  0  0  0  0  0  0  0  0  0  0
   -4.4859   -1.7703    1.7277 C   0  0  0  0  0  0  0  0  0  0  0  0
   -3.6094   -1.3809    2.7350 C   0  0  0  0  0  0  0  0  0  0  0  0
   -3.5939   -1.8800    3.9980 O   0  0  0  0  0  0  0  0  0  0  0  0
   -4.5292   -2.8790    4.3543 C   0  0  0  0  0  0  0  0  0  0  0  0
   -4.2829   -3.2426    5.8099 C   0  0  0  0  0  0  0  0  0  0  0  0
   -2.6573   -0.3971    2.4684 C   0  0  0  0  0  0  0  0  0  0  0  0
   -1.3220    2.1593    2.1680 C   0  0  0  0  0  0  0  0  0  0  0  0
   -0.0644    2.5464    2.5982 C   0  0  0  0  0  0  0  0  0  0  0  0
    0.0499    3.4219    3.6680 C   0  0  0  0  0  0  0  0  0  0  0  0
   -1.0718    3.9079    4.3029 C   0  0  0  0  0  0  0  0  0  0  0  0
   -2.3462    3.5283    3.8702 C   0  0  0  0  0  0  0  0  0  0  0  0
   -3.3861    4.0689    4.5498 O   0  0  0  0  0  0  0  0  0  0  0  0
   -4.7138    3.6843    4.2342 C   0  0  0  0  0  0  0  0  0  0  0  0
   -5.0662    2.2958    4.7613 C   0  0  0  0  0  0  0  0  0  0  0  0
   -2.4581    2.6585    2.7933 C   0  0  0  0  0  0  0  0  0  0  0  0
   -1.8331    2.1668   -0.1940 C   0  0  0  0  0  0  0  0  0  0  0  0
   -0.8305    2.1033   -1.1466 C   0  0  0  0  0  0  0  0  0  0  0  0
    0.1548    1.1385   -0.7702 C   0  0  0  0  0  0  0  0  0  0  0  0
    1.3243    0.7274   -1.4040 C   0  0  0  0  0  0  0  0  0  0  0  0
    2.0707   -0.2393   -0.7730 C   0  0  0  0  0  0  0  0  0  0  0  0
    3.4124   -0.8045   -1.2021 C   0  0  0  0  0  0  0  0  0  0  0  0
    3.3254   -1.3382   -2.6167 C   0  0  0  0  0  0  0  0  0  0  0  0
    3.6105   -0.5145   -3.6945 C   0  0  0  0  0  0  0  0  0  0  0  0
    3.4973   -1.0089   -4.9842 C   0  0  0  0  0  0  0  0  0  0  0  0
    3.0856   -2.3048   -5.2053 C   0  0  0  0  0  0  0  0  0  0  0  0
    2.7648   -3.1331   -4.1267 C   0  0  0  0  0  0  0  0  0  0  0  0
    2.3405   -4.3778   -4.4436 O   0  0  0  0  0  0  0  0  0  0  0  0
    1.9023   -5.2481   -3.4154 C   0  0  0  0  0  0  0  0  0  0  0  0
    1.4905   -6.5568   -4.0696 C   0  0  0  0  0  0  0  0  0  0  0  0
    2.8900   -2.6401   -2.8323 C   0  0  0  0  0  0  0  0  0  0  0  0
    4.5376    0.2037   -1.0106 C   0  0  0  0  0  0  0  0  0  0  0  0
    5.7864   -0.0392   -1.5616 C   0  0  0  0  0  0  0  0  0  0  0  0
    6.8153    0.8632   -1.3464 C   0  0  0  0  0  0  0  0  0  0  0  0
    6.6131    1.9957   -0.5856 C   0  0  0  0  0  0  0  0  0  0  0  0
    5.3657    2.2359   -0.0069 C   0  0  0  0  0  0  0  0  0  0  0  0
    5.2641    3.3630    0.7467 O   0  0  0  0  0  0  0  0  0  0  0  0
    4.0442    3.6752    1.3908 C   0  0  0  0  0  0  0  0  0  0  0  0
    2.9972    4.2697    0.4519 C   0  0  0  0  0  0  0  0  0  0  0  0
    4.3376    1.3259   -0.2181 C   0  0  0  0  0  0  0  0  0  0  0  0
    3.6194   -1.8589   -0.1512 C   0  0  0  0  0  0  0  0  0  0  0  0
    4.5632   -2.8354    0.1476 C   0  0  0  0  0  0  0  0  0  0  0  0
    5.9858   -3.4485   -0.5984 S   0  0  0  0  0  0  0  0  0  0  0  0
   -1.0587    3.1756   -2.4873 S   0  0  0  0  0  0  0  0  0  0  0  0
   -2.5446    3.7301   -1.7587 C   0  0  0  0  0  0  0  0  0  0  0  0
   -3.5139    4.6430   -2.1262 C   0  0  0  0  0  0  0  0  0  0  0  0
   -4.5479    4.7273   -1.1906 C   0  0  0  0  0  0  0  0  0  0  0  0
   -4.2852    3.6465    0.1729 S   0  0  0  0  0  0  0  0  0  0  0  0
   -2.8145    3.0961   -0.5273 C   0  0  0  0  0  0  0  0  0  0  0  0
   -5.6463    5.5805   -1.3755 C   0  0  0  0  0  0  0  0  0  0  0  0
   -6.7539    5.7874   -0.5949 C   0  0  0  0  0  0  0  0  0  0  0  0
   -7.0424    5.1358    0.6874 C   0  0  0  0  0  0  0  0  0  0  0  0
   -6.3494    4.3301    1.2876 O   0  0  0  0  0  0  0  0  0  0  0  0
   -8.3514    5.6418    1.1269 C   0  0  0  0  0  0  0  0  0  0  0  0
   -9.0387    5.2889    2.2866 C   0  0  0  0  0  0  0  0  0  0  0  0
  -10.2558    5.9110    2.4250 C   0  0  0  0  0  0  0  0  0  0  0  0
  -10.7503    6.8216    1.4816 C   0  0  0  0  0  0  0  0  0  0  0  0
  -10.0786    7.1841    0.3381 C   0  0  0  0  0  0  0  0  0  0  0  0
   -8.8386    6.5589    0.1742 C   0  0  0  0  0  0  0  0  0  0  0  0
   -7.8558    6.6805   -0.9022 C   0  0  0  0  0  0  0  0  0  0  0  0
   -7.9788    7.5016   -1.9934 C   0  0  0  0  0  0  0  0  0  0  0  0
   -7.0411    7.6393   -3.0384 C   0  0  0  0  0  0  0  0  0  0  0  0
   -6.3395    7.8189   -3.9306 N   0  0  0  0  0  0  0  0  0  0  0  0
   -9.0795    8.3503   -2.2365 C   0  0  0  0  0  0  0  0  0  0  0  0
   -9.9366    9.0650   -2.5067 N   0  0  0  0  0  0  0  0  0  0  0  0
  -12.0290    7.0460    2.2494 C   0  0  0  0  0  0  0  0  0  0  0  0
  -13.2880    6.3323    1.7129 C   0  0  0  0  0  0  0  0  0  0  0  0
  -14.2345    6.3343    2.8917 C   0  0  0  0  0  0  0  0  0  0  0  0
  -13.7668    5.4730    3.7861 C   0  0  0  0  0  0  0  0  0  0  0  0
  -12.4964    4.8741    3.2269 C   0  0  0  0  0  0  0  0  0  0  0  0
  -12.8456    4.8634    1.7330 C   0  0  0  0  0  0  0  0  0  0  0  0
  -11.4775    6.0313    3.3019 C   0  0  0  0  0  0  0  0  0  0  0  0
    7.5388   -5.9270    1.6744 H   0  0  0  0  0  0  0  0  0  0  0  0
   11.9399   -7.4056   -0.8993 H   0  0  0  0  0  0  0  0  0  0  0  0
    8.7787   -5.7811   -4.5126 H   0  0  0  0  0  0  0  0  0  0  0  0
   11.5025   -7.3301   -5.9059 H   0  0  0  0  0  0  0  0  0  0  0  0
   11.8053   -4.6969   -6.1648 H   0  0  0  0  0  0  0  0  0  0  0  0
   13.8213   -5.8865   -7.3576 H   0  0  0  0  0  0  0  0  0  0  0  0
   15.4995   -6.7462   -5.4861 H   0  0  0  0  0  0  0  0  0  0  0  0
   14.5172   -6.0855   -3.1407 H   0  0  0  0  0  0  0  0  0  0  0  0
   12.3365   -4.5652   -3.5338 H   0  0  0  0  0  0  0  0  0  0  0  0
   13.7100   -3.9526   -4.4833 H   0  0  0  0  0  0  0  0  0  0  0  0
   13.1494   -8.1740   -4.0733 H   0  0  0  0  0  0  0  0  0  0  0  0
    5.1219   -5.1718    2.5017 H   0  0  0  0  0  0  0  0  0  0  0  0
    0.1647   -0.8413    2.0178 H   0  0  0  0  0  0  0  0  0  0  0  0
   -3.3955    0.2440   -0.7627 H   0  0  0  0  0  0  0  0  0  0  0  0
   -5.0741   -1.4877   -0.3010 H   0  0  0  0  0  0  0  0  0  0  0  0
   -5.2359   -2.5254    1.9010 H   0  0  0  0  0  0  0  0  0  0  0  0
   -4.3985   -3.7632    3.7148 H   0  0  0  0  0  0  0  0  0  0  0  0
   -5.5528   -2.4999    4.2257 H   0  0  0  0  0  0  0  0  0  0  0  0
   -4.9805   -4.0147    6.1216 H   0  0  0  0  0  0  0  0  0  0  0  0
   -4.4146   -2.3661    6.4384 H   0  0  0  0  0  0  0  0  0  0  0  0
   -3.2670   -3.6074    5.9334 H   0  0  0  0  0  0  0  0  0  0  0  0
   -1.9935   -0.1036    3.2671 H   0  0  0  0  0  0  0  0  0  0  0  0
    0.8212    2.1695    2.1101 H   0  0  0  0  0  0  0  0  0  0  0  0
    1.0299    3.7238    4.0076 H   0  0  0  0  0  0  0  0  0  0  0  0
   -0.9937    4.5873    5.1366 H   0  0  0  0  0  0  0  0  0  0  0  0
   -5.3309    4.4357    4.7353 H   0  0  0  0  0  0  0  0  0  0  0  0
   -4.8977    3.7529    3.1566 H   0  0  0  0  0  0  0  0  0  0  0  0
   -6.1055    2.0772    4.5320 H   0  0  0  0  0  0  0  0  0  0  0  0
   -4.4404    1.5312    4.3076 H   0  0  0  0  0  0  0  0  0  0  0  0
   -4.9248    2.2605    5.8392 H   0  0  0  0  0  0  0  0  0  0  0  0
   -3.4240    2.3534    2.4249 H   0  0  0  0  0  0  0  0  0  0  0  0
    1.6319    1.1582   -2.3444 H   0  0  0  0  0  0  0  0  0  0  0  0
    3.9342    0.5020   -3.5296 H   0  0  0  0  0  0  0  0  0  0  0  0
    3.7315   -0.3710   -5.8234 H   0  0  0  0  0  0  0  0  0  0  0  0
    2.9949   -2.7048   -6.2023 H   0  0  0  0  0  0  0  0  0  0  0  0
    2.7085   -5.4312   -2.6938 H   0  0  0  0  0  0  0  0  0  0  0  0
    1.0504   -4.7980   -2.8857 H   0  0  0  0  0  0  0  0  0  0  0  0
    1.1593   -7.2581   -3.3094 H   0  0  0  0  0  0  0  0  0  0  0  0
    2.3372   -6.9811   -4.6019 H   0  0  0  0  0  0  0  0  0  0  0  0
    0.6846   -6.3850   -4.7781 H   0  0  0  0  0  0  0  0  0  0  0  0
    2.6522   -3.2647   -1.9853 H   0  0  0  0  0  0  0  0  0  0  0  0
    5.9498   -0.9213   -2.1620 H   0  0  0  0  0  0  0  0  0  0  0  0
    7.7865    0.6776   -1.7797 H   0  0  0  0  0  0  0  0  0  0  0  0
    7.4052    2.7072   -0.4157 H   0  0  0  0  0  0  0  0  0  0  0  0
    3.6466    2.7932    1.9094 H   0  0  0  0  0  0  0  0  0  0  0  0
    4.3224    4.4176    2.1444 H   0  0  0  0  0  0  0  0  0  0  0  0
    2.1088    4.5340    1.0200 H   0  0  0  0  0  0  0  0  0  0  0  0
    2.7174    3.5644   -0.3270 H   0  0  0  0  0  0  0  0  0  0  0  0
    3.3940    5.1636   -0.0223 H   0  0  0  0  0  0  0  0  0  0  0  0
    3.3707    1.4802    0.2311 H   0  0  0  0  0  0  0  0  0  0  0  0
   -3.4979    5.2309   -3.0263 H   0  0  0  0  0  0  0  0  0  0  0  0
   -5.5870    6.1459   -2.2975 H   0  0  0  0  0  0  0  0  0  0  0  0
   -8.6170    4.5851    2.9872 H   0  0  0  0  0  0  0  0  0  0  0  0
  -10.4738    7.8897   -0.3729 H   0  0  0  0  0  0  0  0  0  0  0  0
  -12.2215    8.0701    2.5629 H   0  0  0  0  0  0  0  0  0  0  0  0
  -13.6711    6.7281    0.7764 H   0  0  0  0  0  0  0  0  0  0  0  0
  -15.0880    6.9812    2.9745 H   0  0  0  0  0  0  0  0  0  0  0  0
  -14.1515    5.2568    4.7655 H   0  0  0  0  0  0  0  0  0  0  0  0
  -12.1593    3.9407    3.6697 H   0  0  0  0  0  0  0  0  0  0  0  0
  -13.6657    4.1839    1.5071 H   0  0  0  0  0  0  0  0  0  0  0  0
  -12.0018    4.6446    1.0812 H   0  0  0  0  0  0  0  0  0  0  0  0
  -11.3015    6.3788    4.3181 H   0  0  0  0  0  0  0  0  0  0  0  0
  1  2  2  0  0  0  0
  2  3  1  0  0  0  0
  3  4  2  0  0  0  0
  3  5  1  0  0  0  0
  5  6  2  0  0  0  0
  6  7  1  0  0  0  0
  7  8  2  0  0  0  0
  8  9  1  0  0  0  0
  9 10  2  0  0  0  0
 10 11  1  0  0  0  0
 11 12  2  0  0  0  0
 12 13  1  0  0  0  0
 13 14  3  0  0  0  0
 12 15  1  0  0  0  0
 15 16  3  0  0  0  0
  8 17  1  0  0  0  0
 17 18  1  0  0  0  0
 18 19  1  0  0  0  0
 19 20  2  0  0  0  0
 20 21  1  0  0  0  0
 21 22  1  0  0  0  0
 21 23  1  0  0  0  0
  1 24  1  0  0  0  0
 24 25  2  0  0  0  0
 25 26  1  0  0  0  0
 26 27  1  0  0  0  0
 27 28  1  0  0  0  0
 28 29  1  0  0  0  0
 29 30  2  0  0  0  0
 30 31  1  0  0  0  0
 31 32  1  0  0  0  0
 32 33  1  0  0  0  0
 33 34  2  0  0  0  0
 34 35  1  0  0  0  0
 35 36  2  0  0  0  0
 36 37  1  0  0  0  0
 37 38  1  0  0  0  0
 38 39  1  0  0  0  0
 39 40  1  0  0  0  0
 37 41  2  0  0  0  0
 32 42  1  0  0  0  0
 42 43  2  0  0  0  0
 43 44  1  0  0  0  0
 44 45  2  0  0  0  0
 45 46  1  0  0  0  0
 46 47  1  0  0  0  0
 47 48  1  0  0  0  0
 48 49  1  0  0  0  0
 46 50  2  0  0  0  0
 32 51  1  0  0  0  0
 51 52  2  0  0  0  0
 52 53  1  0  0  0  0
 53 54  1  0  0  0  0
 54 55  2  0  0  0  0
 55 56  1  0  0  0  0
 56 57  1  0  0  0  0
 57 58  2  0  0  0  0
 58 59  1  0  0  0  0
 59 60  2  0  0  0  0
 60 61  1  0  0  0  0
 61 62  1  0  0  0  0
 62 63  1  0  0  0  0
 63 64  1  0  0  0  0
 61 65  2  0  0  0  0
 56 66  1  0  0  0  0
 66 67  2  0  0  0  0
 67 68  1  0  0  0  0
 68 69  2  0  0  0  0
 69 70  1  0  0  0  0
 70 71  1  0  0  0  0
 71 72  1  0  0  0  0
 72 73  1  0  0  0  0
 70 74  2  0  0  0  0
 56 75  1  0  0  0  0
 75 76  1  0  0  0  0
 76 77  1  0  0  0  0
 52 78  1  0  0  0  0
 78 79  1  0  0  0  0
 79 80  1  0  0  0  0
 80 81  2  0  0  0  0
 81 82  1  0  0  0  0
 82 83  1  0  0  0  0
 81 84  1  0  0  0  0
 84 85  2  0  0  0  0
 85 86  1  0  0  0  0
 86 87  2  0  0  0  0
 86 88  1  0  0  0  0
 88 89  2  0  0  0  0
 89 90  1  0  0  0  0
 90 91  2  0  0  0  0
 91 92  1  0  0  0  0
 92 93  2  0  0  0  0
 93 94  1  0  0  0  0
 94 95  2  0  0  0  0
 95 96  1  0  0  0  0
 96 97  3  0  0  0  0
 95 98  1  0  0  0  0
 98 99  3  0  0  0  0
 91100  1  0  0  0  0
100101  1  0  0  0  0
101102  1  0  0  0  0
102103  2  0  0  0  0
103104  1  0  0  0  0
104105  1  0  0  0  0
104106  1  0  0  0  0
 11  2  1  0  0  0  0
 23 17  1  0  0  0  0
 77 24  1  0  0  0  0
 83 79  2  0  0  0  0
 94 85  1  0  0  0  0
106100  1  0  0  0  0
 10  5  1  0  0  0  0
 22 18  1  0  0  0  0
 76 26  2  0  0  0  0
 93 88  1  0  0  0  0
105101  1  0  0  0  0
 23  7  1  0  0  0  0
 75 28  2  0  0  0  0
106 90  1  0  0  0  0
 55 29  1  0  0  0  0
 65 57  1  0  0  0  0
 74 66  1  0  0  0  0
 53 31  2  0  0  0  0
 41 33  1  0  0  0  0
 50 42  1  0  0  0  0
 83 51  1  0  0  0  0
  1107  1  0  0  0  0
  6108  1  0  0  0  0
  9109  1  0  0  0  0
 17110  1  0  0  0  0
 18111  1  0  0  0  0
 19112  1  0  0  0  0
 20113  1  0  0  0  0
 21114  1  0  0  0  0
 22115  1  0  0  0  0
 22116  1  0  0  0  0
 23117  1  0  0  0  0
 25118  1  0  0  0  0
 30119  1  0  0  0  0
 34120  1  0  0  0  0
 35121  1  0  0  0  0
 36122  1  0  0  0  0
 39123  1  0  0  0  0
 39124  1  0  0  0  0
 40125  1  0  0  0  0
 40126  1  0  0  0  0
 40127  1  0  0  0  0
 41128  1  0  0  0  0
 43129  1  0  0  0  0
 44130  1  0  0  0  0
 45131  1  0  0  0  0
 48132  1  0  0  0  0
 48133  1  0  0  0  0
 49134  1  0  0  0  0
 49135  1  0  0  0  0
 49136  1  0  0  0  0
 50137  1  0  0  0  0
 54138  1  0  0  0  0
 58139  1  0  0  0  0
 59140  1  0  0  0  0
 60141  1  0  0  0  0
 63142  1  0  0  0  0
 63143  1  0  0  0  0
 64144  1  0  0  0  0
 64145  1  0  0  0  0
 64146  1  0  0  0  0
 65147  1  0  0  0  0
 67148  1  0  0  0  0
 68149  1  0  0  0  0
 69150  1  0  0  0  0
 72151  1  0  0  0  0
 72152  1  0  0  0  0
 73153  1  0  0  0  0
 73154  1  0  0  0  0
 73155  1  0  0  0  0
 74156  1  0  0  0  0
 80157  1  0  0  0  0
 84158  1  0  0  0  0
 89159  1  0  0  0  0
 92160  1  0  0  0  0
100161  1  0  0  0  0
101162  1  0  0  0  0
102163  1  0  0  0  0
103164  1  0  0  0  0
104165  1  0  0  0  0
105166  1  0  0  0  0
105167  1  0  0  0  0
106168  1  0  0  0  0
M  END
