
  xtb     02102219593D
 energy: -244.267455559275 gnorm: 0.000950799378 xtb: 6.4.1 (unknown)
126144  0     0  0            999 V2000
    7.6406   -3.7137    2.2707 C   0  0  0  0  0  0  0  0  0  0  0  0
    8.8442   -3.1193    2.0373 C   0  0  0  0  0  0  0  0  0  0  0  0
    9.1018   -1.9912    1.1057 C   0  0  0  0  0  0  0  0  0  0  0  0
    8.4313   -1.6156    0.1688 O   0  0  0  0  0  0  0  0  0  0  0  0
   10.3432   -1.3597    1.5939 C   0  0  0  0  0  0  0  0  0  0  0  0
   10.9122   -0.1776    1.1254 C   0  0  0  0  0  0  0  0  0  0  0  0
   12.0571    0.1927    1.7880 C   0  0  0  0  0  0  0  0  0  0  0  0
   12.5987   -0.5556    2.8426 C   0  0  0  0  0  0  0  0  0  0  0  0
   12.0489   -1.7238    3.3139 C   0  0  0  0  0  0  0  0  0  0  0  0
   10.8834   -2.1192    2.6509 C   0  0  0  0  0  0  0  0  0  0  0  0
   10.0187   -3.2707    2.8792 C   0  0  0  0  0  0  0  0  0  0  0  0
   10.2963   -4.3461    3.6795 C   0  0  0  0  0  0  0  0  0  0  0  0
   11.4674   -4.4783    4.4540 C   0  0  0  0  0  0  0  0  0  0  0  0
   12.3956   -4.6397    5.1102 N   0  0  0  0  0  0  0  0  0  0  0  0
    9.4759   -5.4900    3.7851 C   0  0  0  0  0  0  0  0  0  0  0  0
    8.8691   -6.4575    3.9037 N   0  0  0  0  0  0  0  0  0  0  0  0
   13.7438    0.4053    3.0410 C   0  0  0  0  0  0  0  0  0  0  0  0
   15.1327   -0.0047    2.4924 C   0  0  0  0  0  0  0  0  0  0  0  0
   14.8781   -0.9461    1.3413 C   0  0  0  0  0  0  0  0  0  0  0  0
   14.3671   -0.2371    0.3437 C   0  0  0  0  0  0  0  0  0  0  0  0
   14.2653    1.1965    0.8028 C   0  0  0  0  0  0  0  0  0  0  0  0
   15.4950    1.2748    1.7215 C   0  0  0  0  0  0  0  0  0  0  0  0
   13.1405    1.2387    1.8666 C   0  0  0  0  0  0  0  0  0  0  0  0
    6.4498   -3.5820    1.5148 C   0  0  0  0  0  0  0  0  0  0  0  0
    4.9243   -3.7375    2.3815 S   0  0  0  0  0  0  0  0  0  0  0  0
    4.0321   -3.3777    0.9479 C   0  0  0  0  0  0  0  0  0  0  0  0
    2.6498   -3.1787    0.8531 C   0  0  0  0  0  0  0  0  0  0  0  0
    1.5352   -3.2207    2.2050 S   0  0  0  0  0  0  0  0  0  0  0  0
    0.2571   -2.7349    1.1559 C   0  0  0  0  0  0  0  0  0  0  0  0
   -1.1065   -2.3945    1.2221 C   0  0  0  0  0  0  0  0  0  0  0  0
   -2.0791   -2.4431    2.2470 C   0  0  0  0  0  0  0  0  0  0  0  0
   -3.4368   -2.0624    1.9480 C   0  0  0  0  0  0  0  0  0  0  0  0
   -4.2417   -2.2182    2.9864 N   0  0  0  0  0  0  0  0  0  0  0  0
   -3.3773   -2.7840    4.2318 S   0  0  0  0  0  0  0  0  0  0  0  0
   -1.9374   -2.8543    3.4968 N   0  0  0  0  0  0  0  0  0  0  0  0
   -3.7355   -1.5125    0.6796 C   0  0  0  0  0  0  0  0  0  0  0  0
   -4.8658   -0.8632    0.1522 C   0  0  0  0  0  0  0  0  0  0  0  0
   -6.4727   -0.4579    0.6182 S   0  0  0  0  0  0  0  0  0  0  0  0
   -6.6786    0.4210   -0.8843 C   0  0  0  0  0  0  0  0  0  0  0  0
   -7.8281    1.1361   -1.2358 C   0  0  0  0  0  0  0  0  0  0  0  0
   -7.9264    1.8211   -2.4698 C   0  0  0  0  0  0  0  0  0  0  0  0
   -6.8140    1.7398   -3.3471 C   0  0  0  0  0  0  0  0  0  0  0  0
   -6.6139    2.2370   -4.5678 N   0  0  0  0  0  0  0  0  0  0  0  0
   -5.4110    1.8399   -4.8893 N   0  0  0  0  0  0  0  0  0  0  0  0
   -4.7956    2.2091   -6.1311 C   0  0  0  0  0  0  0  0  0  0  0  0
   -3.8206    3.3640   -5.9224 C   0  0  0  0  0  0  0  0  0  0  0  0
   -4.7775    1.1218   -3.9936 N   0  0  0  0  0  0  0  0  0  0  0  0
   -5.6374    1.0278   -2.9751 C   0  0  0  0  0  0  0  0  0  0  0  0
   -5.5434    0.3728   -1.7203 C   0  0  0  0  0  0  0  0  0  0  0  0
   -4.5097   -0.3529   -1.1028 C   0  0  0  0  0  0  0  0  0  0  0  0
   -3.2028   -0.6729   -1.3849 N   0  0  0  0  0  0  0  0  0  0  0  0
   -2.7272   -1.4021   -0.3113 C   0  0  0  0  0  0  0  0  0  0  0  0
   -1.4654   -1.9898   -0.0887 C   0  0  0  0  0  0  0  0  0  0  0  0
   -0.3914   -2.1597   -0.9421 N   0  0  0  0  0  0  0  0  0  0  0  0
    0.6648   -2.5856   -0.1733 C   0  0  0  0  0  0  0  0  0  0  0  0
    2.0372   -2.8346   -0.3680 C   0  0  0  0  0  0  0  0  0  0  0  0
    2.8738   -2.7306   -1.5060 C   0  0  0  0  0  0  0  0  0  0  0  0
    4.2818   -2.9320   -1.4041 C   0  0  0  0  0  0  0  0  0  0  0  0
    4.8898   -3.2282   -0.1596 C   0  0  0  0  0  0  0  0  0  0  0  0
    6.2456   -3.3383    0.1764 C   0  0  0  0  0  0  0  0  0  0  0  0
    4.8007   -2.7569   -2.6200 N   0  0  0  0  0  0  0  0  0  0  0  0
    3.7739   -2.4736   -3.3756 N   0  0  0  0  0  0  0  0  0  0  0  0
    3.9241   -2.1710   -4.7696 C   0  0  0  0  0  0  0  0  0  0  0  0
    4.3329   -0.7131   -4.9588 C   0  0  0  0  0  0  0  0  0  0  0  0
    2.6057   -2.4343   -2.7824 N   0  0  0  0  0  0  0  0  0  0  0  0
   -0.4914   -2.5419   -2.3378 C   0  0  0  0  0  0  0  0  0  0  0  0
   -0.4658   -4.0633   -2.4844 C   0  0  0  0  0  0  0  0  0  0  0  0
   -2.4040    0.2100   -2.2128 C   0  0  0  0  0  0  0  0  0  0  0  0
   -2.2722    1.5874   -1.5619 C   0  0  0  0  0  0  0  0  0  0  0  0
   -9.1341    2.4934   -2.6023 C   0  0  0  0  0  0  0  0  0  0  0  0
   -9.9721    2.3566   -1.4984 C   0  0  0  0  0  0  0  0  0  0  0  0
   -9.2413    1.3421   -0.2646 S   0  0  0  0  0  0  0  0  0  0  0  0
  -11.2107    3.0117   -1.4279 C   0  0  0  0  0  0  0  0  0  0  0  0
  -12.1615    3.0209   -0.4392 C   0  0  0  0  0  0  0  0  0  0  0  0
  -12.1203    2.2432    0.8016 C   0  0  0  0  0  0  0  0  0  0  0  0
  -11.2161    1.5448    1.2123 O   0  0  0  0  0  0  0  0  0  0  0  0
  -13.4351    2.4482    1.4511 C   0  0  0  0  0  0  0  0  0  0  0  0
  -13.9313    1.8540    2.5977 C   0  0  0  0  0  0  0  0  0  0  0  0
  -12.9584    0.8467    3.5720 Cl  0  0  0  0  0  0  0  0  0  0  0  0
  -15.2702    2.0945    2.9397 C   0  0  0  0  0  0  0  0  0  0  0  0
  -15.9202    1.4145    4.3666 Cl  0  0  0  0  0  0  0  0  0  0  0  0
  -16.0825    2.8481    2.0944 C   0  0  0  0  0  0  0  0  0  0  0  0
  -17.7382    3.0395    2.4784 Cl  0  0  0  0  0  0  0  0  0  0  0  0
  -15.5730    3.4406    0.9269 C   0  0  0  0  0  0  0  0  0  0  0  0
  -16.6761    4.1934   -0.1490 Cl  0  0  0  0  0  0  0  0  0  0  0  0
  -14.2195    3.3006    0.6472 C   0  0  0  0  0  0  0  0  0  0  0  0
  -13.3791    3.8117   -0.4344 C   0  0  0  0  0  0  0  0  0  0  0  0
  -13.5921    4.9582   -1.1553 C   0  0  0  0  0  0  0  0  0  0  0  0
  -12.7561    5.4242   -2.1939 C   0  0  0  0  0  0  0  0  0  0  0  0
  -12.1484    5.8709   -3.0600 N   0  0  0  0  0  0  0  0  0  0  0  0
  -14.5640    5.9431   -0.8735 C   0  0  0  0  0  0  0  0  0  0  0  0
  -15.2339    6.8517   -0.6662 N   0  0  0  0  0  0  0  0  0  0  0  0
    7.5320   -4.2855    3.1857 H   0  0  0  0  0  0  0  0  0  0  0  0
   10.4591    0.3717    0.3149 H   0  0  0  0  0  0  0  0  0  0  0  0
   12.4676   -2.2839    4.1336 H   0  0  0  0  0  0  0  0  0  0  0  0
   13.8070    0.8755    4.0203 H   0  0  0  0  0  0  0  0  0  0  0  0
   15.8323   -0.3498    3.2487 H   0  0  0  0  0  0  0  0  0  0  0  0
   15.0371   -2.0073    1.3899 H   0  0  0  0  0  0  0  0  0  0  0  0
   14.0134   -0.5875   -0.6083 H   0  0  0  0  0  0  0  0  0  0  0  0
   14.1756    1.9465    0.0212 H   0  0  0  0  0  0  0  0  0  0  0  0
   16.4338    1.1869    1.1770 H   0  0  0  0  0  0  0  0  0  0  0  0
   15.5138    2.1670    2.3460 H   0  0  0  0  0  0  0  0  0  0  0  0
   12.8080    2.2530    2.0796 H   0  0  0  0  0  0  0  0  0  0  0  0
   -4.2694    1.3347   -6.5216 H   0  0  0  0  0  0  0  0  0  0  0  0
   -5.5979    2.4972   -6.8117 H   0  0  0  0  0  0  0  0  0  0  0  0
   -4.3455    4.2347   -5.5373 H   0  0  0  0  0  0  0  0  0  0  0  0
   -3.0480    3.0769   -5.2132 H   0  0  0  0  0  0  0  0  0  0  0  0
   -3.3522    3.6273   -6.8662 H   0  0  0  0  0  0  0  0  0  0  0  0
    7.0348   -3.2465   -0.5444 H   0  0  0  0  0  0  0  0  0  0  0  0
    4.6929   -2.8334   -5.1724 H   0  0  0  0  0  0  0  0  0  0  0  0
    2.9655   -2.3718   -5.2518 H   0  0  0  0  0  0  0  0  0  0  0  0
    4.4593   -0.4986   -6.0160 H   0  0  0  0  0  0  0  0  0  0  0  0
    3.5712   -0.0506   -4.5545 H   0  0  0  0  0  0  0  0  0  0  0  0
    5.2722   -0.5228   -4.4460 H   0  0  0  0  0  0  0  0  0  0  0  0
    0.3574   -2.1121   -2.8762 H   0  0  0  0  0  0  0  0  0  0  0  0
   -1.4316   -2.1717   -2.7438 H   0  0  0  0  0  0  0  0  0  0  0  0
   -1.2676   -4.5145   -1.9033 H   0  0  0  0  0  0  0  0  0  0  0  0
    0.4836   -4.4647   -2.1413 H   0  0  0  0  0  0  0  0  0  0  0  0
   -0.5977   -4.3312   -3.5289 H   0  0  0  0  0  0  0  0  0  0  0  0
   -2.9019    0.3073   -3.1810 H   0  0  0  0  0  0  0  0  0  0  0  0
   -1.4084   -0.2076   -2.3401 H   0  0  0  0  0  0  0  0  0  0  0  0
   -3.2448    2.0627   -1.4659 H   0  0  0  0  0  0  0  0  0  0  0  0
   -1.6350    2.2213   -2.1723 H   0  0  0  0  0  0  0  0  0  0  0  0
   -1.8293    1.4976   -0.5719 H   0  0  0  0  0  0  0  0  0  0  0  0
   -9.3945    3.0793   -3.4656 H   0  0  0  0  0  0  0  0  0  0  0  0
  -11.4295    3.5927   -2.3158 H   0  0  0  0  0  0  0  0  0  0  0  0
  1  2  2  0  0  0  0
  2  3  1  0  0  0  0
  3  4  2  0  0  0  0
  3  5  1  0  0  0  0
  5  6  2  0  0  0  0
  6  7  1  0  0  0  0
  7  8  2  0  0  0  0
  8  9  1  0  0  0  0
  9 10  2  0  0  0  0
 10 11  1  0  0  0  0
 11 12  2  0  0  0  0
 12 13  1  0  0  0  0
 13 14  3  0  0  0  0
 12 15  1  0  0  0  0
 15 16  3  0  0  0  0
  8 17  1  0  0  0  0
 17 18  1  0  0  0  0
 18 19  1  0  0  0  0
 19 20  2  0  0  0  0
 20 21  1  0  0  0  0
 21 22  1  0  0  0  0
 21 23  1  0  0  0  0
  1 24  1  0  0  0  0
 24 25  1  0  0  0  0
 25 26  1  0  0  0  0
 26 27  1  0  0  0  0
 27 28  1  0  0  0  0
 28 29  1  0  0  0  0
 29 30  1  0  0  0  0
 30 31  1  0  0  0  0
 31 32  1  0  0  0  0
 32 33  2  0  0  0  0
 33 34  1  0  0  0  0
 34 35  1  0  0  0  0
 32 36  1  0  0  0  0
 36 37  1  0  0  0  0
 37 38  1  0  0  0  0
 38 39  1  0  0  0  0
 39 40  1  0  0  0  0
 40 41  2  0  0  0  0
 41 42  1  0  0  0  0
 42 43  2  0  0  0  0
 43 44  1  0  0  0  0
 44 45  1  0  0  0  0
 45 46  1  0  0  0  0
 44 47  1  0  0  0  0
 47 48  2  0  0  0  0
 48 49  1  0  0  0  0
 49 50  1  0  0  0  0
 50 51  1  0  0  0  0
 51 52  1  0  0  0  0
 52 53  1  0  0  0  0
 53 54  1  0  0  0  0
 54 55  1  0  0  0  0
 55 56  1  0  0  0  0
 56 57  1  0  0  0  0
 57 58  1  0  0  0  0
 58 59  1  0  0  0  0
 59 60  1  0  0  0  0
 58 61  2  0  0  0  0
 61 62  1  0  0  0  0
 62 63  1  0  0  0  0
 63 64  1  0  0  0  0
 62 65  1  0  0  0  0
 54 66  1  0  0  0  0
 66 67  1  0  0  0  0
 51 68  1  0  0  0  0
 68 69  1  0  0  0  0
 41 70  1  0  0  0  0
 70 71  2  0  0  0  0
 71 72  1  0  0  0  0
 71 73  1  0  0  0  0
 73 74  2  0  0  0  0
 74 75  1  0  0  0  0
 75 76  2  0  0  0  0
 75 77  1  0  0  0  0
 77 78  2  0  0  0  0
 78 79  1  0  0  0  0
 78 80  1  0  0  0  0
 80 81  1  0  0  0  0
 80 82  2  0  0  0  0
 82 83  1  0  0  0  0
 82 84  1  0  0  0  0
 84 85  1  0  0  0  0
 84 86  2  0  0  0  0
 86 87  1  0  0  0  0
 87 88  2  0  0  0  0
 88 89  1  0  0  0  0
 89 90  3  0  0  0  0
 88 91  1  0  0  0  0
 91 92  3  0  0  0  0
 11  2  1  0  0  0  0
 23 17  1  0  0  0  0
 60 24  2  0  0  0  0
 87 74  1  0  0  0  0
 10  5  1  0  0  0  0
 22 18  1  0  0  0  0
 59 26  2  0  0  0  0
 86 77  1  0  0  0  0
 23  7  1  0  0  0  0
 56 27  2  0  0  0  0
 65 57  2  0  0  0  0
 55 29  2  0  0  0  0
 53 30  2  0  0  0  0
 35 31  2  0  0  0  0
 52 36  2  0  0  0  0
 50 37  2  0  0  0  0
 49 39  2  0  0  0  0
 72 40  1  0  0  0  0
 48 42  1  0  0  0  0
  1 93  1  0  0  0  0
  6 94  1  0  0  0  0
  9 95  1  0  0  0  0
 17 96  1  0  0  0  0
 18 97  1  0  0  0  0
 19 98  1  0  0  0  0
 20 99  1  0  0  0  0
 21100  1  0  0  0  0
 22101  1  0  0  0  0
 22102  1  0  0  0  0
 23103  1  0  0  0  0
 45104  1  0  0  0  0
 45105  1  0  0  0  0
 46106  1  0  0  0  0
 46107  1  0  0  0  0
 46108  1  0  0  0  0
 60109  1  0  0  0  0
 63110  1  0  0  0  0
 63111  1  0  0  0  0
 64112  1  0  0  0  0
 64113  1  0  0  0  0
 64114  1  0  0  0  0
 66115  1  0  0  0  0
 66116  1  0  0  0  0
 67117  1  0  0  0  0
 67118  1  0  0  0  0
 67119  1  0  0  0  0
 68120  1  0  0  0  0
 68121  1  0  0  0  0
 69122  1  0  0  0  0
 69123  1  0  0  0  0
 69124  1  0  0  0  0
 70125  1  0  0  0  0
 73126  1  0  0  0  0
M  END
