
  xtb     02112205133D
 energy: -269.019766916677 gnorm: 0.000415636258 xtb: 6.4.1 (unknown)
157175  0     0  0            999 V2000
   -3.6771    5.3687    5.0076 C   0  0  0  0  0  0  0  0  0  0  0  0
   -5.0450    5.3985    4.9455 C   0  0  0  0  0  0  0  0  0  0  0  0
   -5.8968    4.4449    4.2225 C   0  0  0  0  0  0  0  0  0  0  0  0
   -5.5571    3.4066    3.6823 O   0  0  0  0  0  0  0  0  0  0  0  0
   -7.2622    4.9926    4.2699 C   0  0  0  0  0  0  0  0  0  0  0  0
   -8.3979    4.4648    3.6590 C   0  0  0  0  0  0  0  0  0  0  0  0
   -9.5342    5.2127    3.8524 C   0  0  0  0  0  0  0  0  0  0  0  0
   -9.5401    6.4004    4.5962 C   0  0  0  0  0  0  0  0  0  0  0  0
   -8.4275    6.9303    5.2056 C   0  0  0  0  0  0  0  0  0  0  0  0
   -7.2598    6.1824    5.0256 C   0  0  0  0  0  0  0  0  0  0  0  0
   -5.9000    6.4298    5.5025 C   0  0  0  0  0  0  0  0  0  0  0  0
   -5.5299    7.4414    6.3509 C   0  0  0  0  0  0  0  0  0  0  0  0
   -4.2286    7.6646    6.8476 C   0  0  0  0  0  0  0  0  0  0  0  0
   -3.2046    7.9146    7.3048 N   0  0  0  0  0  0  0  0  0  0  0  0
   -6.4150    8.4047    6.8790 C   0  0  0  0  0  0  0  0  0  0  0  0
   -7.0730    9.2204    7.3484 N   0  0  0  0  0  0  0  0  0  0  0  0
  -11.0142    6.6281    4.3715 C   0  0  0  0  0  0  0  0  0  0  0  0
  -11.9517    6.2917    5.5502 C   0  0  0  0  0  0  0  0  0  0  0  0
  -13.3098    6.1480    4.9022 C   0  0  0  0  0  0  0  0  0  0  0  0
  -13.3047    5.0222    4.1999 C   0  0  0  0  0  0  0  0  0  0  0  0
  -11.9429    4.3860    4.3614 C   0  0  0  0  0  0  0  0  0  0  0  0
  -11.6202    4.8146    5.7986 C   0  0  0  0  0  0  0  0  0  0  0  0
  -11.0080    5.3026    3.5441 C   0  0  0  0  0  0  0  0  0  0  0  0
   -2.7615    4.4598    4.4532 C   0  0  0  0  0  0  0  0  0  0  0  0
   -1.3831    4.6755    4.5234 C   0  0  0  0  0  0  0  0  0  0  0  0
   -0.6649    3.6912    3.8750 C   0  0  0  0  0  0  0  0  0  0  0  0
    1.0301    3.4435    3.5506 S   0  0  0  0  0  0  0  0  0  0  0  0
    0.6324    2.0106    2.6571 C   0  0  0  0  0  0  0  0  0  0  0  0
    1.3499    1.0473    1.8880 C   0  0  0  0  0  0  0  0  0  0  0  0
    0.4144    0.1224    1.4044 C   0  0  0  0  0  0  0  0  0  0  0  0
   -0.9857    0.4536    1.8815 C   0  0  0  0  0  0  0  0  0  0  0  0
   -1.9085    0.6040    0.6885 C   0  0  0  0  0  0  0  0  0  0  0  0
   -2.5402   -0.5135    0.1574 C   0  0  0  0  0  0  0  0  0  0  0  0
   -3.3692   -0.3931   -0.9410 C   0  0  0  0  0  0  0  0  0  0  0  0
   -3.5863    0.8414   -1.5392 C   0  0  0  0  0  0  0  0  0  0  0  0
   -4.5408    0.9801   -2.6896 C   0  0  0  0  0  0  0  0  0  0  0  0
   -5.9536    1.2609   -2.1734 C   0  0  0  0  0  0  0  0  0  0  0  0
   -2.9408    1.9518   -1.0130 C   0  0  0  0  0  0  0  0  0  0  0  0
   -2.1059    1.8363    0.0830 C   0  0  0  0  0  0  0  0  0  0  0  0
   -1.5420   -0.5438    2.8862 C   0  0  0  0  0  0  0  0  0  0  0  0
   -2.8752   -0.4383    3.2648 C   0  0  0  0  0  0  0  0  0  0  0  0
   -3.4053   -1.2999    4.2048 C   0  0  0  0  0  0  0  0  0  0  0  0
   -2.6217   -2.2862    4.7911 C   0  0  0  0  0  0  0  0  0  0  0  0
   -3.1898   -3.1967    5.8412 C   0  0  0  0  0  0  0  0  0  0  0  0
   -3.0102   -2.5852    7.2322 C   0  0  0  0  0  0  0  0  0  0  0  0
   -1.2881   -2.3769    4.4179 C   0  0  0  0  0  0  0  0  0  0  0  0
   -0.7492   -1.5146    3.4795 C   0  0  0  0  0  0  0  0  0  0  0  0
   -0.7274    1.7304    2.6310 C   0  0  0  0  0  0  0  0  0  0  0  0
   -1.4770    2.6807    3.3173 C   0  0  0  0  0  0  0  0  0  0  0  0
   -3.1518    2.9809    3.5826 S   0  0  0  0  0  0  0  0  0  0  0  0
    0.8082   -0.9181    0.5872 C   0  0  0  0  0  0  0  0  0  0  0  0
    2.1430   -1.0365    0.2239 C   0  0  0  0  0  0  0  0  0  0  0  0
    2.6076   -2.1303   -0.5618 C   0  0  0  0  0  0  0  0  0  0  0  0
    3.9174   -2.2685   -0.9755 C   0  0  0  0  0  0  0  0  0  0  0  0
    4.9296   -1.1712   -0.7833 C   0  0  0  0  0  0  0  0  0  0  0  0
    4.4703   -0.1720    0.2658 C   0  0  0  0  0  0  0  0  0  0  0  0
    3.1193   -0.0950    0.6762 C   0  0  0  0  0  0  0  0  0  0  0  0
    2.7222    0.9511    1.5529 C   0  0  0  0  0  0  0  0  0  0  0  0
    3.6799    1.8578    2.0361 C   0  0  0  0  0  0  0  0  0  0  0  0
    4.9887    1.7407    1.6536 C   0  0  0  0  0  0  0  0  0  0  0  0
    5.3765    0.7382    0.7620 C   0  0  0  0  0  0  0  0  0  0  0  0
    4.9894   -0.4828   -2.1513 C   0  0  0  0  0  0  0  0  0  0  0  0
    5.7138   -1.0489   -3.1941 C   0  0  0  0  0  0  0  0  0  0  0  0
    5.7207   -0.4690   -4.4480 C   0  0  0  0  0  0  0  0  0  0  0  0
    5.0009    0.6907   -4.7033 C   0  0  0  0  0  0  0  0  0  0  0  0
    4.9749    1.2953   -6.0769 C   0  0  0  0  0  0  0  0  0  0  0  0
    3.8394    0.6899   -6.9045 C   0  0  0  0  0  0  0  0  0  0  0  0
    4.2655    1.2448   -3.6652 C   0  0  0  0  0  0  0  0  0  0  0  0
    4.2538    0.6668   -2.4087 C   0  0  0  0  0  0  0  0  0  0  0  0
    6.2588   -1.7609   -0.3415 C   0  0  0  0  0  0  0  0  0  0  0  0
    7.4788   -1.2539   -0.7697 C   0  0  0  0  0  0  0  0  0  0  0  0
    8.6647   -1.8014   -0.3170 C   0  0  0  0  0  0  0  0  0  0  0  0
    8.6687   -2.8613    0.5795 C   0  0  0  0  0  0  0  0  0  0  0  0
    9.9609   -3.4271    1.0926 C   0  0  0  0  0  0  0  0  0  0  0  0
   10.4413   -2.6406    2.3140 C   0  0  0  0  0  0  0  0  0  0  0  0
    7.4482   -3.3455    1.0298 C   0  0  0  0  0  0  0  0  0  0  0  0
    6.2608   -2.8005    0.5806 C   0  0  0  0  0  0  0  0  0  0  0  0
    4.1101   -3.4863   -1.6400 C   0  0  0  0  0  0  0  0  0  0  0  0
    2.9439   -4.2688   -1.7385 C   0  0  0  0  0  0  0  0  0  0  0  0
    1.5882   -3.4824   -1.0034 S   0  0  0  0  0  0  0  0  0  0  0  0
    3.1122   -5.4852   -2.3792 C   0  0  0  0  0  0  0  0  0  0  0  0
    4.4269   -5.6774   -2.7830 C   0  0  0  0  0  0  0  0  0  0  0  0
    5.4486   -4.3004   -2.3451 S   0  0  0  0  0  0  0  0  0  0  0  0
    5.0653   -6.7068   -3.4925 C   0  0  0  0  0  0  0  0  0  0  0  0
    4.6205   -7.9304   -3.9228 C   0  0  0  0  0  0  0  0  0  0  0  0
    3.3454   -8.6106   -3.6316 C   0  0  0  0  0  0  0  0  0  0  0  0
    2.3385   -8.1599   -3.1315 O   0  0  0  0  0  0  0  0  0  0  0  0
    3.5457  -10.0197   -4.0552 C   0  0  0  0  0  0  0  0  0  0  0  0
    2.7004  -11.1007   -3.8764 C   0  0  0  0  0  0  0  0  0  0  0  0
    1.1346  -10.9130   -3.2254 Cl  0  0  0  0  0  0  0  0  0  0  0  0
    3.1666  -12.3733   -4.2368 C   0  0  0  0  0  0  0  0  0  0  0  0
    2.1470  -13.7347   -4.0648 Cl  0  0  0  0  0  0  0  0  0  0  0  0
    4.4734  -12.5370   -4.6933 C   0  0  0  0  0  0  0  0  0  0  0  0
    5.0518  -14.1109   -5.0304 Cl  0  0  0  0  0  0  0  0  0  0  0  0
    5.3279  -11.4364   -4.8678 C   0  0  0  0  0  0  0  0  0  0  0  0
    6.9707  -11.7317   -5.2620 Cl  0  0  0  0  0  0  0  0  0  0  0  0
    4.8310  -10.1650   -4.6132 C   0  0  0  0  0  0  0  0  0  0  0  0
    5.4232   -8.8358   -4.7307 C   0  0  0  0  0  0  0  0  0  0  0  0
    6.3884   -8.4525   -5.6235 C   0  0  0  0  0  0  0  0  0  0  0  0
    6.8781   -7.1331   -5.7557 C   0  0  0  0  0  0  0  0  0  0  0  0
    7.3300   -6.0927   -5.9331 N   0  0  0  0  0  0  0  0  0  0  0  0
    6.9052   -9.2481   -6.6697 C   0  0  0  0  0  0  0  0  0  0  0  0
    7.3114   -9.7722   -7.6062 N   0  0  0  0  0  0  0  0  0  0  0  0
   -3.1941    6.1868    5.5285 H   0  0  0  0  0  0  0  0  0  0  0  0
   -8.3451    3.5517    3.0870 H   0  0  0  0  0  0  0  0  0  0  0  0
   -8.4492    7.8497    5.7660 H   0  0  0  0  0  0  0  0  0  0  0  0
  -11.2791    7.5557    3.8679 H   0  0  0  0  0  0  0  0  0  0  0  0
  -11.8813    6.9708    6.3953 H   0  0  0  0  0  0  0  0  0  0  0  0
  -14.0894    6.8835    4.9737 H   0  0  0  0  0  0  0  0  0  0  0  0
  -14.0791    4.6294    3.5676 H   0  0  0  0  0  0  0  0  0  0  0  0
  -11.8656    3.3284    4.1239 H   0  0  0  0  0  0  0  0  0  0  0  0
  -10.5883    4.6349    6.0944 H   0  0  0  0  0  0  0  0  0  0  0  0
  -12.2916    4.3588    6.5244 H   0  0  0  0  0  0  0  0  0  0  0  0
  -11.2705    5.3458    2.4886 H   0  0  0  0  0  0  0  0  0  0  0  0
   -0.9535    5.5276    5.0191 H   0  0  0  0  0  0  0  0  0  0  0  0
   -2.3960   -1.4809    0.6166 H   0  0  0  0  0  0  0  0  0  0  0  0
   -3.8571   -1.2718   -1.3383 H   0  0  0  0  0  0  0  0  0  0  0  0
   -4.5486    0.0608   -3.2787 H   0  0  0  0  0  0  0  0  0  0  0  0
   -4.2248    1.7996   -3.3383 H   0  0  0  0  0  0  0  0  0  0  0  0
   -6.2918    0.4460   -1.5373 H   0  0  0  0  0  0  0  0  0  0  0  0
   -5.9665    2.1776   -1.5882 H   0  0  0  0  0  0  0  0  0  0  0  0
   -6.6488    1.3669   -3.0030 H   0  0  0  0  0  0  0  0  0  0  0  0
   -3.0923    2.9213   -1.4660 H   0  0  0  0  0  0  0  0  0  0  0  0
   -1.6104    2.7149    0.4699 H   0  0  0  0  0  0  0  0  0  0  0  0
   -3.5016    0.3192    2.8169 H   0  0  0  0  0  0  0  0  0  0  0  0
   -4.4442   -1.2048    4.4853 H   0  0  0  0  0  0  0  0  0  0  0  0
   -4.2532   -3.3585    5.6545 H   0  0  0  0  0  0  0  0  0  0  0  0
   -2.6848   -4.1642    5.8056 H   0  0  0  0  0  0  0  0  0  0  0  0
   -3.5166   -1.6243    7.2906 H   0  0  0  0  0  0  0  0  0  0  0  0
   -1.9547   -2.4283    7.4432 H   0  0  0  0  0  0  0  0  0  0  0  0
   -3.4229   -3.2429    7.9937 H   0  0  0  0  0  0  0  0  0  0  0  0
   -0.6591   -3.1335    4.8651 H   0  0  0  0  0  0  0  0  0  0  0  0
    0.2928   -1.6054    3.2097 H   0  0  0  0  0  0  0  0  0  0  0  0
    0.0904   -1.6391    0.2251 H   0  0  0  0  0  0  0  0  0  0  0  0
    3.3690    2.6438    2.7071 H   0  0  0  0  0  0  0  0  0  0  0  0
    5.7293    2.4320    2.0260 H   0  0  0  0  0  0  0  0  0  0  0  0
    6.4085    0.6857    0.4519 H   0  0  0  0  0  0  0  0  0  0  0  0
    6.2888   -1.9469   -3.0281 H   0  0  0  0  0  0  0  0  0  0  0  0
    6.2966   -0.9272   -5.2389 H   0  0  0  0  0  0  0  0  0  0  0  0
    4.8307    2.3752   -6.0034 H   0  0  0  0  0  0  0  0  0  0  0  0
    5.9252    1.1097   -6.5810 H   0  0  0  0  0  0  0  0  0  0  0  0
    3.9740   -0.3850   -7.0016 H   0  0  0  0  0  0  0  0  0  0  0  0
    2.8811    0.8724   -6.4230 H   0  0  0  0  0  0  0  0  0  0  0  0
    3.8181    1.1287   -7.8992 H   0  0  0  0  0  0  0  0  0  0  0  0
    3.6907    2.1436   -3.8380 H   0  0  0  0  0  0  0  0  0  0  0  0
    3.6656    1.1256   -1.6283 H   0  0  0  0  0  0  0  0  0  0  0  0
    7.5080   -0.4296   -1.4674 H   0  0  0  0  0  0  0  0  0  0  0  0
    9.6034   -1.3986   -0.6699 H   0  0  0  0  0  0  0  0  0  0  0  0
    9.8228   -4.4739    1.3699 H   0  0  0  0  0  0  0  0  0  0  0  0
   10.7220   -3.3778    0.3113 H   0  0  0  0  0  0  0  0  0  0  0  0
   10.5988   -1.5963    2.0538 H   0  0  0  0  0  0  0  0  0  0  0  0
    9.7001   -2.6864    3.1088 H   0  0  0  0  0  0  0  0  0  0  0  0
   11.3769   -3.0506    2.6868 H   0  0  0  0  0  0  0  0  0  0  0  0
    7.4255   -4.1600    1.7398 H   0  0  0  0  0  0  0  0  0  0  0  0
    5.3226   -3.1879    0.9534 H   0  0  0  0  0  0  0  0  0  0  0  0
    2.3350   -6.2063   -2.5501 H   0  0  0  0  0  0  0  0  0  0  0  0
    6.1045   -6.4854   -3.7090 H   0  0  0  0  0  0  0  0  0  0  0  0
  1  2  2  0  0  0  0
  2  3  1  0  0  0  0
  3  4  2  0  0  0  0
  3  5  1  0  0  0  0
  5  6  2  0  0  0  0
  6  7  1  0  0  0  0
  7  8  2  0  0  0  0
  8  9  1  0  0  0  0
  9 10  2  0  0  0  0
 10 11  1  0  0  0  0
 11 12  2  0  0  0  0
 12 13  1  0  0  0  0
 13 14  3  0  0  0  0
 12 15  1  0  0  0  0
 15 16  3  0  0  0  0
  8 17  1  0  0  0  0
 17 18  1  0  0  0  0
 18 19  1  0  0  0  0
 19 20  2  0  0  0  0
 20 21  1  0  0  0  0
 21 22  1  0  0  0  0
 21 23  1  0  0  0  0
  1 24  1  0  0  0  0
 24 25  2  0  0  0  0
 25 26  1  0  0  0  0
 26 27  1  0  0  0  0
 27 28  1  0  0  0  0
 28 29  1  0  0  0  0
 29 30  2  0  0  0  0
 30 31  1  0  0  0  0
 31 32  1  0  0  0  0
 32 33  2  0  0  0  0
 33 34  1  0  0  0  0
 34 35  2  0  0  0  0
 35 36  1  0  0  0  0
 36 37  1  0  0  0  0
 35 38  1  0  0  0  0
 38 39  2  0  0  0  0
 31 40  1  0  0  0  0
 40 41  2  0  0  0  0
 41 42  1  0  0  0  0
 42 43  2  0  0  0  0
 43 44  1  0  0  0  0
 44 45  1  0  0  0  0
 43 46  1  0  0  0  0
 46 47  2  0  0  0  0
 31 48  1  0  0  0  0
 48 49  1  0  0  0  0
 49 50  1  0  0  0  0
 30 51  1  0  0  0  0
 51 52  2  0  0  0  0
 52 53  1  0  0  0  0
 53 54  2  0  0  0  0
 54 55  1  0  0  0  0
 55 56  1  0  0  0  0
 56 57  1  0  0  0  0
 57 58  2  0  0  0  0
 58 59  1  0  0  0  0
 59 60  2  0  0  0  0
 60 61  1  0  0  0  0
 55 62  1  0  0  0  0
 62 63  2  0  0  0  0
 63 64  1  0  0  0  0
 64 65  2  0  0  0  0
 65 66  1  0  0  0  0
 66 67  1  0  0  0  0
 65 68  1  0  0  0  0
 68 69  2  0  0  0  0
 55 70  1  0  0  0  0
 70 71  2  0  0  0  0
 71 72  1  0  0  0  0
 72 73  2  0  0  0  0
 73 74  1  0  0  0  0
 74 75  1  0  0  0  0
 73 76  1  0  0  0  0
 76 77  2  0  0  0  0
 54 78  1  0  0  0  0
 78 79  2  0  0  0  0
 79 80  1  0  0  0  0
 79 81  1  0  0  0  0
 81 82  2  0  0  0  0
 82 83  1  0  0  0  0
 82 84  1  0  0  0  0
 84 85  2  0  0  0  0
 85 86  1  0  0  0  0
 86 87  2  0  0  0  0
 86 88  1  0  0  0  0
 88 89  2  0  0  0  0
 89 90  1  0  0  0  0
 89 91  1  0  0  0  0
 91 92  1  0  0  0  0
 91 93  2  0  0  0  0
 93 94  1  0  0  0  0
 93 95  1  0  0  0  0
 95 96  1  0  0  0  0
 95 97  2  0  0  0  0
 97 98  1  0  0  0  0
 98 99  2  0  0  0  0
 99100  1  0  0  0  0
100101  3  0  0  0  0
 99102  1  0  0  0  0
102103  3  0  0  0  0
 11  2  1  0  0  0  0
 23 17  1  0  0  0  0
 50 24  1  0  0  0  0
 57 52  1  0  0  0  0
 69 62  1  0  0  0  0
 77 70  1  0  0  0  0
 83 78  1  0  0  0  0
 98 85  1  0  0  0  0
 10  5  1  0  0  0  0
 22 18  1  0  0  0  0
 49 26  2  0  0  0  0
 80 53  1  0  0  0  0
 97 88  1  0  0  0  0
 23  7  1  0  0  0  0
 48 28  2  0  0  0  0
 61 56  2  0  0  0  0
 58 29  1  0  0  0  0
 39 32  1  0  0  0  0
 47 40  1  0  0  0  0
  1104  1  0  0  0  0
  6105  1  0  0  0  0
  9106  1  0  0  0  0
 17107  1  0  0  0  0
 18108  1  0  0  0  0
 19109  1  0  0  0  0
 20110  1  0  0  0  0
 21111  1  0  0  0  0
 22112  1  0  0  0  0
 22113  1  0  0  0  0
 23114  1  0  0  0  0
 25115  1  0  0  0  0
 33116  1  0  0  0  0
 34117  1  0  0  0  0
 36118  1  0  0  0  0
 36119  1  0  0  0  0
 37120  1  0  0  0  0
 37121  1  0  0  0  0
 37122  1  0  0  0  0
 38123  1  0  0  0  0
 39124  1  0  0  0  0
 41125  1  0  0  0  0
 42126  1  0  0  0  0
 44127  1  0  0  0  0
 44128  1  0  0  0  0
 45129  1  0  0  0  0
 45130  1  0  0  0  0
 45131  1  0  0  0  0
 46132  1  0  0  0  0
 47133  1  0  0  0  0
 51134  1  0  0  0  0
 59135  1  0  0  0  0
 60136  1  0  0  0  0
 61137  1  0  0  0  0
 63138  1  0  0  0  0
 64139  1  0  0  0  0
 66140  1  0  0  0  0
 66141  1  0  0  0  0
 67142  1  0  0  0  0
 67143  1  0  0  0  0
 67144  1  0  0  0  0
 68145  1  0  0  0  0
 69146  1  0  0  0  0
 71147  1  0  0  0  0
 72148  1  0  0  0  0
 74149  1  0  0  0  0
 74150  1  0  0  0  0
 75151  1  0  0  0  0
 75152  1  0  0  0  0
 75153  1  0  0  0  0
 76154  1  0  0  0  0
 77155  1  0  0  0  0
 81156  1  0  0  0  0
 84157  1  0  0  0  0
M  END
