
  xtb     02012218533D
 energy: -267.113795310898 gnorm: 0.000475199244 xtb: 6.4.1 (unknown)
155172  0     0  0            999 V2000
    4.6196   -0.8995    5.3883 C   0  0  0  0  0  0  0  0  0  0  0  0
    4.9396   -0.2220    6.5313 C   0  0  0  0  0  0  0  0  0  0  0  0
    4.2165    0.8976    7.1803 C   0  0  0  0  0  0  0  0  0  0  0  0
    3.3348    1.5989    6.7279 O   0  0  0  0  0  0  0  0  0  0  0  0
    4.7766    1.0003    8.5405 C   0  0  0  0  0  0  0  0  0  0  0  0
    4.3426    1.8521    9.5549 C   0  0  0  0  0  0  0  0  0  0  0  0
    5.0375    1.7180   10.7324 C   0  0  0  0  0  0  0  0  0  0  0  0
    6.0854    0.8007   10.8929 C   0  0  0  0  0  0  0  0  0  0  0  0
    6.5248   -0.0427    9.9008 C   0  0  0  0  0  0  0  0  0  0  0  0
    5.8344    0.0828    8.6908 C   0  0  0  0  0  0  0  0  0  0  0  0
    6.0126   -0.6252    7.4277 C   0  0  0  0  0  0  0  0  0  0  0  0
    7.0639   -1.4496    7.1234 C   0  0  0  0  0  0  0  0  0  0  0  0
    7.3063   -2.0439    5.8660 C   0  0  0  0  0  0  0  0  0  0  0  0
    7.5957   -2.5448    4.8738 N   0  0  0  0  0  0  0  0  0  0  0  0
    8.1020   -1.7785    8.0206 C   0  0  0  0  0  0  0  0  0  0  0  0
    8.9772   -2.0905    8.6951 N   0  0  0  0  0  0  0  0  0  0  0  0
    6.3275    1.2060   12.3252 C   0  0  0  0  0  0  0  0  0  0  0  0
    7.5454    2.1179   12.5846 C   0  0  0  0  0  0  0  0  0  0  0  0
    7.2586    2.7272   13.9380 C   0  0  0  0  0  0  0  0  0  0  0  0
    6.2671    3.5961   13.7873 C   0  0  0  0  0  0  0  0  0  0  0  0
    5.8673    3.5890   12.3294 C   0  0  0  0  0  0  0  0  0  0  0  0
    7.2322    3.3190   11.6830 C   0  0  0  0  0  0  0  0  0  0  0  0
    5.1603    2.2293   12.1462 C   0  0  0  0  0  0  0  0  0  0  0  0
    3.6371   -0.6564    4.4073 C   0  0  0  0  0  0  0  0  0  0  0  0
    2.8020    0.4225    4.1691 C   0  0  0  0  0  0  0  0  0  0  0  0
    2.0009    0.2204    3.0537 C   0  0  0  0  0  0  0  0  0  0  0  0
    0.7860    1.1875    2.2671 S   0  0  0  0  0  0  0  0  0  0  0  0
    0.5602   -0.0761    1.1079 C   0  0  0  0  0  0  0  0  0  0  0  0
   -0.2781   -0.2682   -0.0349 C   0  0  0  0  0  0  0  0  0  0  0  0
   -1.1886    0.5801   -0.6583 C   0  0  0  0  0  0  0  0  0  0  0  0
   -1.8308    0.0980   -1.7756 C   0  0  0  0  0  0  0  0  0  0  0  0
   -2.7507    0.8555   -2.7177 C   0  0  0  0  0  0  0  0  0  0  0  0
   -4.0566    1.3325   -2.1230 C   0  0  0  0  0  0  0  0  0  0  0  0
   -4.8899    2.1530   -2.8791 C   0  0  0  0  0  0  0  0  0  0  0  0
   -6.1128    2.5425   -2.3726 C   0  0  0  0  0  0  0  0  0  0  0  0
   -6.5315    2.1279   -1.1185 C   0  0  0  0  0  0  0  0  0  0  0  0
   -5.7092    1.3019   -0.3612 C   0  0  0  0  0  0  0  0  0  0  0  0
   -6.0038    0.8218    0.8746 O   0  0  0  0  0  0  0  0  0  0  0  0
   -7.2303    1.1871    1.4781 C   0  0  0  0  0  0  0  0  0  0  0  0
   -7.2857    0.5301    2.8482 C   0  0  0  0  0  0  0  0  0  0  0  0
   -4.4737    0.9048   -0.8775 C   0  0  0  0  0  0  0  0  0  0  0  0
   -1.8708    1.9649   -3.2844 C   0  0  0  0  0  0  0  0  0  0  0  0
   -2.0298    3.2924   -2.9282 C   0  0  0  0  0  0  0  0  0  0  0  0
   -1.1311    4.2377   -3.4014 C   0  0  0  0  0  0  0  0  0  0  0  0
   -0.0558    3.8654   -4.1779 C   0  0  0  0  0  0  0  0  0  0  0  0
    0.1377    2.5213   -4.5054 C   0  0  0  0  0  0  0  0  0  0  0  0
    1.2475    2.2383   -5.2383 O   0  0  0  0  0  0  0  0  0  0  0  0
    1.6391    0.8923   -5.4254 C   0  0  0  0  0  0  0  0  0  0  0  0
    2.1842    0.2446   -4.1544 C   0  0  0  0  0  0  0  0  0  0  0  0
   -0.7908    1.5849   -4.0740 C   0  0  0  0  0  0  0  0  0  0  0  0
   -3.0510   -0.2115   -3.7393 C   0  0  0  0  0  0  0  0  0  0  0  0
   -2.3656   -1.3792   -3.4367 C   0  0  0  0  0  0  0  0  0  0  0  0
   -1.5739   -1.2062   -2.2595 C   0  0  0  0  0  0  0  0  0  0  0  0
   -0.6497   -2.0484   -1.6467 C   0  0  0  0  0  0  0  0  0  0  0  0
   -0.0040   -1.5640   -0.5340 C   0  0  0  0  0  0  0  0  0  0  0  0
    1.0871   -2.2413    0.2765 C   0  0  0  0  0  0  0  0  0  0  0  0
    0.6410   -3.4950    1.0043 C   0  0  0  0  0  0  0  0  0  0  0  0
    1.5909   -4.3217    1.5854 C   0  0  0  0  0  0  0  0  0  0  0  0
    1.1831   -5.4406    2.2921 C   0  0  0  0  0  0  0  0  0  0  0  0
   -0.1568   -5.7422    2.4177 C   0  0  0  0  0  0  0  0  0  0  0  0
   -1.1200   -4.9117    1.8423 C   0  0  0  0  0  0  0  0  0  0  0  0
   -2.4131   -5.2859    2.0331 O   0  0  0  0  0  0  0  0  0  0  0  0
   -3.4572   -4.5619    1.4131 C   0  0  0  0  0  0  0  0  0  0  0  0
   -3.5750   -4.8490   -0.0815 C   0  0  0  0  0  0  0  0  0  0  0  0
   -0.7097   -3.7798    1.1472 C   0  0  0  0  0  0  0  0  0  0  0  0
    2.2448   -2.4875   -0.6756 C   0  0  0  0  0  0  0  0  0  0  0  0
    2.3459   -3.6918   -1.3638 C   0  0  0  0  0  0  0  0  0  0  0  0
    3.3611   -3.8708   -2.2824 C   0  0  0  0  0  0  0  0  0  0  0  0
    4.2761   -2.8648   -2.5458 C   0  0  0  0  0  0  0  0  0  0  0  0
    4.1709   -1.6521   -1.8738 C   0  0  0  0  0  0  0  0  0  0  0  0
    4.9860   -0.5828   -2.0530 O   0  0  0  0  0  0  0  0  0  0  0  0
    6.0462   -0.6741   -2.9856 C   0  0  0  0  0  0  0  0  0  0  0  0
    6.7816    0.6566   -2.9797 C   0  0  0  0  0  0  0  0  0  0  0  0
    3.1488   -1.4760   -0.9402 C   0  0  0  0  0  0  0  0  0  0  0  0
    1.3723   -1.1811    1.3050 C   0  0  0  0  0  0  0  0  0  0  0  0
    2.2002   -1.0202    2.4125 C   0  0  0  0  0  0  0  0  0  0  0  0
    3.4178   -1.9349    3.2030 S   0  0  0  0  0  0  0  0  0  0  0  0
   -2.6434   -2.6795   -4.5415 S   0  0  0  0  0  0  0  0  0  0  0  0
   -3.7171   -1.6494   -5.4476 C   0  0  0  0  0  0  0  0  0  0  0  0
   -4.4757   -1.8471   -6.5880 C   0  0  0  0  0  0  0  0  0  0  0  0
   -5.1894   -0.7088   -6.9412 C   0  0  0  0  0  0  0  0  0  0  0  0
   -4.8877    0.6237   -5.8100 S   0  0  0  0  0  0  0  0  0  0  0  0
   -3.8254   -0.3559   -4.8860 C   0  0  0  0  0  0  0  0  0  0  0  0
   -6.0908   -0.4229   -7.9779 C   0  0  0  0  0  0  0  0  0  0  0  0
   -6.5719   -1.1773   -9.0198 C   0  0  0  0  0  0  0  0  0  0  0  0
   -6.2205   -2.5638   -9.3861 C   0  0  0  0  0  0  0  0  0  0  0  0
   -5.4659   -3.3309   -8.8266 O   0  0  0  0  0  0  0  0  0  0  0  0
   -6.9887   -2.8585  -10.6172 C   0  0  0  0  0  0  0  0  0  0  0  0
   -7.7644   -1.7408  -10.9706 C   0  0  0  0  0  0  0  0  0  0  0  0
   -8.5695   -1.7869  -12.0981 C   0  0  0  0  0  0  0  0  0  0  0  0
   -8.5882   -2.9490  -12.8549 C   0  0  0  0  0  0  0  0  0  0  0  0
   -7.8221   -4.0489  -12.5015 C   0  0  0  0  0  0  0  0  0  0  0  0
   -7.8928   -5.6028  -13.5741 Br  0  0  0  0  0  0  0  0  0  0  0  0
   -7.0021   -4.0233  -11.3680 C   0  0  0  0  0  0  0  0  0  0  0  0
   -6.0558   -5.3805  -10.9313 Cl  0  0  0  0  0  0  0  0  0  0  0  0
   -7.5369   -0.6841   -9.9857 C   0  0  0  0  0  0  0  0  0  0  0  0
   -8.1660    0.5349   -9.9994 C   0  0  0  0  0  0  0  0  0  0  0  0
   -9.0975    0.9365  -10.9811 C   0  0  0  0  0  0  0  0  0  0  0  0
   -9.8605    1.3349  -11.7407 N   0  0  0  0  0  0  0  0  0  0  0  0
   -8.0156    1.5755   -9.0573 C   0  0  0  0  0  0  0  0  0  0  0  0
   -7.9762    2.4784   -8.3478 N   0  0  0  0  0  0  0  0  0  0  0  0
    5.1855   -1.8048    5.1981 H   0  0  0  0  0  0  0  0  0  0  0  0
    3.5264    2.5380    9.3903 H   0  0  0  0  0  0  0  0  0  0  0  0
    7.3248   -0.7498   10.0429 H   0  0  0  0  0  0  0  0  0  0  0  0
    6.2205    0.4170   13.0671 H   0  0  0  0  0  0  0  0  0  0  0  0
    8.5102    1.6344   12.4589 H   0  0  0  0  0  0  0  0  0  0  0  0
    7.7524    2.4326   14.8452 H   0  0  0  0  0  0  0  0  0  0  0  0
    5.7670    4.1722   14.5437 H   0  0  0  0  0  0  0  0  0  0  0  0
    5.3040    4.4470   11.9723 H   0  0  0  0  0  0  0  0  0  0  0  0
    7.9296    4.1408   11.8358 H   0  0  0  0  0  0  0  0  0  0  0  0
    7.1815    3.0772   10.6229 H   0  0  0  0  0  0  0  0  0  0  0  0
    4.2737    2.1228   12.7686 H   0  0  0  0  0  0  0  0  0  0  0  0
    2.7868    1.2993    4.7892 H   0  0  0  0  0  0  0  0  0  0  0  0
   -1.3676    1.5776   -0.2878 H   0  0  0  0  0  0  0  0  0  0  0  0
   -4.5746    2.4904   -3.8545 H   0  0  0  0  0  0  0  0  0  0  0  0
   -6.7562    3.1790   -2.9610 H   0  0  0  0  0  0  0  0  0  0  0  0
   -7.4921    2.4498   -0.7497 H   0  0  0  0  0  0  0  0  0  0  0  0
   -8.0713    0.8450    0.8589 H   0  0  0  0  0  0  0  0  0  0  0  0
   -7.2894    2.2796    1.5791 H   0  0  0  0  0  0  0  0  0  0  0  0
   -6.4517    0.8693    3.4563 H   0  0  0  0  0  0  0  0  0  0  0  0
   -7.2224   -0.5498    2.7452 H   0  0  0  0  0  0  0  0  0  0  0  0
   -8.2173    0.7877    3.3435 H   0  0  0  0  0  0  0  0  0  0  0  0
   -3.8598    0.2568   -0.2721 H   0  0  0  0  0  0  0  0  0  0  0  0
   -2.8424    3.5944   -2.2867 H   0  0  0  0  0  0  0  0  0  0  0  0
   -1.2664    5.2764   -3.1402 H   0  0  0  0  0  0  0  0  0  0  0  0
    0.6600    4.5897   -4.5320 H   0  0  0  0  0  0  0  0  0  0  0  0
    2.4274    0.9481   -6.1811 H   0  0  0  0  0  0  0  0  0  0  0  0
    0.8121    0.3007   -5.8388 H   0  0  0  0  0  0  0  0  0  0  0  0
    1.4279    0.2041   -3.3735 H   0  0  0  0  0  0  0  0  0  0  0  0
    2.5104   -0.7696   -4.3703 H   0  0  0  0  0  0  0  0  0  0  0  0
    3.0292    0.8149   -3.7777 H   0  0  0  0  0  0  0  0  0  0  0  0
   -0.6762    0.5431   -4.3288 H   0  0  0  0  0  0  0  0  0  0  0  0
   -0.4412   -3.0299   -2.0442 H   0  0  0  0  0  0  0  0  0  0  0  0
    2.6409   -4.0960    1.4783 H   0  0  0  0  0  0  0  0  0  0  0  0
    1.9213   -6.0843    2.7457 H   0  0  0  0  0  0  0  0  0  0  0  0
   -0.4881   -6.6131    2.9602 H   0  0  0  0  0  0  0  0  0  0  0  0
   -4.3604   -4.9038    1.9261 H   0  0  0  0  0  0  0  0  0  0  0  0
   -3.3460   -3.4855    1.5960 H   0  0  0  0  0  0  0  0  0  0  0  0
   -3.7152   -5.9150   -0.2413 H   0  0  0  0  0  0  0  0  0  0  0  0
   -2.6794   -4.5369   -0.6131 H   0  0  0  0  0  0  0  0  0  0  0  0
   -4.4289   -4.3145   -0.4891 H   0  0  0  0  0  0  0  0  0  0  0  0
   -1.4317   -3.1073    0.7128 H   0  0  0  0  0  0  0  0  0  0  0  0
    1.6423   -4.4871   -1.1718 H   0  0  0  0  0  0  0  0  0  0  0  0
    3.4445   -4.8095   -2.8098 H   0  0  0  0  0  0  0  0  0  0  0  0
    5.0565   -3.0367   -3.2697 H   0  0  0  0  0  0  0  0  0  0  0  0
    6.7295   -1.4859   -2.7011 H   0  0  0  0  0  0  0  0  0  0  0  0
    5.6477   -0.8836   -3.9884 H   0  0  0  0  0  0  0  0  0  0  0  0
    7.6114    0.6235   -3.6796 H   0  0  0  0  0  0  0  0  0  0  0  0
    6.1054    1.4578   -3.2652 H   0  0  0  0  0  0  0  0  0  0  0  0
    7.1624    0.8639   -1.9835 H   0  0  0  0  0  0  0  0  0  0  0  0
    3.0877   -0.5234   -0.4378 H   0  0  0  0  0  0  0  0  0  0  0  0
   -4.5225   -2.7627   -7.1476 H   0  0  0  0  0  0  0  0  0  0  0  0
   -6.4687    0.5912   -7.9257 H   0  0  0  0  0  0  0  0  0  0  0  0
   -9.1759   -0.9505  -12.4010 H   0  0  0  0  0  0  0  0  0  0  0  0
   -9.2086   -3.0042  -13.7361 H   0  0  0  0  0  0  0  0  0  0  0  0
  1  2  2  0  0  0  0
  2  3  1  0  0  0  0
  3  4  2  0  0  0  0
  3  5  1  0  0  0  0
  5  6  2  0  0  0  0
  6  7  1  0  0  0  0
  7  8  2  0  0  0  0
  8  9  1  0  0  0  0
  9 10  2  0  0  0  0
 10 11  1  0  0  0  0
 11 12  2  0  0  0  0
 12 13  1  0  0  0  0
 13 14  3  0  0  0  0
 12 15  1  0  0  0  0
 15 16  3  0  0  0  0
  8 17  1  0  0  0  0
 17 18  1  0  0  0  0
 18 19  1  0  0  0  0
 19 20  2  0  0  0  0
 20 21  1  0  0  0  0
 21 22  1  0  0  0  0
 21 23  1  0  0  0  0
  1 24  1  0  0  0  0
 24 25  2  0  0  0  0
 25 26  1  0  0  0  0
 26 27  1  0  0  0  0
 27 28  1  0  0  0  0
 28 29  1  0  0  0  0
 29 30  2  0  0  0  0
 30 31  1  0  0  0  0
 31 32  1  0  0  0  0
 32 33  1  0  0  0  0
 33 34  2  0  0  0  0
 34 35  1  0  0  0  0
 35 36  2  0  0  0  0
 36 37  1  0  0  0  0
 37 38  1  0  0  0  0
 38 39  1  0  0  0  0
 39 40  1  0  0  0  0
 37 41  2  0  0  0  0
 32 42  1  0  0  0  0
 42 43  2  0  0  0  0
 43 44  1  0  0  0  0
 44 45  2  0  0  0  0
 45 46  1  0  0  0  0
 46 47  1  0  0  0  0
 47 48  1  0  0  0  0
 48 49  1  0  0  0  0
 46 50  2  0  0  0  0
 32 51  1  0  0  0  0
 51 52  2  0  0  0  0
 52 53  1  0  0  0  0
 53 54  1  0  0  0  0
 54 55  2  0  0  0  0
 55 56  1  0  0  0  0
 56 57  1  0  0  0  0
 57 58  2  0  0  0  0
 58 59  1  0  0  0  0
 59 60  2  0  0  0  0
 60 61  1  0  0  0  0
 61 62  1  0  0  0  0
 62 63  1  0  0  0  0
 63 64  1  0  0  0  0
 61 65  2  0  0  0  0
 56 66  1  0  0  0  0
 66 67  2  0  0  0  0
 67 68  1  0  0  0  0
 68 69  2  0  0  0  0
 69 70  1  0  0  0  0
 70 71  1  0  0  0  0
 71 72  1  0  0  0  0
 72 73  1  0  0  0  0
 70 74  2  0  0  0  0
 56 75  1  0  0  0  0
 75 76  1  0  0  0  0
 76 77  1  0  0  0  0
 52 78  1  0  0  0  0
 78 79  1  0  0  0  0
 79 80  1  0  0  0  0
 80 81  2  0  0  0  0
 81 82  1  0  0  0  0
 82 83  1  0  0  0  0
 81 84  1  0  0  0  0
 84 85  2  0  0  0  0
 85 86  1  0  0  0  0
 86 87  2  0  0  0  0
 86 88  1  0  0  0  0
 88 89  2  0  0  0  0
 89 90  1  0  0  0  0
 90 91  2  0  0  0  0
 91 92  1  0  0  0  0
 92 93  1  0  0  0  0
 92 94  2  0  0  0  0
 94 95  1  0  0  0  0
 89 96  1  0  0  0  0
 96 97  2  0  0  0  0
 97 98  1  0  0  0  0
 98 99  3  0  0  0  0
 97100  1  0  0  0  0
100101  3  0  0  0  0
 11  2  1  0  0  0  0
 23 17  1  0  0  0  0
 77 24  1  0  0  0  0
 83 79  2  0  0  0  0
 96 85  1  0  0  0  0
 10  5  1  0  0  0  0
 22 18  1  0  0  0  0
 76 26  2  0  0  0  0
 94 88  1  0  0  0  0
 23  7  1  0  0  0  0
 75 28  2  0  0  0  0
 55 29  1  0  0  0  0
 65 57  1  0  0  0  0
 74 66  1  0  0  0  0
 53 31  2  0  0  0  0
 41 33  1  0  0  0  0
 50 42  1  0  0  0  0
 83 51  1  0  0  0  0
  1102  1  0  0  0  0
  6103  1  0  0  0  0
  9104  1  0  0  0  0
 17105  1  0  0  0  0
 18106  1  0  0  0  0
 19107  1  0  0  0  0
 20108  1  0  0  0  0
 21109  1  0  0  0  0
 22110  1  0  0  0  0
 22111  1  0  0  0  0
 23112  1  0  0  0  0
 25113  1  0  0  0  0
 30114  1  0  0  0  0
 34115  1  0  0  0  0
 35116  1  0  0  0  0
 36117  1  0  0  0  0
 39118  1  0  0  0  0
 39119  1  0  0  0  0
 40120  1  0  0  0  0
 40121  1  0  0  0  0
 40122  1  0  0  0  0
 41123  1  0  0  0  0
 43124  1  0  0  0  0
 44125  1  0  0  0  0
 45126  1  0  0  0  0
 48127  1  0  0  0  0
 48128  1  0  0  0  0
 49129  1  0  0  0  0
 49130  1  0  0  0  0
 49131  1  0  0  0  0
 50132  1  0  0  0  0
 54133  1  0  0  0  0
 58134  1  0  0  0  0
 59135  1  0  0  0  0
 60136  1  0  0  0  0
 63137  1  0  0  0  0
 63138  1  0  0  0  0
 64139  1  0  0  0  0
 64140  1  0  0  0  0
 64141  1  0  0  0  0
 65142  1  0  0  0  0
 67143  1  0  0  0  0
 68144  1  0  0  0  0
 69145  1  0  0  0  0
 72146  1  0  0  0  0
 72147  1  0  0  0  0
 73148  1  0  0  0  0
 73149  1  0  0  0  0
 73150  1  0  0  0  0
 74151  1  0  0  0  0
 80152  1  0  0  0  0
 84153  1  0  0  0  0
 90154  1  0  0  0  0
 91155  1  0  0  0  0
M  END
