
  xtb     02012221203D
 energy: -232.164761365253 gnorm: 0.000837090597 xtb: 6.4.1 (unknown)
127145  0     0  0            999 V2000
   -5.8617   -7.5543    1.3848 C   0  0  0  0  0  0  0  0  0  0  0  0
   -6.2016   -8.3402    0.3180 C   0  0  0  0  0  0  0  0  0  0  0  0
   -5.8824   -8.0658   -1.0911 C   0  0  0  0  0  0  0  0  0  0  0  0
   -5.3097   -7.0923   -1.5456 O   0  0  0  0  0  0  0  0  0  0  0  0
   -6.3957   -9.2103   -1.8617 C   0  0  0  0  0  0  0  0  0  0  0  0
   -6.3009   -9.4010   -3.2387 C   0  0  0  0  0  0  0  0  0  0  0  0
   -6.8631  -10.5747   -3.6793 C   0  0  0  0  0  0  0  0  0  0  0  0
   -7.4719  -11.4932   -2.8135 C   0  0  0  0  0  0  0  0  0  0  0  0
   -7.5707  -11.3173   -1.4538 C   0  0  0  0  0  0  0  0  0  0  0  0
   -7.0083  -10.1262   -0.9829 C   0  0  0  0  0  0  0  0  0  0  0  0
   -6.9160   -9.6022    0.3790 C   0  0  0  0  0  0  0  0  0  0  0  0
   -7.4257  -10.2129    1.4963 C   0  0  0  0  0  0  0  0  0  0  0  0
   -8.1203  -11.4410    1.4913 C   0  0  0  0  0  0  0  0  0  0  0  0
   -8.6968  -12.4308    1.5730 N   0  0  0  0  0  0  0  0  0  0  0  0
   -7.3481   -9.7241    2.8172 C   0  0  0  0  0  0  0  0  0  0  0  0
   -7.3345   -9.4081    3.9219 N   0  0  0  0  0  0  0  0  0  0  0  0
   -7.8187  -12.4416   -3.9343 C   0  0  0  0  0  0  0  0  0  0  0  0
   -9.2869  -12.4407   -4.4097 C   0  0  0  0  0  0  0  0  0  0  0  0
   -9.2234  -13.0729   -5.7814 C   0  0  0  0  0  0  0  0  0  0  0  0
   -8.6487  -12.2019   -6.6009 C   0  0  0  0  0  0  0  0  0  0  0  0
   -8.3138  -10.9663   -5.7969 C   0  0  0  0  0  0  0  0  0  0  0  0
   -9.4844  -10.9717   -4.8053 C   0  0  0  0  0  0  0  0  0  0  0  0
   -7.1413  -11.4165   -4.8996 C   0  0  0  0  0  0  0  0  0  0  0  0
   -5.1454   -6.3439    1.4380 C   0  0  0  0  0  0  0  0  0  0  0  0
   -4.4868   -5.4449    0.0821 S   0  0  0  0  0  0  0  0  0  0  0  0
   -3.8252   -4.2639    1.1570 C   0  0  0  0  0  0  0  0  0  0  0  0
   -3.0643   -3.1469    0.7912 C   0  0  0  0  0  0  0  0  0  0  0  0
   -2.6773   -2.7410   -0.8661 S   0  0  0  0  0  0  0  0  0  0  0  0
   -1.7713   -1.3924   -0.3033 C   0  0  0  0  0  0  0  0  0  0  0  0
   -0.9584   -0.3834   -0.8339 C   0  0  0  0  0  0  0  0  0  0  0  0
   -0.5328   -0.1607   -2.1610 C   0  0  0  0  0  0  0  0  0  0  0  0
    0.4540    0.8478   -2.4033 C   0  0  0  0  0  0  0  0  0  0  0  0
    0.8118    0.9133   -3.6761 N   0  0  0  0  0  0  0  0  0  0  0  0
   -0.0305   -0.1979   -4.5004 S   0  0  0  0  0  0  0  0  0  0  0  0
   -0.8790   -0.8071   -3.2629 N   0  0  0  0  0  0  0  0  0  0  0  0
    0.8831    1.6467   -1.3221 C   0  0  0  0  0  0  0  0  0  0  0  0
    1.7769    2.7243   -1.2889 C   0  0  0  0  0  0  0  0  0  0  0  0
    2.8410    3.5468   -2.3605 S   0  0  0  0  0  0  0  0  0  0  0  0
    3.3230    4.5957   -1.0446 C   0  0  0  0  0  0  0  0  0  0  0  0
    4.2978    5.5935   -1.1564 C   0  0  0  0  0  0  0  0  0  0  0  0
    4.6966    6.3834   -0.0589 C   0  0  0  0  0  0  0  0  0  0  0  0
    4.0282    6.1425    1.1663 C   0  0  0  0  0  0  0  0  0  0  0  0
    4.1518    6.7245    2.3590 N   0  0  0  0  0  0  0  0  0  0  0  0
    3.2892    6.1055    3.1172 N   0  0  0  0  0  0  0  0  0  0  0  0
    3.1471    6.4151    4.5102 C   0  0  0  0  0  0  0  0  0  0  0  0
    4.1385    5.6064    5.3419 C   0  0  0  0  0  0  0  0  0  0  0  0
    2.5933    5.1521    2.5460 N   0  0  0  0  0  0  0  0  0  0  0  0
    3.0276    5.1317    1.2804 C   0  0  0  0  0  0  0  0  0  0  0  0
    2.6623    4.3237    0.1726 C   0  0  0  0  0  0  0  0  0  0  0  0
    1.7723    3.2371    0.0100 C   0  0  0  0  0  0  0  0  0  0  0  0
    0.9137    2.4994    0.7863 N   0  0  0  0  0  0  0  0  0  0  0  0
    0.3719    1.4944   -0.0023 C   0  0  0  0  0  0  0  0  0  0  0  0
   -0.4895    0.3908    0.2650 C   0  0  0  0  0  0  0  0  0  0  0  0
   -1.0005   -0.1653    1.4270 N   0  0  0  0  0  0  0  0  0  0  0  0
   -1.7684   -1.2495    1.0868 C   0  0  0  0  0  0  0  0  0  0  0  0
   -2.5193   -2.2552    1.7393 C   0  0  0  0  0  0  0  0  0  0  0  0
   -2.8120   -2.5325    3.1012 C   0  0  0  0  0  0  0  0  0  0  0  0
   -3.5972   -3.6617    3.4788 C   0  0  0  0  0  0  0  0  0  0  0  0
   -4.1105   -4.5564    2.5070 C   0  0  0  0  0  0  0  0  0  0  0  0
   -4.8562   -5.7226    2.6471 C   0  0  0  0  0  0  0  0  0  0  0  0
   -3.6982   -3.6588    4.8079 N   0  0  0  0  0  0  0  0  0  0  0  0
   -3.0270   -2.6043    5.1856 N   0  0  0  0  0  0  0  0  0  0  0  0
   -2.8517   -2.2682    6.5686 C   0  0  0  0  0  0  0  0  0  0  0  0
   -1.5114   -2.7880    7.0806 C   0  0  0  0  0  0  0  0  0  0  0  0
   -2.4763   -1.8960    4.2287 N   0  0  0  0  0  0  0  0  0  0  0  0
   -0.5785    0.0382    2.7934 C   0  0  0  0  0  0  0  0  0  0  0  0
    0.8978   -0.3080    2.9786 C   0  0  0  0  0  0  0  0  0  0  0  0
    0.4125    3.0389    2.0313 C   0  0  0  0  0  0  0  0  0  0  0  0
   -1.0529    3.4503    1.9069 C   0  0  0  0  0  0  0  0  0  0  0  0
    5.7201    7.2846   -0.3671 C   0  0  0  0  0  0  0  0  0  0  0  0
    6.1204    7.2160   -1.6855 C   0  0  0  0  0  0  0  0  0  0  0  0
    5.1842    6.0117   -2.5749 S   0  0  0  0  0  0  0  0  0  0  0  0
    7.0772    7.9363   -2.4324 C   0  0  0  0  0  0  0  0  0  0  0  0
    8.0978    8.7518   -2.0301 C   0  0  0  0  0  0  0  0  0  0  0  0
    8.6338    8.9413   -0.6551 C   0  0  0  0  0  0  0  0  0  0  0  0
    8.1362    8.6033    0.3952 O   0  0  0  0  0  0  0  0  0  0  0  0
    9.9331    9.6152   -0.8371 C   0  0  0  0  0  0  0  0  0  0  0  0
   10.8875    9.9473    0.1226 C   0  0  0  0  0  0  0  0  0  0  0  0
   10.6735    9.6555    1.4154 O   0  0  0  0  0  0  0  0  0  0  0  0
   12.0538   10.5816   -0.3171 C   0  0  0  0  0  0  0  0  0  0  0  0
   12.2512   10.8630   -1.6555 C   0  0  0  0  0  0  0  0  0  0  0  0
   11.3015   10.5343   -2.6145 C   0  0  0  0  0  0  0  0  0  0  0  0
   10.1389    9.9105   -2.1956 C   0  0  0  0  0  0  0  0  0  0  0  0
    8.9746    9.4518   -2.9496 C   0  0  0  0  0  0  0  0  0  0  0  0
    8.7284    9.7258   -4.2695 C   0  0  0  0  0  0  0  0  0  0  0  0
    7.5500    9.3884   -4.9701 C   0  0  0  0  0  0  0  0  0  0  0  0
    6.6152    9.1856   -5.6059 N   0  0  0  0  0  0  0  0  0  0  0  0
    9.6061   10.4421   -5.1100 C   0  0  0  0  0  0  0  0  0  0  0  0
   10.2762   11.0069   -5.8519 N   0  0  0  0  0  0  0  0  0  0  0  0
   -6.1628   -7.9026    2.3655 H   0  0  0  0  0  0  0  0  0  0  0  0
   -5.8166   -8.6695   -3.8664 H   0  0  0  0  0  0  0  0  0  0  0  0
   -8.0368  -12.0380   -0.8034 H   0  0  0  0  0  0  0  0  0  0  0  0
   -7.3968  -13.4418   -3.8565 H   0  0  0  0  0  0  0  0  0  0  0  0
   -9.9936  -12.8700   -3.7048 H   0  0  0  0  0  0  0  0  0  0  0  0
   -9.5416  -14.0764   -5.9948 H   0  0  0  0  0  0  0  0  0  0  0  0
   -8.3907  -12.3324   -7.6355 H   0  0  0  0  0  0  0  0  0  0  0  0
   -8.1345  -10.0521   -6.3561 H   0  0  0  0  0  0  0  0  0  0  0  0
  -10.4409  -10.8030   -5.2972 H   0  0  0  0  0  0  0  0  0  0  0  0
   -9.3707  -10.2707   -3.9805 H   0  0  0  0  0  0  0  0  0  0  0  0
   -6.2684  -11.7335   -5.4673 H   0  0  0  0  0  0  0  0  0  0  0  0
    2.1203    6.1795    4.7973 H   0  0  0  0  0  0  0  0  0  0  0  0
    3.3356    7.4837    4.6289 H   0  0  0  0  0  0  0  0  0  0  0  0
    5.1555    5.8343    5.0328 H   0  0  0  0  0  0  0  0  0  0  0  0
    3.9607    4.5416    5.2106 H   0  0  0  0  0  0  0  0  0  0  0  0
    4.0272    5.8543    6.3935 H   0  0  0  0  0  0  0  0  0  0  0  0
   -5.1723   -6.1138    3.5976 H   0  0  0  0  0  0  0  0  0  0  0  0
   -2.8975   -1.1805    6.6587 H   0  0  0  0  0  0  0  0  0  0  0  0
   -3.6769   -2.7249    7.1172 H   0  0  0  0  0  0  0  0  0  0  0  0
   -0.6968   -2.3525    6.5068 H   0  0  0  0  0  0  0  0  0  0  0  0
   -1.3868   -2.5219    8.1262 H   0  0  0  0  0  0  0  0  0  0  0  0
   -1.4680   -3.8702    6.9871 H   0  0  0  0  0  0  0  0  0  0  0  0
   -1.1853   -0.6232    3.4146 H   0  0  0  0  0  0  0  0  0  0  0  0
   -0.7957    1.0585    3.1074 H   0  0  0  0  0  0  0  0  0  0  0  0
    1.5326    0.2815    2.3209 H   0  0  0  0  0  0  0  0  0  0  0  0
    1.1938   -0.1258    4.0085 H   0  0  0  0  0  0  0  0  0  0  0  0
    1.0615   -1.3593    2.7531 H   0  0  0  0  0  0  0  0  0  0  0  0
    1.0202    3.9154    2.2621 H   0  0  0  0  0  0  0  0  0  0  0  0
    0.5621    2.3291    2.8441 H   0  0  0  0  0  0  0  0  0  0  0  0
   -1.4082    3.8435    2.8558 H   0  0  0  0  0  0  0  0  0  0  0  0
   -1.1579    4.2253    1.1510 H   0  0  0  0  0  0  0  0  0  0  0  0
   -1.6802    2.6097    1.6180 H   0  0  0  0  0  0  0  0  0  0  0  0
    6.1538    7.9533    0.3524 H   0  0  0  0  0  0  0  0  0  0  0  0
    6.9918    7.7709   -3.5009 H   0  0  0  0  0  0  0  0  0  0  0  0
   11.4174    9.9449    1.9593 H   0  0  0  0  0  0  0  0  0  0  0  0
   12.8106   10.8515    0.4078 H   0  0  0  0  0  0  0  0  0  0  0  0
   13.1651   11.3483   -1.9626 H   0  0  0  0  0  0  0  0  0  0  0  0
   11.4838   10.7586   -3.6515 H   0  0  0  0  0  0  0  0  0  0  0  0
  1  2  2  0  0  0  0
  2  3  1  0  0  0  0
  3  4  2  0  0  0  0
  3  5  1  0  0  0  0
  5  6  2  0  0  0  0
  6  7  1  0  0  0  0
  7  8  2  0  0  0  0
  8  9  1  0  0  0  0
  9 10  2  0  0  0  0
 10 11  1  0  0  0  0
 11 12  2  0  0  0  0
 12 13  1  0  0  0  0
 13 14  3  0  0  0  0
 12 15  1  0  0  0  0
 15 16  3  0  0  0  0
  8 17  1  0  0  0  0
 17 18  1  0  0  0  0
 18 19  1  0  0  0  0
 19 20  2  0  0  0  0
 20 21  1  0  0  0  0
 21 22  1  0  0  0  0
 21 23  1  0  0  0  0
  1 24  1  0  0  0  0
 24 25  1  0  0  0  0
 25 26  1  0  0  0  0
 26 27  1  0  0  0  0
 27 28  1  0  0  0  0
 28 29  1  0  0  0  0
 29 30  1  0  0  0  0
 30 31  1  0  0  0  0
 31 32  1  0  0  0  0
 32 33  2  0  0  0  0
 33 34  1  0  0  0  0
 34 35  1  0  0  0  0
 32 36  1  0  0  0  0
 36 37  1  0  0  0  0
 37 38  1  0  0  0  0
 38 39  1  0  0  0  0
 39 40  1  0  0  0  0
 40 41  2  0  0  0  0
 41 42  1  0  0  0  0
 42 43  2  0  0  0  0
 43 44  1  0  0  0  0
 44 45  1  0  0  0  0
 45 46  1  0  0  0  0
 44 47  1  0  0  0  0
 47 48  2  0  0  0  0
 48 49  1  0  0  0  0
 49 50  1  0  0  0  0
 50 51  1  0  0  0  0
 51 52  1  0  0  0  0
 52 53  1  0  0  0  0
 53 54  1  0  0  0  0
 54 55  1  0  0  0  0
 55 56  1  0  0  0  0
 56 57  1  0  0  0  0
 57 58  1  0  0  0  0
 58 59  1  0  0  0  0
 59 60  1  0  0  0  0
 58 61  2  0  0  0  0
 61 62  1  0  0  0  0
 62 63  1  0  0  0  0
 63 64  1  0  0  0  0
 62 65  1  0  0  0  0
 54 66  1  0  0  0  0
 66 67  1  0  0  0  0
 51 68  1  0  0  0  0
 68 69  1  0  0  0  0
 41 70  1  0  0  0  0
 70 71  2  0  0  0  0
 71 72  1  0  0  0  0
 71 73  1  0  0  0  0
 73 74  2  0  0  0  0
 74 75  1  0  0  0  0
 75 76  2  0  0  0  0
 75 77  1  0  0  0  0
 77 78  2  0  0  0  0
 78 79  1  0  0  0  0
 78 80  1  0  0  0  0
 80 81  2  0  0  0  0
 81 82  1  0  0  0  0
 82 83  2  0  0  0  0
 83 84  1  0  0  0  0
 84 85  2  0  0  0  0
 85 86  1  0  0  0  0
 86 87  3  0  0  0  0
 85 88  1  0  0  0  0
 88 89  3  0  0  0  0
 11  2  1  0  0  0  0
 23 17  1  0  0  0  0
 60 24  2  0  0  0  0
 84 74  1  0  0  0  0
 10  5  1  0  0  0  0
 22 18  1  0  0  0  0
 59 26  2  0  0  0  0
 83 77  1  0  0  0  0
 23  7  1  0  0  0  0
 56 27  2  0  0  0  0
 65 57  2  0  0  0  0
 55 29  2  0  0  0  0
 53 30  2  0  0  0  0
 35 31  2  0  0  0  0
 52 36  2  0  0  0  0
 50 37  2  0  0  0  0
 49 39  2  0  0  0  0
 72 40  1  0  0  0  0
 48 42  1  0  0  0  0
  1 90  1  0  0  0  0
  6 91  1  0  0  0  0
  9 92  1  0  0  0  0
 17 93  1  0  0  0  0
 18 94  1  0  0  0  0
 19 95  1  0  0  0  0
 20 96  1  0  0  0  0
 21 97  1  0  0  0  0
 22 98  1  0  0  0  0
 22 99  1  0  0  0  0
 23100  1  0  0  0  0
 45101  1  0  0  0  0
 45102  1  0  0  0  0
 46103  1  0  0  0  0
 46104  1  0  0  0  0
 46105  1  0  0  0  0
 60106  1  0  0  0  0
 63107  1  0  0  0  0
 63108  1  0  0  0  0
 64109  1  0  0  0  0
 64110  1  0  0  0  0
 64111  1  0  0  0  0
 66112  1  0  0  0  0
 66113  1  0  0  0  0
 67114  1  0  0  0  0
 67115  1  0  0  0  0
 67116  1  0  0  0  0
 68117  1  0  0  0  0
 68118  1  0  0  0  0
 69119  1  0  0  0  0
 69120  1  0  0  0  0
 69121  1  0  0  0  0
 70122  1  0  0  0  0
 73123  1  0  0  0  0
 79124  1  0  0  0  0
 80125  1  0  0  0  0
 81126  1  0  0  0  0
 82127  1  0  0  0  0
M  END
