157

C         -3.67710        5.36870        5.00760
C         -5.04500        5.39850        4.94550
C         -5.89680        4.44490        4.22250
O         -5.55710        3.40660        3.68230
C         -7.26220        4.99260        4.26990
C         -8.39790        4.46480        3.65900
C         -9.53420        5.21270        3.85240
C         -9.54010        6.40040        4.59620
C         -8.42750        6.93030        5.20560
C         -7.25980        6.18240        5.02560
C         -5.90000        6.42980        5.50250
C         -5.52990        7.44140        6.35090
C         -4.22860        7.66460        6.84760
N         -3.20460        7.91460        7.30480
C         -6.41500        8.40470        6.87900
N         -7.07300        9.22040        7.34840
C        -11.01420        6.62810        4.37150
C        -11.95170        6.29170        5.55020
C        -13.30980        6.14800        4.90220
C        -13.30470        5.02220        4.19990
C        -11.94290        4.38600        4.36140
C        -11.62020        4.81460        5.79860
C        -11.00800        5.30260        3.54410
C         -2.76150        4.45980        4.45320
C         -1.38310        4.67550        4.52340
C         -0.66490        3.69120        3.87500
S          1.03010        3.44350        3.55060
C          0.63240        2.01060        2.65710
C          1.34990        1.04730        1.88800
C          0.41440        0.12240        1.40440
C         -0.98570        0.45360        1.88150
C         -1.90850        0.60400        0.68850
C         -2.54020       -0.51350        0.15740
C         -3.36920       -0.39310       -0.94100
C         -3.58630        0.84140       -1.53920
C         -4.54080        0.98010       -2.68960
C         -5.95360        1.26090       -2.17340
C         -2.94080        1.95180       -1.01300
C         -2.10590        1.83630        0.08300
C         -1.54200       -0.54380        2.88620
C         -2.87520       -0.43830        3.26480
C         -3.40530       -1.29990        4.20480
C         -2.62170       -2.28620        4.79110
C         -3.18980       -3.19670        5.84120
C         -3.01020       -2.58520        7.23220
C         -1.28810       -2.37690        4.41790
C         -0.74920       -1.51460        3.47950
C         -0.72740        1.73040        2.63100
C         -1.47700        2.68070        3.31730
S         -3.15180        2.98090        3.58260
C          0.80820       -0.91810        0.58720
C          2.14300       -1.03650        0.22390
C          2.60760       -2.13030       -0.56180
C          3.91740       -2.26850       -0.97550
C          4.92960       -1.17120       -0.78330
C          4.47030       -0.17200        0.26580
C          3.11930       -0.09500        0.67620
C          2.72220        0.95110        1.55290
C          3.67990        1.85780        2.03610
C          4.98870        1.74070        1.65360
C          5.37650        0.73820        0.76200
C          4.98940       -0.48280       -2.15130
C          5.71380       -1.04890       -3.19410
C          5.72070       -0.46900       -4.44800
C          5.00090        0.69070       -4.70330
C          4.97490        1.29530       -6.07690
C          3.83940        0.68990       -6.90450
C          4.26550        1.24480       -3.66520
C          4.25380        0.66680       -2.40870
C          6.25880       -1.76090       -0.34150
C          7.47880       -1.25390       -0.76970
C          8.66470       -1.80140       -0.31700
C          8.66870       -2.86130        0.57950
C          9.96090       -3.42710        1.09260
C         10.44130       -2.64060        2.31400
C          7.44820       -3.34550        1.02980
C          6.26080       -2.80050        0.58060
C          4.11010       -3.48630       -1.64000
C          2.94390       -4.26880       -1.73850
S          1.58820       -3.48240       -1.00340
C          3.11220       -5.48520       -2.37920
C          4.42690       -5.67740       -2.78300
S          5.44860       -4.30040       -2.34510
C          5.06530       -6.70680       -3.49250
C          4.62050       -7.93040       -3.92280
C          3.34540       -8.61060       -3.63160
O          2.33850       -8.15990       -3.13150
C          3.54570      -10.01970       -4.05520
C          2.70040      -11.10070       -3.87640
Cl         1.13460      -10.91300       -3.22540
C          3.16660      -12.37330       -4.23680
Cl         2.14700      -13.73470       -4.06480
C          4.47340      -12.53700       -4.69330
Cl         5.05180      -14.11090       -5.03040
C          5.32790      -11.43640       -4.86780
Cl         6.97070      -11.73170       -5.26200
C          4.83100      -10.16500       -4.61320
C          5.42320       -8.83580       -4.73070
C          6.38840       -8.45250       -5.62350
C          6.87810       -7.13310       -5.75570
N          7.33000       -6.09270       -5.93310
C          6.90520       -9.24810       -6.66970
N          7.31140       -9.77220       -7.60620
H         -3.19410        6.18680        5.52850
H         -8.34510        3.55170        3.08700
H         -8.44920        7.84970        5.76600
H        -11.27910        7.55570        3.86790
H        -11.88130        6.97080        6.39530
H        -14.08940        6.88350        4.97370
H        -14.07910        4.62940        3.56760
H        -11.86560        3.32840        4.12390
H        -10.58830        4.63490        6.09440
H        -12.29160        4.35880        6.52440
H        -11.27050        5.34580        2.48860
H         -0.95350        5.52760        5.01910
H         -2.39600       -1.48090        0.61660
H         -3.85710       -1.27180       -1.33830
H         -4.54860        0.06080       -3.27870
H         -4.22480        1.79960       -3.33830
H         -6.29180        0.44600       -1.53730
H         -5.96650        2.17760       -1.58820
H         -6.64880        1.36690       -3.00300
H         -3.09230        2.92130       -1.46600
H         -1.61040        2.71490        0.46990
H         -3.50160        0.31920        2.81690
H         -4.44420       -1.20480        4.48530
H         -4.25320       -3.35850        5.65450
H         -2.68480       -4.16420        5.80560
H         -3.51660       -1.62430        7.29060
H         -1.95470       -2.42830        7.44320
H         -3.42290       -3.24290        7.99370
H         -0.65910       -3.13350        4.86510
H          0.29280       -1.60540        3.20970
H          0.09040       -1.63910        0.22510
H          3.36900        2.64380        2.70710
H          5.72930        2.43200        2.02600
H          6.40850        0.68570        0.45190
H          6.28880       -1.94690       -3.02810
H          6.29660       -0.92720       -5.23890
H          4.83070        2.37520       -6.00340
H          5.92520        1.10970       -6.58100
H          3.97400       -0.38500       -7.00160
H          2.88110        0.87240       -6.42300
H          3.81810        1.12870       -7.89920
H          3.69070        2.14360       -3.83800
H          3.66560        1.12560       -1.62830
H          7.50800       -0.42960       -1.46740
H          9.60340       -1.39860       -0.66990
H          9.82280       -4.47390        1.36990
H         10.72200       -3.37780        0.31130
H         10.59880       -1.59630        2.05380
H          9.70010       -2.68640        3.10880
H         11.37690       -3.05060        2.68680
H          7.42550       -4.16000        1.73980
H          5.32260       -3.18790        0.95340
H          2.33500       -6.20630       -2.55010
H          6.10450       -6.48540       -3.70900
