122

C         -1.13030       -6.59740       -4.63270
C         -1.34210       -6.42660       -5.97250
C         -1.48720       -5.13730       -6.66620
O         -1.62160       -4.03660       -6.16490
C         -1.42630       -5.43750       -8.10640
C         -1.43360       -4.51830       -9.15350
C         -1.31630       -5.08960      -10.39760
C         -1.20710       -6.47380      -10.58760
C         -1.21230       -7.39180       -9.56440
C         -1.32450       -6.83170       -8.28790
C         -1.33700       -7.47540       -6.97590
C         -1.37450       -8.82770       -6.75470
C         -1.43850       -9.45090       -5.49060
N         -1.49970      -10.04020       -4.50630
C         -1.38480       -9.80350       -7.77340
N         -1.39290      -10.65340       -8.54550
C         -1.09080       -6.33990      -12.08560
C          0.32610       -6.49100      -12.67910
C          0.21800       -5.84780      -14.04290
C          0.11270       -4.53730      -13.86380
C          0.14820       -4.27260      -12.37590
C          1.09590       -5.39440      -11.93150
C         -1.21430       -4.79680      -11.87380
C         -1.03120       -5.64740       -3.59840
S         -1.31440       -3.92030       -3.72400
C         -0.89880       -3.70680       -2.06030
C         -0.85440       -2.49200       -1.36520
S         -1.30220       -0.94100       -2.04580
C         -0.89470       -0.17750       -0.55650
C         -0.88330        1.10840        0.01550
C         -1.38820        2.36620       -0.38970
C         -1.36370        3.46860        0.54090
N         -1.94880        4.54980        0.05240
S         -2.47530        4.22400       -1.44300
N         -1.98080        2.68520       -1.52860
C         -0.68260        3.31870        1.77160
C         -0.32350        4.20820        2.80170
S         -0.61490        5.83650        3.28130
C          0.44030        5.61170        4.66150
C          0.71140        6.59380        5.62270
C          1.58800        6.34840        6.70280
C          2.17920        5.06180        6.77970
N          3.03760        4.53680        7.65470
N          3.22570        3.31340        7.23320
C          4.07570        2.39350        7.93200
C          3.27690        1.58740        8.95190
N          2.56710        2.96220        6.15540
C          1.87840        4.05630        5.81550
C          1.00010        4.32000        4.73360
C          0.54080        3.52570        3.66610
N          0.70420        2.23030        3.23570
C         -0.06760        2.08530        2.09890
C         -0.33200        0.94660        1.31050
N         -0.09540       -0.39160        1.55740
C         -0.43280       -1.07480        0.41380
C         -0.41750       -2.41150       -0.02790
C         -0.04970       -3.62610        0.60510
C         -0.13250       -4.86990       -0.08600
C         -0.54780       -4.92600       -1.44070
C         -0.64590       -6.00590       -2.31280
N          0.26380       -5.82500        0.75580
N          0.56040       -5.18670        1.85740
C          0.97980       -5.87590        3.04300
C         -0.19540       -6.05840        3.99920
N          0.40020       -3.88540        1.83670
C         -0.19130       -1.02090        2.85960
C         -1.62650       -1.46730        3.13890
C          1.93980        1.51460        3.48670
C          3.12080        2.23480        2.83590
C          1.70750        7.44980        7.54570
C          0.93540        8.53330        7.15130
S          0.04400        8.18640        5.67900
C          0.87660        9.73760        7.87490
C          0.13150       10.86050        7.65850
C         -0.82580       11.14110        6.58970
O         -1.12550       10.43670        5.64620
C         -1.37670       12.49010        6.88690
C         -2.32890       13.21340        6.19720
C         -2.68520       14.46530        6.68810
Cl        -3.86950       15.39250        5.85680
C         -2.09240       14.97460        7.84830
Cl        -2.55310       16.52330        8.43320
C         -1.13230       14.24140        8.53850
C         -0.78280       12.99950        8.04770
C          0.19260       12.01070        8.58000
O          0.88620       12.12420        9.56590
H         -0.95800       -7.61050       -4.28830
H         -1.51890       -3.46040       -8.96080
H         -1.12690       -8.45290       -9.72840
H         -1.85400       -6.84960      -12.67020
H          0.72890       -7.49950      -12.64380
H          0.17500       -6.39870      -14.96410
H         -0.03590       -3.77450      -14.60540
H          0.38950       -3.25990      -12.06440
H          1.13970       -5.53800      -10.85350
H          2.10350       -5.26020      -12.32170
H         -2.06090       -4.27580      -12.31680
H          4.52750        1.73130        7.19020
H          4.84910        2.98050        8.43050
H          3.93350        0.89570        9.47170
H          2.82090        2.25300        9.68040
H          2.49340        1.02150        8.45370
H         -0.42730       -7.01930       -2.02710
H          1.37560       -6.84270        2.72850
H          1.76680       -5.28500        3.51740
H          0.13460       -6.57250        4.89720
H         -0.60470       -5.09010        4.27710
H         -0.97680       -6.64760        3.52570
H          0.46800       -1.89240        2.87040
H          0.10600       -0.30840        3.62690
H         -1.93760       -2.22260        2.42260
H         -2.30710       -0.62080        3.07270
H         -1.69010       -1.88920        4.13820
H          2.09460        1.46580        4.56730
H          1.86970        0.51300        3.06680
H          2.95730        2.34060        1.76520
H          4.03100        1.66360        2.99600
H          3.25100        3.22290        3.26860
H          2.32850        7.45830        8.42340
H          1.51210        9.77260        8.75590
H         -2.78600       12.81940        5.30310
H         -0.67570       14.63380        9.43350
