
  xtb     02012219323D
 energy: -232.313665640563 gnorm: 0.000211164164 xtb: 6.4.1 (unknown)
126144  0     0  0            999 V2000
   -7.8174   -0.5315    4.4148 C   0  0  0  0  0  0  0  0  0  0  0  0
   -8.0628    0.3058    5.4684 C   0  0  0  0  0  0  0  0  0  0  0  0
   -7.3177    1.5337    5.7857 C   0  0  0  0  0  0  0  0  0  0  0  0
   -6.4002    2.0275    5.1560 O   0  0  0  0  0  0  0  0  0  0  0  0
   -7.9029    2.0646    7.0269 C   0  0  0  0  0  0  0  0  0  0  0  0
   -7.5055    3.2087    7.7145 C   0  0  0  0  0  0  0  0  0  0  0  0
   -8.2257    3.4501    8.8593 C   0  0  0  0  0  0  0  0  0  0  0  0
   -9.2676    2.6157    9.2864 C   0  0  0  0  0  0  0  0  0  0  0  0
   -9.6744    1.4889    8.6120 C   0  0  0  0  0  0  0  0  0  0  0  0
   -8.9525    1.2217    7.4448 C   0  0  0  0  0  0  0  0  0  0  0  0
   -9.0848    0.1272    6.4842 C   0  0  0  0  0  0  0  0  0  0  0  0
  -10.0144   -0.8783    6.5555 C   0  0  0  0  0  0  0  0  0  0  0  0
  -10.1614   -1.9389    5.6371 C   0  0  0  0  0  0  0  0  0  0  0  0
  -10.3581   -2.8357    4.9460 N   0  0  0  0  0  0  0  0  0  0  0  0
  -10.9817   -1.0037    7.5751 C   0  0  0  0  0  0  0  0  0  0  0  0
  -11.7957   -1.1782    8.3661 N   0  0  0  0  0  0  0  0  0  0  0  0
   -9.5348    3.4463   10.5165 C   0  0  0  0  0  0  0  0  0  0  0  0
   -9.0097    2.9144   11.8731 C   0  0  0  0  0  0  0  0  0  0  0  0
   -7.8166    2.0452   11.5618 C   0  0  0  0  0  0  0  0  0  0  0  0
   -6.8328    2.8373   11.1571 C   0  0  0  0  0  0  0  0  0  0  0  0
   -7.3432    4.2568   11.1868 C   0  0  0  0  0  0  0  0  0  0  0  0
   -8.2982    4.1759   12.3884 C   0  0  0  0  0  0  0  0  0  0  0  0
   -8.3761    4.3774   10.0390 C   0  0  0  0  0  0  0  0  0  0  0  0
   -6.8196   -0.4827    3.4226 C   0  0  0  0  0  0  0  0  0  0  0  0
   -5.5753    0.7412    3.2414 S   0  0  0  0  0  0  0  0  0  0  0  0
   -4.8927   -0.1194    1.9078 C   0  0  0  0  0  0  0  0  0  0  0  0
   -3.7395    0.2404    1.2004 C   0  0  0  0  0  0  0  0  0  0  0  0
   -2.8099    1.6804    1.5478 S   0  0  0  0  0  0  0  0  0  0  0  0
   -1.6820    1.2150    0.3375 C   0  0  0  0  0  0  0  0  0  0  0  0
   -0.4526    1.6554   -0.1639 C   0  0  0  0  0  0  0  0  0  0  0  0
    0.3505    2.7406    0.2461 C   0  0  0  0  0  0  0  0  0  0  0  0
    1.6614    2.8657   -0.3109 C   0  0  0  0  0  0  0  0  0  0  0  0
    2.3354    3.8857    0.1970 N   0  0  0  0  0  0  0  0  0  0  0  0
    1.3904    4.6296    1.2822 S   0  0  0  0  0  0  0  0  0  0  0  0
    0.0898    3.6744    1.1474 N   0  0  0  0  0  0  0  0  0  0  0  0
    2.0576    1.9521   -1.3101 C   0  0  0  0  0  0  0  0  0  0  0  0
    3.2550    1.8734   -2.0287 C   0  0  0  0  0  0  0  0  0  0  0  0
    4.7846    2.6547   -2.0551 S   0  0  0  0  0  0  0  0  0  0  0  0
    5.2906    1.5676   -3.3285 C   0  0  0  0  0  0  0  0  0  0  0  0
    6.5737    1.5665   -3.8835 C   0  0  0  0  0  0  0  0  0  0  0  0
    6.9651    0.6425   -4.8723 C   0  0  0  0  0  0  0  0  0  0  0  0
    5.9789   -0.2792   -5.2995 C   0  0  0  0  0  0  0  0  0  0  0  0
    6.0277   -1.2515   -6.2104 N   0  0  0  0  0  0  0  0  0  0  0  0
    4.8314   -1.7741   -6.1951 N   0  0  0  0  0  0  0  0  0  0  0  0
    4.4543   -2.8289   -7.0908 C   0  0  0  0  0  0  0  0  0  0  0  0
    3.9310   -2.2541   -8.4040 C   0  0  0  0  0  0  0  0  0  0  0  0
    3.9776   -1.2433   -5.3544 N   0  0  0  0  0  0  0  0  0  0  0  0
    4.6644   -0.2703   -4.7448 C   0  0  0  0  0  0  0  0  0  0  0  0
    4.2952    0.6487   -3.7279 C   0  0  0  0  0  0  0  0  0  0  0  0
    3.1227    0.8422   -2.9617 C   0  0  0  0  0  0  0  0  0  0  0  0
    1.8803    0.2723   -2.8315 N   0  0  0  0  0  0  0  0  0  0  0  0
    1.2091    0.9194   -1.8024 C   0  0  0  0  0  0  0  0  0  0  0  0
   -0.0434    0.7134   -1.1512 C   0  0  0  0  0  0  0  0  0  0  0  0
   -1.0181   -0.2703   -1.2250 N   0  0  0  0  0  0  0  0  0  0  0  0
   -2.0022    0.0221   -0.3153 C   0  0  0  0  0  0  0  0  0  0  0  0
   -3.2024   -0.5537    0.1654 C   0  0  0  0  0  0  0  0  0  0  0  0
   -3.9324   -1.7272   -0.1632 C   0  0  0  0  0  0  0  0  0  0  0  0
   -5.1184   -2.0895    0.5428 C   0  0  0  0  0  0  0  0  0  0  0  0
   -5.6104   -1.2957    1.6092 C   0  0  0  0  0  0  0  0  0  0  0  0
   -6.6928   -1.4815    2.4644 C   0  0  0  0  0  0  0  0  0  0  0  0
   -5.5731   -3.2250    0.0136 N   0  0  0  0  0  0  0  0  0  0  0  0
   -4.7233   -3.5083   -0.9365 N   0  0  0  0  0  0  0  0  0  0  0  0
   -4.8380   -4.6980   -1.7289 C   0  0  0  0  0  0  0  0  0  0  0  0
   -3.9490   -5.8041   -1.1678 C   0  0  0  0  0  0  0  0  0  0  0  0
   -3.7292   -2.6668   -1.0931 N   0  0  0  0  0  0  0  0  0  0  0  0
   -0.9553   -1.5755   -1.8397 C   0  0  0  0  0  0  0  0  0  0  0  0
    0.1336   -2.4373   -1.2021 C   0  0  0  0  0  0  0  0  0  0  0  0
    1.3407   -0.5379   -3.9013 C   0  0  0  0  0  0  0  0  0  0  0  0
    0.2582    0.2140   -4.6732 C   0  0  0  0  0  0  0  0  0  0  0  0
    8.2911    0.8060   -5.2786 C   0  0  0  0  0  0  0  0  0  0  0  0
    8.9363    1.8384   -4.6249 C   0  0  0  0  0  0  0  0  0  0  0  0
    7.8745    2.6163   -3.4613 S   0  0  0  0  0  0  0  0  0  0  0  0
   10.2778    2.2667   -4.6909 C   0  0  0  0  0  0  0  0  0  0  0  0
   11.2476    1.9880   -5.6096 C   0  0  0  0  0  0  0  0  0  0  0  0
   12.6702    2.1825   -5.2108 C   0  0  0  0  0  0  0  0  0  0  0  0
   13.0698    2.7764   -4.2394 O   0  0  0  0  0  0  0  0  0  0  0  0
   13.4536    1.4523   -6.2331 C   0  0  0  0  0  0  0  0  0  0  0  0
   14.8079    1.1821   -6.3098 C   0  0  0  0  0  0  0  0  0  0  0  0
   15.6536    1.6260   -5.3756 F   0  0  0  0  0  0  0  0  0  0  0  0
   15.3086    0.4342   -7.3688 C   0  0  0  0  0  0  0  0  0  0  0  0
   14.4454   -0.0412   -8.3405 C   0  0  0  0  0  0  0  0  0  0  0  0
   13.0820    0.2228   -8.2906 C   0  0  0  0  0  0  0  0  0  0  0  0
   12.5901    0.9743   -7.2375 C   0  0  0  0  0  0  0  0  0  0  0  0
   11.2296    1.4289   -6.9381 C   0  0  0  0  0  0  0  0  0  0  0  0
   10.2158    1.5276   -7.8566 C   0  0  0  0  0  0  0  0  0  0  0  0
    9.0123    2.2211   -7.6172 C   0  0  0  0  0  0  0  0  0  0  0  0
    8.0343    2.8067   -7.4840 N   0  0  0  0  0  0  0  0  0  0  0  0
   10.2868    1.0280   -9.1722 C   0  0  0  0  0  0  0  0  0  0  0  0
   10.2787    0.6203  -10.2455 N   0  0  0  0  0  0  0  0  0  0  0  0
   -8.4619   -1.3966    4.3150 H   0  0  0  0  0  0  0  0  0  0  0  0
   -6.6970    3.8217    7.3479 H   0  0  0  0  0  0  0  0  0  0  0  0
  -10.4799    0.8618    8.9552 H   0  0  0  0  0  0  0  0  0  0  0  0
  -10.5327    3.8728   10.5969 H   0  0  0  0  0  0  0  0  0  0  0  0
   -9.7716    2.4731   12.5100 H   0  0  0  0  0  0  0  0  0  0  0  0
   -7.8285    0.9721   11.6120 H   0  0  0  0  0  0  0  0  0  0  0  0
   -5.8583    2.5585   10.8010 H   0  0  0  0  0  0  0  0  0  0  0  0
   -6.5881    5.0384   11.1989 H   0  0  0  0  0  0  0  0  0  0  0  0
   -7.7770    4.0105   13.3301 H   0  0  0  0  0  0  0  0  0  0  0  0
   -8.9563    5.0390   12.4787 H   0  0  0  0  0  0  0  0  0  0  0  0
   -8.6176    5.4123    9.8048 H   0  0  0  0  0  0  0  0  0  0  0  0
    3.6832   -3.4223   -6.5956 H   0  0  0  0  0  0  0  0  0  0  0  0
    5.3416   -3.4389   -7.2697 H   0  0  0  0  0  0  0  0  0  0  0  0
    4.6984   -1.6475   -8.8782 H   0  0  0  0  0  0  0  0  0  0  0  0
    3.6567   -3.0614   -9.0768 H   0  0  0  0  0  0  0  0  0  0  0  0
    3.0558   -1.6348   -8.2225 H   0  0  0  0  0  0  0  0  0  0  0  0
   -7.3599   -2.3227    2.4029 H   0  0  0  0  0  0  0  0  0  0  0  0
   -4.5403   -4.4517   -2.7506 H   0  0  0  0  0  0  0  0  0  0  0  0
   -5.8867   -4.9987   -1.7062 H   0  0  0  0  0  0  0  0  0  0  0  0
   -4.0410   -6.6976   -1.7784 H   0  0  0  0  0  0  0  0  0  0  0  0
   -4.2458   -6.0438   -0.1498 H   0  0  0  0  0  0  0  0  0  0  0  0
   -2.9096   -5.4846   -1.1652 H   0  0  0  0  0  0  0  0  0  0  0  0
   -0.8162   -1.4784   -2.9153 H   0  0  0  0  0  0  0  0  0  0  0  0
   -1.9266   -2.0486   -1.6814 H   0  0  0  0  0  0  0  0  0  0  0  0
    1.1075   -1.9557   -1.2580 H   0  0  0  0  0  0  0  0  0  0  0  0
   -0.0990   -2.6083   -0.1535 H   0  0  0  0  0  0  0  0  0  0  0  0
    0.1871   -3.3995   -1.7048 H   0  0  0  0  0  0  0  0  0  0  0  0
    2.1711   -0.7694   -4.5707 H   0  0  0  0  0  0  0  0  0  0  0  0
    0.9720   -1.4867   -3.5142 H   0  0  0  0  0  0  0  0  0  0  0  0
   -0.1456   -0.4210   -5.4574 H   0  0  0  0  0  0  0  0  0  0  0  0
    0.6811    1.1042   -5.1333 H   0  0  0  0  0  0  0  0  0  0  0  0
   -0.5540    0.5254   -4.0195 H   0  0  0  0  0  0  0  0  0  0  0  0
    8.7635    0.1510   -5.9876 H   0  0  0  0  0  0  0  0  0  0  0  0
   10.6258    2.8427   -3.8380 H   0  0  0  0  0  0  0  0  0  0  0  0
   16.3673    0.2333   -7.4146 H   0  0  0  0  0  0  0  0  0  0  0  0
   14.8398   -0.6288   -9.1551 H   0  0  0  0  0  0  0  0  0  0  0  0
   12.4300   -0.1639   -9.0566 H   0  0  0  0  0  0  0  0  0  0  0  0
  1  2  2  0  0  0  0
  2  3  1  0  0  0  0
  3  4  2  0  0  0  0
  3  5  1  0  0  0  0
  5  6  2  0  0  0  0
  6  7  1  0  0  0  0
  7  8  2  0  0  0  0
  8  9  1  0  0  0  0
  9 10  2  0  0  0  0
 10 11  1  0  0  0  0
 11 12  2  0  0  0  0
 12 13  1  0  0  0  0
 13 14  3  0  0  0  0
 12 15  1  0  0  0  0
 15 16  3  0  0  0  0
  8 17  1  0  0  0  0
 17 18  1  0  0  0  0
 18 19  1  0  0  0  0
 19 20  2  0  0  0  0
 20 21  1  0  0  0  0
 21 22  1  0  0  0  0
 21 23  1  0  0  0  0
  1 24  1  0  0  0  0
 24 25  1  0  0  0  0
 25 26  1  0  0  0  0
 26 27  1  0  0  0  0
 27 28  1  0  0  0  0
 28 29  1  0  0  0  0
 29 30  1  0  0  0  0
 30 31  1  0  0  0  0
 31 32  1  0  0  0  0
 32 33  2  0  0  0  0
 33 34  1  0  0  0  0
 34 35  1  0  0  0  0
 32 36  1  0  0  0  0
 36 37  1  0  0  0  0
 37 38  1  0  0  0  0
 38 39  1  0  0  0  0
 39 40  1  0  0  0  0
 40 41  2  0  0  0  0
 41 42  1  0  0  0  0
 42 43  2  0  0  0  0
 43 44  1  0  0  0  0
 44 45  1  0  0  0  0
 45 46  1  0  0  0  0
 44 47  1  0  0  0  0
 47 48  2  0  0  0  0
 48 49  1  0  0  0  0
 49 50  1  0  0  0  0
 50 51  1  0  0  0  0
 51 52  1  0  0  0  0
 52 53  1  0  0  0  0
 53 54  1  0  0  0  0
 54 55  1  0  0  0  0
 55 56  1  0  0  0  0
 56 57  1  0  0  0  0
 57 58  1  0  0  0  0
 58 59  1  0  0  0  0
 59 60  1  0  0  0  0
 58 61  2  0  0  0  0
 61 62  1  0  0  0  0
 62 63  1  0  0  0  0
 63 64  1  0  0  0  0
 62 65  1  0  0  0  0
 54 66  1  0  0  0  0
 66 67  1  0  0  0  0
 51 68  1  0  0  0  0
 68 69  1  0  0  0  0
 41 70  1  0  0  0  0
 70 71  2  0  0  0  0
 71 72  1  0  0  0  0
 71 73  1  0  0  0  0
 73 74  2  0  0  0  0
 74 75  1  0  0  0  0
 75 76  2  0  0  0  0
 75 77  1  0  0  0  0
 77 78  2  0  0  0  0
 78 79  1  0  0  0  0
 78 80  1  0  0  0  0
 80 81  2  0  0  0  0
 81 82  1  0  0  0  0
 82 83  2  0  0  0  0
 83 84  1  0  0  0  0
 84 85  2  0  0  0  0
 85 86  1  0  0  0  0
 86 87  3  0  0  0  0
 85 88  1  0  0  0  0
 88 89  3  0  0  0  0
 11  2  1  0  0  0  0
 23 17  1  0  0  0  0
 60 24  2  0  0  0  0
 84 74  1  0  0  0  0
 10  5  1  0  0  0  0
 22 18  1  0  0  0  0
 59 26  2  0  0  0  0
 83 77  1  0  0  0  0
 23  7  1  0  0  0  0
 56 27  2  0  0  0  0
 65 57  2  0  0  0  0
 55 29  2  0  0  0  0
 53 30  2  0  0  0  0
 35 31  2  0  0  0  0
 52 36  2  0  0  0  0
 50 37  2  0  0  0  0
 49 39  2  0  0  0  0
 72 40  1  0  0  0  0
 48 42  1  0  0  0  0
  1 90  1  0  0  0  0
  6 91  1  0  0  0  0
  9 92  1  0  0  0  0
 17 93  1  0  0  0  0
 18 94  1  0  0  0  0
 19 95  1  0  0  0  0
 20 96  1  0  0  0  0
 21 97  1  0  0  0  0
 22 98  1  0  0  0  0
 22 99  1  0  0  0  0
 23100  1  0  0  0  0
 45101  1  0  0  0  0
 45102  1  0  0  0  0
 46103  1  0  0  0  0
 46104  1  0  0  0  0
 46105  1  0  0  0  0
 60106  1  0  0  0  0
 63107  1  0  0  0  0
 63108  1  0  0  0  0
 64109  1  0  0  0  0
 64110  1  0  0  0  0
 64111  1  0  0  0  0
 66112  1  0  0  0  0
 66113  1  0  0  0  0
 67114  1  0  0  0  0
 67115  1  0  0  0  0
 67116  1  0  0  0  0
 68117  1  0  0  0  0
 68118  1  0  0  0  0
 69119  1  0  0  0  0
 69120  1  0  0  0  0
 69121  1  0  0  0  0
 70122  1  0  0  0  0
 73123  1  0  0  0  0
 80124  1  0  0  0  0
 81125  1  0  0  0  0
 82126  1  0  0  0  0
M  END
