112

C          4.84590       -3.09250       -4.50630
C          6.11540       -2.62410       -4.63480
C          7.04030       -3.26310       -5.61170
O          6.87310       -4.31800       -6.18040
C          8.15890       -2.31440       -5.77020
C          9.22600       -2.41030       -6.66090
C         10.10760       -1.35830       -6.59520
C          9.94140       -0.28270       -5.71170
C          8.89910       -0.17780       -4.82230
C          7.99450       -1.24160       -4.86850
C          6.81110       -1.49660       -4.05010
C          6.56880       -0.93640       -2.82290
C          7.32680        0.11130       -2.26240
N          7.88810        0.97870       -1.76110
C          5.58760       -1.39420       -1.91930
N          4.85210       -1.74760       -1.11180
C         11.18600        0.41460       -6.19950
C         11.01140        1.61930       -7.15700
C          9.70410        1.40750       -7.87940
C          9.86280        0.38910       -8.71410
C         11.28070       -0.10610       -8.57160
C         12.00000        1.21690       -8.26300
C         11.37300       -0.78420       -7.18210
C          3.72810       -2.44310       -3.92630
S          2.38980       -3.40290       -3.32530
C          1.55510       -1.98370       -2.80610
C          0.35070       -1.93620       -2.09460
S         -0.55210       -3.34880       -1.59470
C         -1.68040       -2.32410       -0.79820
C         -2.84420       -2.44130       -0.02400
C         -3.62180       -3.57180        0.30720
C         -4.81750       -3.38380        1.07420
N         -5.47780       -4.51390        1.26970
S         -4.66150       -5.71400        0.55110
N         -3.43360       -4.83650       -0.03530
C         -5.09910       -2.09590        1.57940
C         -6.04160       -1.67640        2.52630
S         -7.33630       -2.35060        3.43560
C         -7.51150       -0.82650        4.27690
C         -8.45180       -0.59610        5.28710
C         -8.54700        0.63790        5.95800
C         -7.63400        1.64530        5.56310
N         -7.46130        2.89180        6.00510
N         -6.47210        3.35660        5.28840
C         -5.94430        4.67570        5.48550
C         -4.70880        4.63330        6.37970
N         -5.95900        2.53620        4.40650
C         -6.67310        1.41260        4.53390
C         -6.59830        0.16610        3.85960
C         -5.76690       -0.34100        2.83490
N         -4.70620        0.08310        2.07700
C         -4.28360       -0.96650        1.28540
C         -3.21240       -1.12280        0.36040
N         -2.32470       -0.22900       -0.22790
C         -1.39080       -0.96450       -0.91960
C         -0.22110       -0.71720       -1.67320
C          0.47260        0.46610       -2.03320
C          1.69430        0.41440       -2.76730
C          2.26860       -0.82080       -3.14880
C          3.49020       -1.09520       -3.77330
N          2.10890        1.66840       -2.95320
N          1.19830        2.40230       -2.37230
C          1.30220        3.83140       -2.31210
C          2.06430        4.26180       -1.06210
N          0.20720        1.75760       -1.80610
C         -2.60300        1.12080       -0.67420
C         -3.62730        1.11060       -1.80880
C         -4.10340        1.37630        2.28620
C         -4.85180        2.47630        1.53120
C         -9.54590        0.64600        6.93570
C        -10.21920       -0.55610        7.03300
S         -9.60800       -1.73480        5.88380
C        -11.26790       -0.81910        7.94270
C        -11.96040       -1.98330        8.10180
C        -11.74590       -3.16760        7.36690
N        -11.61250       -4.15670        6.80050
C        -12.98650       -2.07090        9.06810
N        -13.81870       -2.13480        9.85460
H          4.66280       -4.06570       -4.95090
H          9.31860       -3.25500       -7.32550
H          8.77800        0.65610       -4.15060
H         11.95780        0.58720       -5.45220
H         11.15020        2.59060       -6.68980
H          8.80910        1.96530       -7.67410
H          9.12710       -0.07410       -9.34510
H         11.66490       -0.70510       -9.39300
H         13.01990        1.08320       -7.90540
H         11.99290        1.90660       -9.10570
H         12.26800       -1.39420       -7.07660
H         -6.73350        5.27170        5.94640
H         -5.68920        5.08430        4.50500
H         -3.93870        4.01440        5.92590
H         -4.96270        4.22150        7.35330
H         -4.31740        5.63720        6.51590
H          4.15280       -0.32430       -4.12330
H          0.28810        4.23650       -2.30240
H          1.82860        4.15820       -3.21070
H          3.06530        3.83790       -1.07020
H          2.14200        5.34470       -1.03160
H          1.54600        3.92050       -0.16930
H         -1.65920        1.53890       -1.03060
H         -2.96220        1.73730        0.14070
H         -3.82450        2.12710       -2.13880
H         -3.25000        0.53900       -2.65360
H         -4.56210        0.65860       -1.48090
H         -4.16340        1.60040        3.35400
H         -3.04900        1.31860        2.01270
H         -4.27940        3.39970        1.55220
H         -5.04250        2.19640        0.49870
H         -5.80570        2.65520        2.01810
H         -9.76330        1.50120        7.54990
H        -11.54170        0.01020        8.58500
