176

C         -1.84260        1.07080        8.26060
C         -2.52610        2.03070        8.96350
C         -3.01090        3.30510        8.42490
O         -2.79590        3.77390        7.31980
C         -3.83110        3.91710        9.48430
C         -4.54210        5.11260        9.40940
C         -5.24690        5.41530       10.54970
C         -5.24100        4.59160       11.68290
C         -4.53580        3.41480       11.77300
C         -3.81390        3.08530       10.62190
C         -2.97050        1.92420       10.33810
C         -2.64880        0.94050       11.23900
C         -1.80260       -0.15940       10.98890
N         -1.12290       -1.07910       10.87430
C         -3.10620        0.89670       12.57230
N         -3.43830        0.78970       13.66650
C         -6.18010        5.49470       12.44350
C         -7.65050        5.03500       12.53840
C         -8.40220        6.29760       12.89310
C         -8.40710        7.07900       11.82060
C         -7.65900        6.35740       10.72300
C         -8.03310        4.90780       11.05810
C         -6.18570        6.41400       11.18010
C         -1.41450        1.05070        6.92750
S         -1.57120        2.34970        5.75310
C         -0.85910        1.34720        4.56650
C         -0.60380        1.39070        3.17740
C         -0.11990        0.17250        2.72970
C          0.06920       -0.77040        3.91040
C         -0.50520        0.07600        5.03550
C         -0.81550       -0.08750        6.36520
C         -0.78130       -2.02410        3.77890
C         -0.28130       -3.31020        3.91960
C         -1.12190       -4.40410        3.81330
C         -2.47770       -4.24730        3.56480
C         -3.37020       -5.44110        3.39000
C         -3.37180       -5.89060        1.92720
C         -2.97490       -2.95770        3.42390
C         -2.14080       -1.86240        3.53210
C          1.53580       -1.02560        4.21900
C          1.88370       -1.68860        5.39220
C          3.20790       -1.90650        5.71720
C          4.22960       -1.46190        4.88760
C          5.66640       -1.73810        5.22240
C          6.09140       -3.09960        4.66820
C          3.88140       -0.79420        3.72300
C          2.55570       -0.57270        3.39350
C          0.06770        0.15200        1.32130
C          0.49470       -0.86490        0.45080
C          0.80930       -2.26200        0.89110
C         -0.36430       -3.19970        0.59890
C          0.58470       -0.54590       -0.89150
S          1.09690       -1.71770       -2.09420
C          0.92360       -0.51700       -3.31380
C          1.05800       -0.51130       -4.72040
C          0.75850        0.77630       -5.18230
C          0.44790        1.70500       -4.01890
C         -0.95800        2.25140       -4.21440
C         -2.00050        1.33570       -4.31680
C         -3.29850        1.76170       -4.51760
C         -3.59440        3.11480       -4.62770
C         -5.01170        3.58210       -4.78680
C         -5.65230        3.80240       -3.41470
C         -2.55190        4.02440       -4.52720
C         -1.24980        3.60290       -4.32320
C          1.53850        2.76170       -3.95420
C          2.38130        2.88880       -2.85840
C          3.38310        3.84330       -2.84540
C          3.58210        4.68980       -3.92580
C          4.64130        5.75260       -3.89100
C          4.07100        7.05710       -3.33020
C          2.74500        4.55400       -5.02600
C          1.74330        3.60350       -5.04330
C          0.51680        0.72500       -2.85530
C          0.28860        0.73350       -1.45270
C         -0.16210        1.74310       -0.58570
C         -0.26130        1.42130        0.75540
S         -0.81560        2.57970        1.95230
C         -0.57270        3.11060       -1.04000
C         -2.09630        3.21620       -1.13620
C          0.76980        0.84620       -6.55580
C          1.06770       -0.38500       -7.16030
S          1.35290       -1.64320       -5.96620
C          1.08620       -0.53340       -8.55290
C          1.24600       -1.65390       -9.32810
C          1.40610       -3.02480       -8.83260
O          1.54710       -3.38340       -7.67570
C          1.35050       -3.90150      -10.01500
C          1.39880       -5.29300      -10.03100
C          1.29580       -5.84130      -11.28710
C          1.15060       -5.06200      -12.44220
C          1.10420       -3.68790      -12.43980
C          1.21310       -3.10910      -11.17260
C          1.19360       -1.70170      -10.77510
C          1.16330       -0.63550      -11.63810
C          1.13460       -0.74550      -13.04380
N          1.11200       -0.75160      -14.19200
C          1.18040        0.72480      -11.26670
N          1.19650        1.85440      -11.05590
C          1.10090       -6.26800      -13.34640
C          2.37220       -6.61310      -14.16030
C          3.54120       -6.06210      -13.38200
C          3.68290       -6.79920      -12.28850
C          2.61210       -7.86180      -12.30740
C          2.50030       -8.10670      -13.82080
C          1.26630       -7.13640      -12.05950
H         -1.61290        0.15350        8.78960
H         -4.51740        5.71660        8.51590
H         -4.54220        2.79460       12.65350
H         -5.79860        5.89710       13.37980
H         -7.81680        4.17070       13.17550
H         -8.79160        6.50920       13.87160
H         -8.80140        8.07360       11.72430
H         -7.83400        6.69790        9.70590
H         -9.09630        4.71550       10.92300
H         -7.45660        4.16300       10.51270
H         -5.80760        7.43030       11.27390
H         -0.66420       -0.97950        6.94590
H          0.76970       -3.47280        4.10590
H         -0.71250       -5.39780        3.92640
H         -4.38920       -5.19080        3.69140
H         -3.01920       -6.26210        4.01830
H         -3.72730       -5.08810        1.28490
H         -4.01850       -6.75470        1.79510
H         -2.36560       -6.15760        1.61200
H         -4.02760       -2.80910        3.22940
H         -2.54830       -0.86730        3.42140
H          1.11260       -2.04200        6.05860
H          3.45130       -2.42360        6.63430
H          5.80100       -1.73310        6.30590
H          6.30260       -0.96070        4.79480
H          5.47560       -3.88970        5.09200
H          5.97740       -3.11990        3.58650
H          7.13170       -3.30170        4.91200
H          4.65650       -0.43320        3.06220
H          2.32750       -0.04040        2.48300
H          1.03870       -2.28300        1.95280
H          1.68860       -2.61500        0.34480
H         -0.56300       -3.24460       -0.46880
H         -0.13460       -4.20190        0.95010
H         -1.26190       -2.85480        1.10550
H         -1.79180        0.27820       -4.23610
H         -4.09340        1.03320       -4.59210
H         -5.03360        4.51770       -5.34900
H         -5.58870        2.83750       -5.33870
H         -6.68120        4.13680       -3.52390
H         -5.09960        4.55370       -2.85510
H         -5.64560        2.87830       -2.84100
H         -2.75800        5.08210       -4.60950
H         -0.46650        4.34160       -4.24250
H          2.26600        2.24340       -2.00140
H          4.02390        3.92350       -1.97890
H          5.02060        5.93000       -4.89930
H          5.47360        5.42530       -3.26480
H          3.24890        7.40810       -3.95000
H          4.83830        7.82700       -3.30280
H          3.69660        6.90300       -2.32050
H          2.88270        5.19570       -5.88440
H          1.11190        3.51920       -5.91380
H         -0.21220        3.84640       -0.31560
H         -0.12910        3.33920       -2.00500
H         -2.37760        4.20350       -1.49200
H         -2.48600        2.47620       -1.83020
H         -2.55440        3.05610       -0.16340
H          0.55050        1.71670       -7.14740
H          0.90750        0.39770       -9.07720
H          1.50350       -5.85440       -9.11570
H          0.98600       -3.10500      -13.33780
H          0.18970       -6.38890      -13.92900
H          2.32340       -6.33990      -15.21090
H          4.09090       -5.18480      -13.66880
H          4.37480       -6.66070      -11.47840
H          2.78250       -8.72680      -11.67160
H          1.62600       -8.69210      -14.10220
H          3.39700       -8.55900      -14.24170
H          0.46440       -7.82650      -11.80360
