
  xtb     02022209323D
 energy: -192.013658023271 gnorm: 0.000972292657 xtb: 6.4.1 (unknown)
117130  0     0  0            999 V2000
    3.7223   -1.0191   -6.2482 C   0  0  0  0  0  0  0  0  0  0  0  0
    4.1046   -2.3178   -6.1193 C   0  0  0  0  0  0  0  0  0  0  0  0
    5.3804   -2.7870   -6.7218 C   0  0  0  0  0  0  0  0  0  0  0  0
    6.0500   -2.2053   -7.5458 O   0  0  0  0  0  0  0  0  0  0  0  0
    5.6737   -4.0709   -6.0547 C   0  0  0  0  0  0  0  0  0  0  0  0
    6.8264   -4.8429   -6.1813 C   0  0  0  0  0  0  0  0  0  0  0  0
    6.8244   -5.9828   -5.4138 C   0  0  0  0  0  0  0  0  0  0  0  0
    5.7561   -6.3348   -4.5771 C   0  0  0  0  0  0  0  0  0  0  0  0
    4.6081   -5.5896   -4.4493 C   0  0  0  0  0  0  0  0  0  0  0  0
    4.5905   -4.4267   -5.2226 C   0  0  0  0  0  0  0  0  0  0  0  0
    3.5401   -3.4246   -5.3779 C   0  0  0  0  0  0  0  0  0  0  0  0
    2.2061   -3.6219   -5.1304 C   0  0  0  0  0  0  0  0  0  0  0  0
    1.2033   -2.7445   -5.5931 C   0  0  0  0  0  0  0  0  0  0  0  0
    0.3609   -2.0795   -6.0013 N   0  0  0  0  0  0  0  0  0  0  0  0
    1.6783   -4.7542   -4.4808 C   0  0  0  0  0  0  0  0  0  0  0  0
    1.1969   -5.6431   -3.9366 N   0  0  0  0  0  0  0  0  0  0  0  0
    6.4434   -7.5866   -4.0931 C   0  0  0  0  0  0  0  0  0  0  0  0
    7.0901   -7.5572   -2.6860 C   0  0  0  0  0  0  0  0  0  0  0  0
    7.4443   -6.1178   -2.4059 C   0  0  0  0  0  0  0  0  0  0  0  0
    8.4539   -5.7872   -3.1998 C   0  0  0  0  0  0  0  0  0  0  0  0
    8.8008   -6.9973   -4.0312 C   0  0  0  0  0  0  0  0  0  0  0  0
    8.4805   -8.1163   -3.0274 C   0  0  0  0  0  0  0  0  0  0  0  0
    7.6319   -7.1969   -5.0276 C   0  0  0  0  0  0  0  0  0  0  0  0
    2.8134   -0.2791   -5.4569 C   0  0  0  0  0  0  0  0  0  0  0  0
    2.1571    0.8824   -5.8367 C   0  0  0  0  0  0  0  0  0  0  0  0
    1.3353    1.3816   -4.8355 C   0  0  0  0  0  0  0  0  0  0  0  0
    0.3796    2.5284   -4.6650 C   0  0  0  0  0  0  0  0  0  0  0  0
    1.0416    3.8860   -4.9469 C   0  0  0  0  0  0  0  0  0  0  0  0
    2.2472    4.1458   -4.0509 C   0  0  0  0  0  0  0  0  0  0  0  0
   -0.8996    2.3279   -5.5107 C   0  0  0  0  0  0  0  0  0  0  0  0
   -0.6637    2.1752   -7.0071 C   0  0  0  0  0  0  0  0  0  0  0  0
   -0.0015    2.3699   -3.2051 C   0  0  0  0  0  0  0  0  0  0  0  0
    0.6067    1.2467   -2.6387 C   0  0  0  0  0  0  0  0  0  0  0  0
    1.4142    0.6507   -3.6558 C   0  0  0  0  0  0  0  0  0  0  0  0
    2.4548   -0.7018   -3.7905 S   0  0  0  0  0  0  0  0  0  0  0  0
    0.3796    0.8839   -1.2921 C   0  0  0  0  0  0  0  0  0  0  0  0
    0.9899   -0.2268   -0.6836 C   0  0  0  0  0  0  0  0  0  0  0  0
    0.7570   -0.5479    0.6329 C   0  0  0  0  0  0  0  0  0  0  0  0
   -0.1163    0.2294    1.3907 C   0  0  0  0  0  0  0  0  0  0  0  0
   -0.5505    0.0539    2.8359 C   0  0  0  0  0  0  0  0  0  0  0  0
    0.5783    0.3053    3.8666 C   0  0  0  0  0  0  0  0  0  0  0  0
    1.9666   -0.2107    3.5077 C   0  0  0  0  0  0  0  0  0  0  0  0
   -1.3199   -1.2647    3.0791 C   0  0  0  0  0  0  0  0  0  0  0  0
   -0.5034   -2.5482    3.1325 C   0  0  0  0  0  0  0  0  0  0  0  0
   -1.5493    1.1776    2.9627 C   0  0  0  0  0  0  0  0  0  0  0  0
   -2.3925    1.6468    3.9515 C   0  0  0  0  0  0  0  0  0  0  0  0
   -3.1440    2.7420    3.5313 C   0  0  0  0  0  0  0  0  0  0  0  0
   -2.7441    3.1844    1.8661 S   0  0  0  0  0  0  0  0  0  0  0  0
   -1.6237    1.9000    1.7734 C   0  0  0  0  0  0  0  0  0  0  0  0
   -0.7509    1.3297    0.7980 C   0  0  0  0  0  0  0  0  0  0  0  0
   -0.5136    1.7030   -0.5452 C   0  0  0  0  0  0  0  0  0  0  0  0
   -1.1161    2.8253   -1.1434 C   0  0  0  0  0  0  0  0  0  0  0  0
   -0.8654    3.1594   -2.4533 C   0  0  0  0  0  0  0  0  0  0  0  0
   -4.1267    3.5265    4.1527 C   0  0  0  0  0  0  0  0  0  0  0  0
   -4.7516    3.4165    5.3707 C   0  0  0  0  0  0  0  0  0  0  0  0
   -4.6200    2.3471    6.3830 C   0  0  0  0  0  0  0  0  0  0  0  0
   -3.8280    1.4257    6.4275 O   0  0  0  0  0  0  0  0  0  0  0  0
   -5.6791    2.6029    7.3770 C   0  0  0  0  0  0  0  0  0  0  0  0
   -6.0074    1.8593    8.4732 C   0  0  0  0  0  0  0  0  0  0  0  0
   -7.0833    2.2744    9.2887 C   0  0  0  0  0  0  0  0  0  0  0  0
   -7.4712    1.5423   10.4293 C   0  0  0  0  0  0  0  0  0  0  0  0
   -8.5201    1.9509   11.2053 C   0  0  0  0  0  0  0  0  0  0  0  0
   -9.2108    3.1177   10.8509 C   0  0  0  0  0  0  0  0  0  0  0  0
  -10.2413    3.5034   11.6264 F   0  0  0  0  0  0  0  0  0  0  0  0
   -8.8752    3.8651    9.7566 C   0  0  0  0  0  0  0  0  0  0  0  0
   -7.7975    3.4589    8.9457 C   0  0  0  0  0  0  0  0  0  0  0  0
   -7.4276    4.2118    7.8066 C   0  0  0  0  0  0  0  0  0  0  0  0
   -6.3793    3.7906    7.0325 C   0  0  0  0  0  0  0  0  0  0  0  0
   -5.7774    4.3417    5.8213 C   0  0  0  0  0  0  0  0  0  0  0  0
   -6.1130    5.5508    5.2661 C   0  0  0  0  0  0  0  0  0  0  0  0
   -5.5064    6.1570    4.1461 C   0  0  0  0  0  0  0  0  0  0  0  0
   -5.0641    6.7398    3.2597 N   0  0  0  0  0  0  0  0  0  0  0  0
   -7.1195    6.3987    5.7744 C   0  0  0  0  0  0  0  0  0  0  0  0
   -7.9270    7.1353    6.1262 N   0  0  0  0  0  0  0  0  0  0  0  0
    4.2377   -0.4569   -7.0217 H   0  0  0  0  0  0  0  0  0  0  0  0
    7.6275   -4.5402   -6.8373 H   0  0  0  0  0  0  0  0  0  0  0  0
    3.7916   -5.8643   -3.8014 H   0  0  0  0  0  0  0  0  0  0  0  0
    5.9239   -8.5220   -4.2910 H   0  0  0  0  0  0  0  0  0  0  0  0
    6.5191   -8.0697   -1.9164 H   0  0  0  0  0  0  0  0  0  0  0  0
    6.9036   -5.4900   -1.7219 H   0  0  0  0  0  0  0  0  0  0  0  0
    8.9252   -4.8282   -3.3115 H   0  0  0  0  0  0  0  0  0  0  0  0
    9.7878   -7.0002   -4.4862 H   0  0  0  0  0  0  0  0  0  0  0  0
    8.4509   -9.1075   -3.4776 H   0  0  0  0  0  0  0  0  0  0  0  0
    9.1546   -8.1206   -2.1721 H   0  0  0  0  0  0  0  0  0  0  0  0
    7.8877   -7.8777   -5.8369 H   0  0  0  0  0  0  0  0  0  0  0  0
    2.2746    1.3046   -6.8182 H   0  0  0  0  0  0  0  0  0  0  0  0
    0.3016    4.6746   -4.7979 H   0  0  0  0  0  0  0  0  0  0  0  0
    1.3598    3.9141   -5.9896 H   0  0  0  0  0  0  0  0  0  0  0  0
    3.0065    3.3801   -4.1949 H   0  0  0  0  0  0  0  0  0  0  0  0
    1.9567    4.1469   -3.0026 H   0  0  0  0  0  0  0  0  0  0  0  0
    2.6866    5.1120   -4.2870 H   0  0  0  0  0  0  0  0  0  0  0  0
   -1.5568    3.1811   -5.3299 H   0  0  0  0  0  0  0  0  0  0  0  0
   -1.4075    1.4320   -5.1460 H   0  0  0  0  0  0  0  0  0  0  0  0
   -0.1205    3.0236   -7.4153 H   0  0  0  0  0  0  0  0  0  0  0  0
   -0.1118    1.2634   -7.2171 H   0  0  0  0  0  0  0  0  0  0  0  0
   -1.6224    2.1120   -7.5167 H   0  0  0  0  0  0  0  0  0  0  0  0
    1.6594   -0.8362   -1.2727 H   0  0  0  0  0  0  0  0  0  0  0  0
    1.2531   -1.4021    1.0625 H   0  0  0  0  0  0  0  0  0  0  0  0
    0.2598   -0.1262    4.8173 H   0  0  0  0  0  0  0  0  0  0  0  0
    0.6584    1.3860    4.0122 H   0  0  0  0  0  0  0  0  0  0  0  0
    1.9762   -1.2846    3.3515 H   0  0  0  0  0  0  0  0  0  0  0  0
    2.6489    0.0171    4.3244 H   0  0  0  0  0  0  0  0  0  0  0  0
    2.3402    0.2765    2.6104 H   0  0  0  0  0  0  0  0  0  0  0  0
   -2.0726   -1.3562    2.2913 H   0  0  0  0  0  0  0  0  0  0  0  0
   -1.8504   -1.1547    4.0279 H   0  0  0  0  0  0  0  0  0  0  0  0
   -1.1742   -3.3831    3.3253 H   0  0  0  0  0  0  0  0  0  0  0  0
    0.0024   -2.7402    2.1913 H   0  0  0  0  0  0  0  0  0  0  0  0
    0.2281   -2.5171    3.9347 H   0  0  0  0  0  0  0  0  0  0  0  0
   -2.4902    1.2366    4.9392 H   0  0  0  0  0  0  0  0  0  0  0  0
   -1.7847    3.4329   -0.5523 H   0  0  0  0  0  0  0  0  0  0  0  0
   -1.3340    4.0274   -2.8911 H   0  0  0  0  0  0  0  0  0  0  0  0
   -4.4644    4.3452    3.5278 H   0  0  0  0  0  0  0  0  0  0  0  0
   -5.4547    0.9631    8.7126 H   0  0  0  0  0  0  0  0  0  0  0  0
   -6.9235    0.6466   10.6814 H   0  0  0  0  0  0  0  0  0  0  0  0
   -8.8309    1.4018   12.0800 H   0  0  0  0  0  0  0  0  0  0  0  0
   -9.4290    4.7588    9.5145 H   0  0  0  0  0  0  0  0  0  0  0  0
   -7.9920    5.1002    7.5744 H   0  0  0  0  0  0  0  0  0  0  0  0
  1  2  2  0  0  0  0
  2  3  1  0  0  0  0
  3  4  2  0  0  0  0
  3  5  1  0  0  0  0
  5  6  2  0  0  0  0
  6  7  1  0  0  0  0
  7  8  2  0  0  0  0
  8  9  1  0  0  0  0
  9 10  2  0  0  0  0
 10 11  1  0  0  0  0
 11 12  2  0  0  0  0
 12 13  1  0  0  0  0
 13 14  3  0  0  0  0
 12 15  1  0  0  0  0
 15 16  3  0  0  0  0
  8 17  1  0  0  0  0
 17 18  1  0  0  0  0
 18 19  1  0  0  0  0
 19 20  2  0  0  0  0
 20 21  1  0  0  0  0
 21 22  1  0  0  0  0
 21 23  1  0  0  0  0
  1 24  1  0  0  0  0
 24 25  2  0  0  0  0
 25 26  1  0  0  0  0
 26 27  1  0  0  0  0
 27 28  1  0  0  0  0
 28 29  1  0  0  0  0
 27 30  1  0  0  0  0
 30 31  1  0  0  0  0
 27 32  1  0  0  0  0
 32 33  2  0  0  0  0
 33 34  1  0  0  0  0
 34 35  1  0  0  0  0
 33 36  1  0  0  0  0
 36 37  2  0  0  0  0
 37 38  1  0  0  0  0
 38 39  2  0  0  0  0
 39 40  1  0  0  0  0
 40 41  1  0  0  0  0
 41 42  1  0  0  0  0
 40 43  1  0  0  0  0
 43 44  1  0  0  0  0
 40 45  1  0  0  0  0
 45 46  1  0  0  0  0
 46 47  2  0  0  0  0
 47 48  1  0  0  0  0
 48 49  1  0  0  0  0
 49 50  1  0  0  0  0
 50 51  2  0  0  0  0
 51 52  1  0  0  0  0
 52 53  2  0  0  0  0
 47 54  1  0  0  0  0
 54 55  2  0  0  0  0
 55 56  1  0  0  0  0
 56 57  2  0  0  0  0
 56 58  1  0  0  0  0
 58 59  2  0  0  0  0
 59 60  1  0  0  0  0
 60 61  2  0  0  0  0
 61 62  1  0  0  0  0
 62 63  2  0  0  0  0
 63 64  1  0  0  0  0
 63 65  1  0  0  0  0
 65 66  2  0  0  0  0
 66 67  1  0  0  0  0
 67 68  2  0  0  0  0
 68 69  1  0  0  0  0
 69 70  2  0  0  0  0
 70 71  1  0  0  0  0
 71 72  3  0  0  0  0
 70 73  1  0  0  0  0
 73 74  3  0  0  0  0
 11  2  1  0  0  0  0
 23 17  1  0  0  0  0
 35 24  1  0  0  0  0
 51 36  1  0  0  0  0
 69 55  1  0  0  0  0
 10  5  1  0  0  0  0
 22 18  1  0  0  0  0
 34 26  2  0  0  0  0
 50 39  1  0  0  0  0
 68 58  1  0  0  0  0
 23  7  1  0  0  0  0
 53 32  1  0  0  0  0
 66 60  1  0  0  0  0
 49 45  2  0  0  0  0
  1 75  1  0  0  0  0
  6 76  1  0  0  0  0
  9 77  1  0  0  0  0
 17 78  1  0  0  0  0
 18 79  1  0  0  0  0
 19 80  1  0  0  0  0
 20 81  1  0  0  0  0
 21 82  1  0  0  0  0
 22 83  1  0  0  0  0
 22 84  1  0  0  0  0
 23 85  1  0  0  0  0
 25 86  1  0  0  0  0
 28 87  1  0  0  0  0
 28 88  1  0  0  0  0
 29 89  1  0  0  0  0
 29 90  1  0  0  0  0
 29 91  1  0  0  0  0
 30 92  1  0  0  0  0
 30 93  1  0  0  0  0
 31 94  1  0  0  0  0
 31 95  1  0  0  0  0
 31 96  1  0  0  0  0
 37 97  1  0  0  0  0
 38 98  1  0  0  0  0
 41 99  1  0  0  0  0
 41100  1  0  0  0  0
 42101  1  0  0  0  0
 42102  1  0  0  0  0
 42103  1  0  0  0  0
 43104  1  0  0  0  0
 43105  1  0  0  0  0
 44106  1  0  0  0  0
 44107  1  0  0  0  0
 44108  1  0  0  0  0
 46109  1  0  0  0  0
 52110  1  0  0  0  0
 53111  1  0  0  0  0
 54112  1  0  0  0  0
 59113  1  0  0  0  0
 61114  1  0  0  0  0
 62115  1  0  0  0  0
 65116  1  0  0  0  0
 67117  1  0  0  0  0
M  END
