
  xtb     02102222303D
 energy: -202.712982273819 gnorm: 0.000526434802 xtb: 6.4.1 (unknown)
112128  0     0  0            999 V2000
    4.8459   -3.0925   -4.5063 C   0  0  0  0  0  0  0  0  0  0  0  0
    6.1154   -2.6241   -4.6348 C   0  0  0  0  0  0  0  0  0  0  0  0
    7.0403   -3.2631   -5.6117 C   0  0  0  0  0  0  0  0  0  0  0  0
    6.8731   -4.3180   -6.1804 O   0  0  0  0  0  0  0  0  0  0  0  0
    8.1589   -2.3144   -5.7702 C   0  0  0  0  0  0  0  0  0  0  0  0
    9.2260   -2.4103   -6.6609 C   0  0  0  0  0  0  0  0  0  0  0  0
   10.1076   -1.3583   -6.5952 C   0  0  0  0  0  0  0  0  0  0  0  0
    9.9414   -0.2827   -5.7117 C   0  0  0  0  0  0  0  0  0  0  0  0
    8.8991   -0.1778   -4.8223 C   0  0  0  0  0  0  0  0  0  0  0  0
    7.9945   -1.2416   -4.8685 C   0  0  0  0  0  0  0  0  0  0  0  0
    6.8111   -1.4966   -4.0501 C   0  0  0  0  0  0  0  0  0  0  0  0
    6.5688   -0.9364   -2.8229 C   0  0  0  0  0  0  0  0  0  0  0  0
    7.3268    0.1113   -2.2624 C   0  0  0  0  0  0  0  0  0  0  0  0
    7.8881    0.9787   -1.7611 N   0  0  0  0  0  0  0  0  0  0  0  0
    5.5876   -1.3942   -1.9193 C   0  0  0  0  0  0  0  0  0  0  0  0
    4.8521   -1.7476   -1.1118 N   0  0  0  0  0  0  0  0  0  0  0  0
   11.1860    0.4146   -6.1995 C   0  0  0  0  0  0  0  0  0  0  0  0
   11.0114    1.6193   -7.1570 C   0  0  0  0  0  0  0  0  0  0  0  0
    9.7041    1.4075   -7.8794 C   0  0  0  0  0  0  0  0  0  0  0  0
    9.8628    0.3891   -8.7141 C   0  0  0  0  0  0  0  0  0  0  0  0
   11.2807   -0.1061   -8.5716 C   0  0  0  0  0  0  0  0  0  0  0  0
   12.0000    1.2169   -8.2630 C   0  0  0  0  0  0  0  0  0  0  0  0
   11.3730   -0.7842   -7.1821 C   0  0  0  0  0  0  0  0  0  0  0  0
    3.7281   -2.4431   -3.9263 C   0  0  0  0  0  0  0  0  0  0  0  0
    2.3898   -3.4029   -3.3253 S   0  0  0  0  0  0  0  0  0  0  0  0
    1.5551   -1.9837   -2.8061 C   0  0  0  0  0  0  0  0  0  0  0  0
    0.3507   -1.9362   -2.0946 C   0  0  0  0  0  0  0  0  0  0  0  0
   -0.5521   -3.3488   -1.5947 S   0  0  0  0  0  0  0  0  0  0  0  0
   -1.6804   -2.3241   -0.7982 C   0  0  0  0  0  0  0  0  0  0  0  0
   -2.8442   -2.4413   -0.0240 C   0  0  0  0  0  0  0  0  0  0  0  0
   -3.6218   -3.5718    0.3072 C   0  0  0  0  0  0  0  0  0  0  0  0
   -4.8175   -3.3838    1.0742 C   0  0  0  0  0  0  0  0  0  0  0  0
   -5.4778   -4.5139    1.2697 N   0  0  0  0  0  0  0  0  0  0  0  0
   -4.6615   -5.7140    0.5511 S   0  0  0  0  0  0  0  0  0  0  0  0
   -3.4336   -4.8365   -0.0353 N   0  0  0  0  0  0  0  0  0  0  0  0
   -5.0991   -2.0959    1.5794 C   0  0  0  0  0  0  0  0  0  0  0  0
   -6.0416   -1.6764    2.5263 C   0  0  0  0  0  0  0  0  0  0  0  0
   -7.3363   -2.3506    3.4356 S   0  0  0  0  0  0  0  0  0  0  0  0
   -7.5115   -0.8265    4.2769 C   0  0  0  0  0  0  0  0  0  0  0  0
   -8.4518   -0.5961    5.2871 C   0  0  0  0  0  0  0  0  0  0  0  0
   -8.5470    0.6379    5.9580 C   0  0  0  0  0  0  0  0  0  0  0  0
   -7.6340    1.6453    5.5631 C   0  0  0  0  0  0  0  0  0  0  0  0
   -7.4613    2.8918    6.0051 N   0  0  0  0  0  0  0  0  0  0  0  0
   -6.4721    3.3566    5.2884 N   0  0  0  0  0  0  0  0  0  0  0  0
   -5.9443    4.6757    5.4855 C   0  0  0  0  0  0  0  0  0  0  0  0
   -4.7088    4.6333    6.3797 C   0  0  0  0  0  0  0  0  0  0  0  0
   -5.9590    2.5362    4.4065 N   0  0  0  0  0  0  0  0  0  0  0  0
   -6.6731    1.4126    4.5339 C   0  0  0  0  0  0  0  0  0  0  0  0
   -6.5983    0.1661    3.8596 C   0  0  0  0  0  0  0  0  0  0  0  0
   -5.7669   -0.3410    2.8349 C   0  0  0  0  0  0  0  0  0  0  0  0
   -4.7062    0.0831    2.0770 N   0  0  0  0  0  0  0  0  0  0  0  0
   -4.2836   -0.9665    1.2854 C   0  0  0  0  0  0  0  0  0  0  0  0
   -3.2124   -1.1228    0.3604 C   0  0  0  0  0  0  0  0  0  0  0  0
   -2.3247   -0.2290   -0.2279 N   0  0  0  0  0  0  0  0  0  0  0  0
   -1.3908   -0.9645   -0.9196 C   0  0  0  0  0  0  0  0  0  0  0  0
   -0.2211   -0.7172   -1.6732 C   0  0  0  0  0  0  0  0  0  0  0  0
    0.4726    0.4661   -2.0332 C   0  0  0  0  0  0  0  0  0  0  0  0
    1.6943    0.4144   -2.7673 C   0  0  0  0  0  0  0  0  0  0  0  0
    2.2686   -0.8208   -3.1488 C   0  0  0  0  0  0  0  0  0  0  0  0
    3.4902   -1.0952   -3.7733 C   0  0  0  0  0  0  0  0  0  0  0  0
    2.1089    1.6684   -2.9532 N   0  0  0  0  0  0  0  0  0  0  0  0
    1.1983    2.4023   -2.3723 N   0  0  0  0  0  0  0  0  0  0  0  0
    1.3022    3.8314   -2.3121 C   0  0  0  0  0  0  0  0  0  0  0  0
    2.0643    4.2618   -1.0621 C   0  0  0  0  0  0  0  0  0  0  0  0
    0.2072    1.7576   -1.8061 N   0  0  0  0  0  0  0  0  0  0  0  0
   -2.6030    1.1208   -0.6742 C   0  0  0  0  0  0  0  0  0  0  0  0
   -3.6273    1.1106   -1.8088 C   0  0  0  0  0  0  0  0  0  0  0  0
   -4.1034    1.3763    2.2862 C   0  0  0  0  0  0  0  0  0  0  0  0
   -4.8518    2.4763    1.5312 C   0  0  0  0  0  0  0  0  0  0  0  0
   -9.5459    0.6460    6.9357 C   0  0  0  0  0  0  0  0  0  0  0  0
  -10.2192   -0.5561    7.0330 C   0  0  0  0  0  0  0  0  0  0  0  0
   -9.6080   -1.7348    5.8838 S   0  0  0  0  0  0  0  0  0  0  0  0
  -11.2679   -0.8191    7.9427 C   0  0  0  0  0  0  0  0  0  0  0  0
  -11.9604   -1.9833    8.1018 C   0  0  0  0  0  0  0  0  0  0  0  0
  -11.7459   -3.1676    7.3669 C   0  0  0  0  0  0  0  0  0  0  0  0
  -11.6125   -4.1567    6.8005 N   0  0  0  0  0  0  0  0  0  0  0  0
  -12.9865   -2.0709    9.0681 C   0  0  0  0  0  0  0  0  0  0  0  0
  -13.8187   -2.1348    9.8546 N   0  0  0  0  0  0  0  0  0  0  0  0
    4.6628   -4.0657   -4.9509 H   0  0  0  0  0  0  0  0  0  0  0  0
    9.3186   -3.2550   -7.3255 H   0  0  0  0  0  0  0  0  0  0  0  0
    8.7780    0.6561   -4.1506 H   0  0  0  0  0  0  0  0  0  0  0  0
   11.9578    0.5872   -5.4522 H   0  0  0  0  0  0  0  0  0  0  0  0
   11.1502    2.5906   -6.6898 H   0  0  0  0  0  0  0  0  0  0  0  0
    8.8091    1.9653   -7.6741 H   0  0  0  0  0  0  0  0  0  0  0  0
    9.1271   -0.0741   -9.3451 H   0  0  0  0  0  0  0  0  0  0  0  0
   11.6649   -0.7051   -9.3930 H   0  0  0  0  0  0  0  0  0  0  0  0
   13.0199    1.0832   -7.9054 H   0  0  0  0  0  0  0  0  0  0  0  0
   11.9929    1.9066   -9.1057 H   0  0  0  0  0  0  0  0  0  0  0  0
   12.2680   -1.3942   -7.0766 H   0  0  0  0  0  0  0  0  0  0  0  0
   -6.7335    5.2717    5.9464 H   0  0  0  0  0  0  0  0  0  0  0  0
   -5.6892    5.0843    4.5050 H   0  0  0  0  0  0  0  0  0  0  0  0
   -3.9387    4.0144    5.9259 H   0  0  0  0  0  0  0  0  0  0  0  0
   -4.9627    4.2215    7.3533 H   0  0  0  0  0  0  0  0  0  0  0  0
   -4.3174    5.6372    6.5159 H   0  0  0  0  0  0  0  0  0  0  0  0
    4.1528   -0.3243   -4.1233 H   0  0  0  0  0  0  0  0  0  0  0  0
    0.2881    4.2365   -2.3024 H   0  0  0  0  0  0  0  0  0  0  0  0
    1.8286    4.1582   -3.2107 H   0  0  0  0  0  0  0  0  0  0  0  0
    3.0653    3.8379   -1.0702 H   0  0  0  0  0  0  0  0  0  0  0  0
    2.1420    5.3447   -1.0316 H   0  0  0  0  0  0  0  0  0  0  0  0
    1.5460    3.9205   -0.1693 H   0  0  0  0  0  0  0  0  0  0  0  0
   -1.6592    1.5389   -1.0306 H   0  0  0  0  0  0  0  0  0  0  0  0
   -2.9622    1.7373    0.1407 H   0  0  0  0  0  0  0  0  0  0  0  0
   -3.8245    2.1271   -2.1388 H   0  0  0  0  0  0  0  0  0  0  0  0
   -3.2500    0.5390   -2.6536 H   0  0  0  0  0  0  0  0  0  0  0  0
   -4.5621    0.6586   -1.4809 H   0  0  0  0  0  0  0  0  0  0  0  0
   -4.1634    1.6004    3.3540 H   0  0  0  0  0  0  0  0  0  0  0  0
   -3.0490    1.3186    2.0127 H   0  0  0  0  0  0  0  0  0  0  0  0
   -4.2794    3.3997    1.5522 H   0  0  0  0  0  0  0  0  0  0  0  0
   -5.0425    2.1964    0.4987 H   0  0  0  0  0  0  0  0  0  0  0  0
   -5.8057    2.6552    2.0181 H   0  0  0  0  0  0  0  0  0  0  0  0
   -9.7633    1.5012    7.5499 H   0  0  0  0  0  0  0  0  0  0  0  0
  -11.5417    0.0102    8.5850 H   0  0  0  0  0  0  0  0  0  0  0  0
  1  2  2  0  0  0  0
  2  3  1  0  0  0  0
  3  4  2  0  0  0  0
  3  5  1  0  0  0  0
  5  6  2  0  0  0  0
  6  7  1  0  0  0  0
  7  8  2  0  0  0  0
  8  9  1  0  0  0  0
  9 10  2  0  0  0  0
 10 11  1  0  0  0  0
 11 12  2  0  0  0  0
 12 13  1  0  0  0  0
 13 14  3  0  0  0  0
 12 15  1  0  0  0  0
 15 16  3  0  0  0  0
  8 17  1  0  0  0  0
 17 18  1  0  0  0  0
 18 19  1  0  0  0  0
 19 20  2  0  0  0  0
 20 21  1  0  0  0  0
 21 22  1  0  0  0  0
 21 23  1  0  0  0  0
  1 24  1  0  0  0  0
 24 25  1  0  0  0  0
 25 26  1  0  0  0  0
 26 27  1  0  0  0  0
 27 28  1  0  0  0  0
 28 29  1  0  0  0  0
 29 30  1  0  0  0  0
 30 31  1  0  0  0  0
 31 32  1  0  0  0  0
 32 33  2  0  0  0  0
 33 34  1  0  0  0  0
 34 35  1  0  0  0  0
 32 36  1  0  0  0  0
 36 37  1  0  0  0  0
 37 38  1  0  0  0  0
 38 39  1  0  0  0  0
 39 40  1  0  0  0  0
 40 41  2  0  0  0  0
 41 42  1  0  0  0  0
 42 43  2  0  0  0  0
 43 44  1  0  0  0  0
 44 45  1  0  0  0  0
 45 46  1  0  0  0  0
 44 47  1  0  0  0  0
 47 48  2  0  0  0  0
 48 49  1  0  0  0  0
 49 50  1  0  0  0  0
 50 51  1  0  0  0  0
 51 52  1  0  0  0  0
 52 53  1  0  0  0  0
 53 54  1  0  0  0  0
 54 55  1  0  0  0  0
 55 56  1  0  0  0  0
 56 57  1  0  0  0  0
 57 58  1  0  0  0  0
 58 59  1  0  0  0  0
 59 60  1  0  0  0  0
 58 61  2  0  0  0  0
 61 62  1  0  0  0  0
 62 63  1  0  0  0  0
 63 64  1  0  0  0  0
 62 65  1  0  0  0  0
 54 66  1  0  0  0  0
 66 67  1  0  0  0  0
 51 68  1  0  0  0  0
 68 69  1  0  0  0  0
 41 70  1  0  0  0  0
 70 71  2  0  0  0  0
 71 72  1  0  0  0  0
 71 73  1  0  0  0  0
 73 74  2  0  0  0  0
 74 75  1  0  0  0  0
 75 76  3  0  0  0  0
 74 77  1  0  0  0  0
 77 78  3  0  0  0  0
 11  2  1  0  0  0  0
 23 17  1  0  0  0  0
 60 24  2  0  0  0  0
 10  5  1  0  0  0  0
 22 18  1  0  0  0  0
 59 26  2  0  0  0  0
 23  7  1  0  0  0  0
 56 27  2  0  0  0  0
 65 57  2  0  0  0  0
 55 29  2  0  0  0  0
 53 30  2  0  0  0  0
 35 31  2  0  0  0  0
 52 36  2  0  0  0  0
 50 37  2  0  0  0  0
 49 39  2  0  0  0  0
 72 40  1  0  0  0  0
 48 42  1  0  0  0  0
  1 79  1  0  0  0  0
  6 80  1  0  0  0  0
  9 81  1  0  0  0  0
 17 82  1  0  0  0  0
 18 83  1  0  0  0  0
 19 84  1  0  0  0  0
 20 85  1  0  0  0  0
 21 86  1  0  0  0  0
 22 87  1  0  0  0  0
 22 88  1  0  0  0  0
 23 89  1  0  0  0  0
 45 90  1  0  0  0  0
 45 91  1  0  0  0  0
 46 92  1  0  0  0  0
 46 93  1  0  0  0  0
 46 94  1  0  0  0  0
 60 95  1  0  0  0  0
 63 96  1  0  0  0  0
 63 97  1  0  0  0  0
 64 98  1  0  0  0  0
 64 99  1  0  0  0  0
 64100  1  0  0  0  0
 66101  1  0  0  0  0
 66102  1  0  0  0  0
 67103  1  0  0  0  0
 67104  1  0  0  0  0
 67105  1  0  0  0  0
 68106  1  0  0  0  0
 68107  1  0  0  0  0
 69108  1  0  0  0  0
 69109  1  0  0  0  0
 69110  1  0  0  0  0
 70111  1  0  0  0  0
 73112  1  0  0  0  0
M  END
