168

C          7.22930       -5.58340        0.69170
C          7.97280       -6.04370       -0.34810
C          9.30410       -6.66230       -0.10020
O          9.74320       -7.02970        0.96600
C          9.97620       -6.67680       -1.41370
C         11.28910       -7.05800       -1.68610
C         11.63850       -6.95650       -3.01130
C         10.75260       -6.50350       -3.99910
C          9.45380       -6.13040       -3.74840
C          9.07660       -6.23350       -2.40670
C          7.78000       -5.99040       -1.78210
C          6.57270       -6.01140       -2.43020
C          6.41950       -6.07010       -3.83020
N          6.23180       -6.10970       -4.96200
C          5.33390       -6.09210       -1.76430
N          4.29970       -6.21860       -1.28010
C         11.77460       -6.65350       -5.09820
C         12.45220       -5.35970       -5.59670
C         13.70210       -5.85100       -6.29060
C         14.54030       -6.28040       -5.35590
C         13.87100       -6.08680       -4.01430
C         13.06690       -4.81230       -4.30210
C         12.76160       -7.15990       -3.99790
C          6.15940       -4.65520        0.67450
C          5.18100       -4.52920        1.64240
C          4.26400       -3.52940        1.33340
S          2.80320       -2.95390        2.08350
C          2.61230       -1.80990        0.79830
C          1.64090       -0.82010        0.44470
C          0.47530       -0.40300        1.08210
C         -0.24900        0.59580        0.47370
C         -1.52560        1.25450        0.96190
C         -2.58190        0.20080        1.22330
C         -3.45200       -0.20330        0.21780
C         -4.39390       -1.17910        0.47890
C         -4.48590       -1.77030        1.72770
C         -3.60940       -1.38090        2.73500
O         -3.59390       -1.88000        3.99800
C         -4.52920       -2.87900        4.35430
C         -4.28290       -3.24260        5.80990
C         -2.65730       -0.39710        2.46840
C         -1.32200        2.15930        2.16800
C         -0.06440        2.54640        2.59820
C          0.04990        3.42190        3.66800
C         -1.07180        3.90790        4.30290
C         -2.34620        3.52830        3.87020
O         -3.38610        4.06890        4.54980
C         -4.71380        3.68430        4.23420
C         -5.06620        2.29580        4.76130
C         -2.45810        2.65850        2.79330
C         -1.83310        2.16680       -0.19400
C         -0.83050        2.10330       -1.14660
C          0.15480        1.13850       -0.77020
C          1.32430        0.72740       -1.40400
C          2.07070       -0.23930       -0.77300
C          3.41240       -0.80450       -1.20210
C          3.32540       -1.33820       -2.61670
C          3.61050       -0.51450       -3.69450
C          3.49730       -1.00890       -4.98420
C          3.08560       -2.30480       -5.20530
C          2.76480       -3.13310       -4.12670
O          2.34050       -4.37780       -4.44360
C          1.90230       -5.24810       -3.41540
C          1.49050       -6.55680       -4.06960
C          2.89000       -2.64010       -2.83230
C          4.53760        0.20370       -1.01060
C          5.78640       -0.03920       -1.56160
C          6.81530        0.86320       -1.34640
C          6.61310        1.99570       -0.58560
C          5.36570        2.23590       -0.00690
O          5.26410        3.36300        0.74670
C          4.04420        3.67520        1.39080
C          2.99720        4.26970        0.45190
C          4.33760        1.32590       -0.21810
C          3.61940       -1.85890       -0.15120
C          4.56320       -2.83540        0.14760
S          5.98580       -3.44850       -0.59840
S         -1.05870        3.17560       -2.48730
C         -2.54460        3.73010       -1.75870
C         -3.51390        4.64300       -2.12620
C         -4.54790        4.72730       -1.19060
S         -4.28520        3.64650        0.17290
C         -2.81450        3.09610       -0.52730
C         -5.64630        5.58050       -1.37550
C         -6.75390        5.78740       -0.59490
C         -7.04240        5.13580        0.68740
O         -6.34940        4.33010        1.28760
C         -8.35140        5.64180        1.12690
C         -9.03870        5.28890        2.28660
C        -10.25580        5.91100        2.42500
C        -10.75030        6.82160        1.48160
C        -10.07860        7.18410        0.33810
C         -8.83860        6.55890        0.17420
C         -7.85580        6.68050       -0.90220
C         -7.97880        7.50160       -1.99340
C         -7.04110        7.63930       -3.03840
N         -6.33950        7.81890       -3.93060
C         -9.07950        8.35030       -2.23650
N         -9.93660        9.06500       -2.50670
C        -12.02900        7.04600        2.24940
C        -13.28800        6.33230        1.71290
C        -14.23450        6.33430        2.89170
C        -13.76680        5.47300        3.78610
C        -12.49640        4.87410        3.22690
C        -12.84560        4.86340        1.73300
C        -11.47750        6.03130        3.30190
H          7.53880       -5.92700        1.67440
H         11.93990       -7.40560       -0.89930
H          8.77870       -5.78110       -4.51260
H         11.50250       -7.33010       -5.90590
H         11.80530       -4.69690       -6.16480
H         13.82130       -5.88650       -7.35760
H         15.49950       -6.74620       -5.48610
H         14.51720       -6.08550       -3.14070
H         12.33650       -4.56520       -3.53380
H         13.71000       -3.95260       -4.48330
H         13.14940       -8.17400       -4.07330
H          5.12190       -5.17180        2.50170
H          0.16470       -0.84130        2.01780
H         -3.39550        0.24400       -0.76270
H         -5.07410       -1.48770       -0.30100
H         -5.23590       -2.52540        1.90100
H         -4.39850       -3.76320        3.71480
H         -5.55280       -2.49990        4.22570
H         -4.98050       -4.01470        6.12160
H         -4.41460       -2.36610        6.43840
H         -3.26700       -3.60740        5.93340
H         -1.99350       -0.10360        3.26710
H          0.82120        2.16950        2.11010
H          1.02990        3.72380        4.00760
H         -0.99370        4.58730        5.13660
H         -5.33090        4.43570        4.73530
H         -4.89770        3.75290        3.15660
H         -6.10550        2.07720        4.53200
H         -4.44040        1.53120        4.30760
H         -4.92480        2.26050        5.83920
H         -3.42400        2.35340        2.42490
H          1.63190        1.15820       -2.34440
H          3.93420        0.50200       -3.52960
H          3.73150       -0.37100       -5.82340
H          2.99490       -2.70480       -6.20230
H          2.70850       -5.43120       -2.69380
H          1.05040       -4.79800       -2.88570
H          1.15930       -7.25810       -3.30940
H          2.33720       -6.98110       -4.60190
H          0.68460       -6.38500       -4.77810
H          2.65220       -3.26470       -1.98530
H          5.94980       -0.92130       -2.16200
H          7.78650        0.67760       -1.77970
H          7.40520        2.70720       -0.41570
H          3.64660        2.79320        1.90940
H          4.32240        4.41760        2.14440
H          2.10880        4.53400        1.02000
H          2.71740        3.56440       -0.32700
H          3.39400        5.16360       -0.02230
H          3.37070        1.48020        0.23110
H         -3.49790        5.23090       -3.02630
H         -5.58700        6.14590       -2.29750
H         -8.61700        4.58510        2.98720
H        -10.47380        7.88970       -0.37290
H        -12.22150        8.07010        2.56290
H        -13.67110        6.72810        0.77640
H        -15.08800        6.98120        2.97450
H        -14.15150        5.25680        4.76550
H        -12.15930        3.94070        3.66970
H        -13.66570        4.18390        1.50710
H        -12.00180        4.64460        1.08120
H        -11.30150        6.37880        4.31810
