
  xtb     02012219283D
 energy: -235.323158137275 gnorm: 0.000908246857 xtb: 6.4.1 (unknown)
130148  0     0  0            999 V2000
   -5.7615   -7.1071   -0.1259 C   0  0  0  0  0  0  0  0  0  0  0  0
   -5.6783   -7.9053   -1.2338 C   0  0  0  0  0  0  0  0  0  0  0  0
   -4.7481   -7.7244   -2.3583 C   0  0  0  0  0  0  0  0  0  0  0  0
   -3.8883   -6.8711   -2.4793 O   0  0  0  0  0  0  0  0  0  0  0  0
   -5.0615   -8.7867   -3.3286 C   0  0  0  0  0  0  0  0  0  0  0  0
   -4.4432   -9.0056   -4.5579 C   0  0  0  0  0  0  0  0  0  0  0  0
   -4.9517  -10.0743   -5.2560 C   0  0  0  0  0  0  0  0  0  0  0  0
   -5.9961  -10.8695   -4.7654 C   0  0  0  0  0  0  0  0  0  0  0  0
   -6.6112  -10.6668   -3.5529 C   0  0  0  0  0  0  0  0  0  0  0  0
   -6.1117   -9.5811   -2.8260 C   0  0  0  0  0  0  0  0  0  0  0  0
   -6.5074   -9.0620   -1.5176 C   0  0  0  0  0  0  0  0  0  0  0  0
   -7.4838   -9.5981   -0.7173 C   0  0  0  0  0  0  0  0  0  0  0  0
   -7.8696   -9.1218    0.5532 C   0  0  0  0  0  0  0  0  0  0  0  0
   -8.2477   -8.8119    1.5934 N   0  0  0  0  0  0  0  0  0  0  0  0
   -8.2584  -10.7300   -1.0479 C   0  0  0  0  0  0  0  0  0  0  0  0
   -8.9322  -11.6390   -1.2448 N   0  0  0  0  0  0  0  0  0  0  0  0
   -6.0043  -11.7539   -5.9877 C   0  0  0  0  0  0  0  0  0  0  0  0
   -7.1335  -11.5058   -7.0103 C   0  0  0  0  0  0  0  0  0  0  0  0
   -6.6213  -12.1505   -8.2782 C   0  0  0  0  0  0  0  0  0  0  0  0
   -5.6329  -11.3970   -8.7431 C   0  0  0  0  0  0  0  0  0  0  0  0
   -5.4604  -10.2303   -7.7972 C   0  0  0  0  0  0  0  0  0  0  0  0
   -6.9170  -10.0277   -7.3600 C   0  0  0  0  0  0  0  0  0  0  0  0
   -4.8402  -10.8668   -6.5349 C   0  0  0  0  0  0  0  0  0  0  0  0
   -5.0197   -5.9689    0.2404 C   0  0  0  0  0  0  0  0  0  0  0  0
   -3.6957   -5.2358   -0.6489 S   0  0  0  0  0  0  0  0  0  0  0  0
   -3.5231   -4.0175    0.5657 C   0  0  0  0  0  0  0  0  0  0  0  0
   -2.5945   -2.9694    0.5648 C   0  0  0  0  0  0  0  0  0  0  0  0
   -1.3832   -2.7362   -0.6777 S   0  0  0  0  0  0  0  0  0  0  0  0
   -0.8197   -1.3413    0.1559 C   0  0  0  0  0  0  0  0  0  0  0  0
    0.1541   -0.3429    0.0040 C   0  0  0  0  0  0  0  0  0  0  0  0
    1.0669   -0.1046   -1.0456 C   0  0  0  0  0  0  0  0  0  0  0  0
    1.9036    1.0566   -0.9794 C   0  0  0  0  0  0  0  0  0  0  0  0
    2.6753    1.1878   -2.0469 N   0  0  0  0  0  0  0  0  0  0  0  0
    2.3765   -0.0505   -3.0479 S   0  0  0  0  0  0  0  0  0  0  0  0
    1.2506   -0.7993   -2.1574 N   0  0  0  0  0  0  0  0  0  0  0  0
    1.8645    1.8512    0.1863 C   0  0  0  0  0  0  0  0  0  0  0  0
    2.6835    2.9126    0.5904 C   0  0  0  0  0  0  0  0  0  0  0  0
    3.9817    3.8485   -0.0413 S   0  0  0  0  0  0  0  0  0  0  0  0
    4.0875    4.6953    1.4862 C   0  0  0  0  0  0  0  0  0  0  0  0
    5.0109    5.7110    1.7543 C   0  0  0  0  0  0  0  0  0  0  0  0
    5.0656    6.3740    2.9921 C   0  0  0  0  0  0  0  0  0  0  0  0
    4.1481    5.9424    3.9782 C   0  0  0  0  0  0  0  0  0  0  0  0
    3.9679    6.3384    5.2392 N   0  0  0  0  0  0  0  0  0  0  0  0
    3.0069    5.5750    5.6858 N   0  0  0  0  0  0  0  0  0  0  0  0
    2.4815    5.7142    7.0130 C   0  0  0  0  0  0  0  0  0  0  0  0
    1.2266    6.5824    7.0054 C   0  0  0  0  0  0  0  0  0  0  0  0
    2.5169    4.7028    4.8410 N   0  0  0  0  0  0  0  0  0  0  0  0
    3.2141    4.8948    3.7154 C   0  0  0  0  0  0  0  0  0  0  0  0
    3.1529    4.2588    2.4489 C   0  0  0  0  0  0  0  0  0  0  0  0
    2.3407    3.2356    1.9052 C   0  0  0  0  0  0  0  0  0  0  0  0
    1.3144    2.4229    2.3116 N   0  0  0  0  0  0  0  0  0  0  0  0
    0.9857    1.5736    1.2724 C   0  0  0  0  0  0  0  0  0  0  0  0
    0.0342    0.5238    1.1258 C   0  0  0  0  0  0  0  0  0  0  0  0
   -1.0201    0.0752    1.9137 N   0  0  0  0  0  0  0  0  0  0  0  0
   -1.5271   -1.0607    1.3258 C   0  0  0  0  0  0  0  0  0  0  0  0
   -2.5506   -1.9975    1.5866 C   0  0  0  0  0  0  0  0  0  0  0  0
   -3.4755   -2.1554    2.6519 C   0  0  0  0  0  0  0  0  0  0  0  0
   -4.4116   -3.2304    2.6662 C   0  0  0  0  0  0  0  0  0  0  0  0
   -4.4576   -4.1759    1.6112 C   0  0  0  0  0  0  0  0  0  0  0  0
   -5.2855   -5.2765    1.4158 C   0  0  0  0  0  0  0  0  0  0  0  0
   -5.1312   -3.1254    3.7833 N   0  0  0  0  0  0  0  0  0  0  0  0
   -4.6534   -2.0676    4.3825 N   0  0  0  0  0  0  0  0  0  0  0  0
   -5.1318   -1.6427    5.6658 C   0  0  0  0  0  0  0  0  0  0  0  0
   -4.3106   -2.2818    6.7822 C   0  0  0  0  0  0  0  0  0  0  0  0
   -3.6720   -1.4487    3.7702 N   0  0  0  0  0  0  0  0  0  0  0  0
   -1.9181    0.8671    2.7289 C   0  0  0  0  0  0  0  0  0  0  0  0
   -2.7927    1.7609    1.8494 C   0  0  0  0  0  0  0  0  0  0  0  0
    0.8557    2.4302    3.6789 C   0  0  0  0  0  0  0  0  0  0  0  0
   -0.1672    3.5412    3.9247 C   0  0  0  0  0  0  0  0  0  0  0  0
    6.0498    7.3710    3.0330 C   0  0  0  0  0  0  0  0  0  0  0  0
    6.7823    7.4565    1.8724 C   0  0  0  0  0  0  0  0  0  0  0  0
    6.2083    6.3165    0.6653 S   0  0  0  0  0  0  0  0  0  0  0  0
    7.8202    8.3859    1.6008 C   0  0  0  0  0  0  0  0  0  0  0  0
    8.7868    8.3141    0.6526 C   0  0  0  0  0  0  0  0  0  0  0  0
    9.5043    9.5401    0.2095 C   0  0  0  0  0  0  0  0  0  0  0  0
    9.5346   10.6091    0.7741 O   0  0  0  0  0  0  0  0  0  0  0  0
   10.1009    9.1802   -1.0953 C   0  0  0  0  0  0  0  0  0  0  0  0
   10.7573    9.9899   -2.0008 C   0  0  0  0  0  0  0  0  0  0  0  0
   11.1816    9.4157   -3.1907 C   0  0  0  0  0  0  0  0  0  0  0  0
   10.9251    8.0857   -3.4800 C   0  0  0  0  0  0  0  0  0  0  0  0
   10.2549    7.2572   -2.5740 C   0  0  0  0  0  0  0  0  0  0  0  0
    9.8975    5.9819   -2.8085 O   0  0  0  0  0  0  0  0  0  0  0  0
   10.3295    5.3389   -3.9859 C   0  0  0  0  0  0  0  0  0  0  0  0
    9.8781    7.8152   -1.3466 C   0  0  0  0  0  0  0  0  0  0  0  0
    9.2523    7.2146   -0.1775 C   0  0  0  0  0  0  0  0  0  0  0  0
    9.3795    5.9198    0.2465 C   0  0  0  0  0  0  0  0  0  0  0  0
    8.9753    5.5019    1.5340 C   0  0  0  0  0  0  0  0  0  0  0  0
    8.7098    5.1384    2.5900 N   0  0  0  0  0  0  0  0  0  0  0  0
   10.0622    4.8887   -0.4323 C   0  0  0  0  0  0  0  0  0  0  0  0
   10.6340    3.9961   -0.8728 N   0  0  0  0  0  0  0  0  0  0  0  0
   -6.5184   -7.3628    0.6059 H   0  0  0  0  0  0  0  0  0  0  0  0
   -3.6390   -8.3697   -4.8935 H   0  0  0  0  0  0  0  0  0  0  0  0
   -7.4104  -11.2915   -3.1912 H   0  0  0  0  0  0  0  0  0  0  0  0
   -5.8153  -12.8109   -5.8099 H   0  0  0  0  0  0  0  0  0  0  0  0
   -8.1238  -11.8024   -6.6755 H   0  0  0  0  0  0  0  0  0  0  0  0
   -6.9814  -13.0865   -8.6632 H   0  0  0  0  0  0  0  0  0  0  0  0
   -5.0022  -11.5780   -9.5937 H   0  0  0  0  0  0  0  0  0  0  0  0
   -4.9268   -9.3646   -8.1800 H   0  0  0  0  0  0  0  0  0  0  0  0
   -7.0374   -9.3497   -6.5170 H   0  0  0  0  0  0  0  0  0  0  0  0
   -7.5519   -9.7023   -8.1825 H   0  0  0  0  0  0  0  0  0  0  0  0
   -3.8745  -11.3323   -6.7233 H   0  0  0  0  0  0  0  0  0  0  0  0
    3.2629    6.1720    7.6216 H   0  0  0  0  0  0  0  0  0  0  0  0
    2.2501    4.7151    7.3888 H   0  0  0  0  0  0  0  0  0  0  0  0
    0.4617    6.1307    6.3783 H   0  0  0  0  0  0  0  0  0  0  0  0
    1.4574    7.5728    6.6209 H   0  0  0  0  0  0  0  0  0  0  0  0
    0.8396    6.6810    8.0154 H   0  0  0  0  0  0  0  0  0  0  0  0
   -6.0593   -5.5656    2.1043 H   0  0  0  0  0  0  0  0  0  0  0  0
   -6.1775   -1.9463    5.7395 H   0  0  0  0  0  0  0  0  0  0  0  0
   -5.0524   -0.5543    5.7070 H   0  0  0  0  0  0  0  0  0  0  0  0
   -4.3824   -3.3651    6.7254 H   0  0  0  0  0  0  0  0  0  0  0  0
   -3.2660   -1.9934    6.6928 H   0  0  0  0  0  0  0  0  0  0  0  0
   -4.6840   -1.9562    7.7487 H   0  0  0  0  0  0  0  0  0  0  0  0
   -1.3712    1.4718    3.4405 H   0  0  0  0  0  0  0  0  0  0  0  0
   -2.5456    0.1663    3.2839 H   0  0  0  0  0  0  0  0  0  0  0  0
   -3.4588    2.3545    2.4699 H   0  0  0  0  0  0  0  0  0  0  0  0
   -2.1786    2.4308    1.2494 H   0  0  0  0  0  0  0  0  0  0  0  0
   -3.3947    1.1555    1.1757 H   0  0  0  0  0  0  0  0  0  0  0  0
    1.7216    2.6245    4.3168 H   0  0  0  0  0  0  0  0  0  0  0  0
    0.4722    1.4391    3.9253 H   0  0  0  0  0  0  0  0  0  0  0  0
   -0.9390    3.5550    3.1598 H   0  0  0  0  0  0  0  0  0  0  0  0
   -0.6303    3.4131    4.8995 H   0  0  0  0  0  0  0  0  0  0  0  0
    0.3425    4.4998    3.9115 H   0  0  0  0  0  0  0  0  0  0  0  0
    6.2380    7.9793    3.8988 H   0  0  0  0  0  0  0  0  0  0  0  0
    7.7888    9.3067    2.1753 H   0  0  0  0  0  0  0  0  0  0  0  0
   10.9302   11.0305   -1.7780 H   0  0  0  0  0  0  0  0  0  0  0  0
   11.7096   10.0150   -3.9172 H   0  0  0  0  0  0  0  0  0  0  0  0
   11.2466    7.6886   -4.4300 H   0  0  0  0  0  0  0  0  0  0  0  0
    9.9928    4.3090   -3.8877 H   0  0  0  0  0  0  0  0  0  0  0  0
   11.4194    5.3543   -4.0706 H   0  0  0  0  0  0  0  0  0  0  0  0
    9.8802    5.7913   -4.8754 H   0  0  0  0  0  0  0  0  0  0  0  0
  1  2  2  0  0  0  0
  2  3  1  0  0  0  0
  3  4  2  0  0  0  0
  3  5  1  0  0  0  0
  5  6  2  0  0  0  0
  6  7  1  0  0  0  0
  7  8  2  0  0  0  0
  8  9  1  0  0  0  0
  9 10  2  0  0  0  0
 10 11  1  0  0  0  0
 11 12  2  0  0  0  0
 12 13  1  0  0  0  0
 13 14  3  0  0  0  0
 12 15  1  0  0  0  0
 15 16  3  0  0  0  0
  8 17  1  0  0  0  0
 17 18  1  0  0  0  0
 18 19  1  0  0  0  0
 19 20  2  0  0  0  0
 20 21  1  0  0  0  0
 21 22  1  0  0  0  0
 21 23  1  0  0  0  0
  1 24  1  0  0  0  0
 24 25  1  0  0  0  0
 25 26  1  0  0  0  0
 26 27  1  0  0  0  0
 27 28  1  0  0  0  0
 28 29  1  0  0  0  0
 29 30  1  0  0  0  0
 30 31  1  0  0  0  0
 31 32  1  0  0  0  0
 32 33  2  0  0  0  0
 33 34  1  0  0  0  0
 34 35  1  0  0  0  0
 32 36  1  0  0  0  0
 36 37  1  0  0  0  0
 37 38  1  0  0  0  0
 38 39  1  0  0  0  0
 39 40  1  0  0  0  0
 40 41  2  0  0  0  0
 41 42  1  0  0  0  0
 42 43  2  0  0  0  0
 43 44  1  0  0  0  0
 44 45  1  0  0  0  0
 45 46  1  0  0  0  0
 44 47  1  0  0  0  0
 47 48  2  0  0  0  0
 48 49  1  0  0  0  0
 49 50  1  0  0  0  0
 50 51  1  0  0  0  0
 51 52  1  0  0  0  0
 52 53  1  0  0  0  0
 53 54  1  0  0  0  0
 54 55  1  0  0  0  0
 55 56  1  0  0  0  0
 56 57  1  0  0  0  0
 57 58  1  0  0  0  0
 58 59  1  0  0  0  0
 59 60  1  0  0  0  0
 58 61  2  0  0  0  0
 61 62  1  0  0  0  0
 62 63  1  0  0  0  0
 63 64  1  0  0  0  0
 62 65  1  0  0  0  0
 54 66  1  0  0  0  0
 66 67  1  0  0  0  0
 51 68  1  0  0  0  0
 68 69  1  0  0  0  0
 41 70  1  0  0  0  0
 70 71  2  0  0  0  0
 71 72  1  0  0  0  0
 71 73  1  0  0  0  0
 73 74  2  0  0  0  0
 74 75  1  0  0  0  0
 75 76  2  0  0  0  0
 75 77  1  0  0  0  0
 77 78  2  0  0  0  0
 78 79  1  0  0  0  0
 79 80  2  0  0  0  0
 80 81  1  0  0  0  0
 81 82  1  0  0  0  0
 82 83  1  0  0  0  0
 81 84  2  0  0  0  0
 84 85  1  0  0  0  0
 85 86  2  0  0  0  0
 86 87  1  0  0  0  0
 87 88  3  0  0  0  0
 86 89  1  0  0  0  0
 89 90  3  0  0  0  0
 11  2  1  0  0  0  0
 23 17  1  0  0  0  0
 60 24  2  0  0  0  0
 85 74  1  0  0  0  0
 10  5  1  0  0  0  0
 22 18  1  0  0  0  0
 59 26  2  0  0  0  0
 84 77  1  0  0  0  0
 23  7  1  0  0  0  0
 56 27  2  0  0  0  0
 65 57  2  0  0  0  0
 55 29  2  0  0  0  0
 53 30  2  0  0  0  0
 35 31  2  0  0  0  0
 52 36  2  0  0  0  0
 50 37  2  0  0  0  0
 49 39  2  0  0  0  0
 72 40  1  0  0  0  0
 48 42  1  0  0  0  0
  1 91  1  0  0  0  0
  6 92  1  0  0  0  0
  9 93  1  0  0  0  0
 17 94  1  0  0  0  0
 18 95  1  0  0  0  0
 19 96  1  0  0  0  0
 20 97  1  0  0  0  0
 21 98  1  0  0  0  0
 22 99  1  0  0  0  0
 22100  1  0  0  0  0
 23101  1  0  0  0  0
 45102  1  0  0  0  0
 45103  1  0  0  0  0
 46104  1  0  0  0  0
 46105  1  0  0  0  0
 46106  1  0  0  0  0
 60107  1  0  0  0  0
 63108  1  0  0  0  0
 63109  1  0  0  0  0
 64110  1  0  0  0  0
 64111  1  0  0  0  0
 64112  1  0  0  0  0
 66113  1  0  0  0  0
 66114  1  0  0  0  0
 67115  1  0  0  0  0
 67116  1  0  0  0  0
 67117  1  0  0  0  0
 68118  1  0  0  0  0
 68119  1  0  0  0  0
 69120  1  0  0  0  0
 69121  1  0  0  0  0
 69122  1  0  0  0  0
 70123  1  0  0  0  0
 73124  1  0  0  0  0
 78125  1  0  0  0  0
 79126  1  0  0  0  0
 80127  1  0  0  0  0
 83128  1  0  0  0  0
 83129  1  0  0  0  0
 83130  1  0  0  0  0
M  END
