
  xtb     02022201003D
 energy: -261.284978446346 gnorm: 0.000543046960 xtb: 6.4.1 (unknown)
157175  0     0  0            999 V2000
    5.5931    4.7172   -2.7892 C   0  0  0  0  0  0  0  0  0  0  0  0
    6.3373    5.7507   -2.2900 C   0  0  0  0  0  0  0  0  0  0  0  0
    6.4522    6.2210   -0.8896 C   0  0  0  0  0  0  0  0  0  0  0  0
    6.1081    5.6632    0.1331 O   0  0  0  0  0  0  0  0  0  0  0  0
    7.0821    7.5518   -0.9632 C   0  0  0  0  0  0  0  0  0  0  0  0
    7.3017    8.4249    0.0997 C   0  0  0  0  0  0  0  0  0  0  0  0
    7.8856    9.6135   -0.2651 C   0  0  0  0  0  0  0  0  0  0  0  0
    8.2222    9.9151   -1.5920 C   0  0  0  0  0  0  0  0  0  0  0  0
    8.0139    9.0613   -2.6487 C   0  0  0  0  0  0  0  0  0  0  0  0
    7.4273    7.8417   -2.2973 C   0  0  0  0  0  0  0  0  0  0  0  0
    7.0548    6.7002   -3.1274 C   0  0  0  0  0  0  0  0  0  0  0  0
    7.3967    6.5376   -4.4446 C   0  0  0  0  0  0  0  0  0  0  0  0
    7.1241    5.4011   -5.2359 C   0  0  0  0  0  0  0  0  0  0  0  0
    6.9646    4.5146   -5.9490 N   0  0  0  0  0  0  0  0  0  0  0  0
    8.1299    7.4791   -5.1976 C   0  0  0  0  0  0  0  0  0  0  0  0
    8.7217    8.1954   -5.8722 N   0  0  0  0  0  0  0  0  0  0  0  0
    8.7610   11.2763   -1.2290 C   0  0  0  0  0  0  0  0  0  0  0  0
   10.2984   11.4508   -1.1659 C   0  0  0  0  0  0  0  0  0  0  0  0
   10.8706   10.0913   -0.8490 C   0  0  0  0  0  0  0  0  0  0  0  0
   10.5556    9.8023    0.4066 C   0  0  0  0  0  0  0  0  0  0  0  0
    9.7648   10.9612    0.9615 C   0  0  0  0  0  0  0  0  0  0  0  0
   10.4269   12.1263    0.2089 C   0  0  0  0  0  0  0  0  0  0  0  0
    8.3896   10.9381    0.2493 C   0  0  0  0  0  0  0  0  0  0  0  0
    4.8152    3.7348   -2.1461 C   0  0  0  0  0  0  0  0  0  0  0  0
    4.6652    3.3817   -0.8143 C   0  0  0  0  0  0  0  0  0  0  0  0
    3.7484    2.3548   -0.6509 C   0  0  0  0  0  0  0  0  0  0  0  0
    3.1202    1.5288    0.7460 S   0  0  0  0  0  0  0  0  0  0  0  0
    2.0859    0.5964   -0.2850 C   0  0  0  0  0  0  0  0  0  0  0  0
    1.0556   -0.3723   -0.0977 C   0  0  0  0  0  0  0  0  0  0  0  0
    0.5264   -0.6660   -1.3615 C   0  0  0  0  0  0  0  0  0  0  0  0
    1.2632    0.0827   -2.4559 C   0  0  0  0  0  0  0  0  0  0  0  0
    0.4065    1.0515   -3.2496 C   0  0  0  0  0  0  0  0  0  0  0  0
   -0.8361    1.4726   -2.8004 C   0  0  0  0  0  0  0  0  0  0  0  0
   -1.5637    2.3977   -3.5277 C   0  0  0  0  0  0  0  0  0  0  0  0
   -1.0668    2.9306   -4.7089 C   0  0  0  0  0  0  0  0  0  0  0  0
   -1.8361    3.9712   -5.4698 C   0  0  0  0  0  0  0  0  0  0  0  0
   -1.4312    5.3734   -5.0104 C   0  0  0  0  0  0  0  0  0  0  0  0
    0.1860    2.5167   -5.1444 C   0  0  0  0  0  0  0  0  0  0  0  0
    0.9149    1.5898   -4.4259 C   0  0  0  0  0  0  0  0  0  0  0  0
    1.9305   -0.9415   -3.3580 C   0  0  0  0  0  0  0  0  0  0  0  0
    3.2355   -1.3568   -3.1373 C   0  0  0  0  0  0  0  0  0  0  0  0
    3.8130   -2.3139   -3.9514 C   0  0  0  0  0  0  0  0  0  0  0  0
    3.1007   -2.8884   -4.9949 C   0  0  0  0  0  0  0  0  0  0  0  0
    3.7458   -3.8902   -5.9078 C   0  0  0  0  0  0  0  0  0  0  0  0
    4.3995   -3.1833   -7.0971 C   0  0  0  0  0  0  0  0  0  0  0  0
    1.7906   -2.4763   -5.2041 C   0  0  0  0  0  0  0  0  0  0  0  0
    1.2098   -1.5177   -4.3966 C   0  0  0  0  0  0  0  0  0  0  0  0
    2.2322    0.8875   -1.6357 C   0  0  0  0  0  0  0  0  0  0  0  0
    3.1725    1.8888   -1.8519 C   0  0  0  0  0  0  0  0  0  0  0  0
    3.8074    2.7345   -3.2055 S   0  0  0  0  0  0  0  0  0  0  0  0
   -0.5534   -1.5165   -1.4936 C   0  0  0  0  0  0  0  0  0  0  0  0
   -1.1228   -2.0809   -0.3597 C   0  0  0  0  0  0  0  0  0  0  0  0
   -2.3519   -2.7982   -0.4176 C   0  0  0  0  0  0  0  0  0  0  0  0
   -2.9532   -3.3616    0.6897 C   0  0  0  0  0  0  0  0  0  0  0  0
   -2.2135   -3.5016    1.9930 C   0  0  0  0  0  0  0  0  0  0  0  0
   -1.0915   -2.4839    2.0899 C   0  0  0  0  0  0  0  0  0  0  0  0
   -0.5626   -1.8585    0.9376 C   0  0  0  0  0  0  0  0  0  0  0  0
    0.5425   -0.9760    1.0757 C   0  0  0  0  0  0  0  0  0  0  0  0
    1.0833   -0.7307    2.3486 C   0  0  0  0  0  0  0  0  0  0  0  0
    0.5502   -1.3432    3.4506 C   0  0  0  0  0  0  0  0  0  0  0  0
   -0.5296   -2.2191    3.3189 C   0  0  0  0  0  0  0  0  0  0  0  0
   -1.6362   -4.9194    1.9381 C   0  0  0  0  0  0  0  0  0  0  0  0
   -0.2912   -5.1533    1.6879 C   0  0  0  0  0  0  0  0  0  0  0  0
    0.1920   -6.4463    1.5890 C   0  0  0  0  0  0  0  0  0  0  0  0
   -0.6507   -7.5398    1.7243 C   0  0  0  0  0  0  0  0  0  0  0  0
   -0.1164   -8.9413    1.6598 C   0  0  0  0  0  0  0  0  0  0  0  0
    0.2868   -9.4243    3.0546 C   0  0  0  0  0  0  0  0  0  0  0  0
   -1.9979   -7.3018    1.9654 C   0  0  0  0  0  0  0  0  0  0  0  0
   -2.4857   -6.0137    2.0652 C   0  0  0  0  0  0  0  0  0  0  0  0
   -3.1703   -3.2961    3.1560 C   0  0  0  0  0  0  0  0  0  0  0  0
   -4.0709   -2.2391    3.1020 C   0  0  0  0  0  0  0  0  0  0  0  0
   -4.9613   -2.0160    4.1342 C   0  0  0  0  0  0  0  0  0  0  0  0
   -4.9714   -2.8364    5.2538 C   0  0  0  0  0  0  0  0  0  0  0  0
   -5.9231   -2.5868    6.3874 C   0  0  0  0  0  0  0  0  0  0  0  0
   -5.2689   -1.7103    7.4573 C   0  0  0  0  0  0  0  0  0  0  0  0
   -4.0420   -3.8647    5.3238 C   0  0  0  0  0  0  0  0  0  0  0  0
   -3.1488   -4.0911    4.2935 C   0  0  0  0  0  0  0  0  0  0  0  0
   -4.2448   -3.8178    0.3972 C   0  0  0  0  0  0  0  0  0  0  0  0
   -4.6135   -3.6176   -0.9474 C   0  0  0  0  0  0  0  0  0  0  0  0
   -3.3437   -2.8698   -1.8606 S   0  0  0  0  0  0  0  0  0  0  0  0
   -5.9056   -4.0057   -1.2315 C   0  0  0  0  0  0  0  0  0  0  0  0
   -6.5735   -4.4905   -0.1008 C   0  0  0  0  0  0  0  0  0  0  0  0
   -5.5385   -4.4769    1.3237 S   0  0  0  0  0  0  0  0  0  0  0  0
   -7.9155   -4.8827   -0.1527 C   0  0  0  0  0  0  0  0  0  0  0  0
   -8.7636   -5.3023    0.8454 C   0  0  0  0  0  0  0  0  0  0  0  0
   -8.4160   -5.4496    2.2611 C   0  0  0  0  0  0  0  0  0  0  0  0
   -7.3314   -5.2924    2.7904 O   0  0  0  0  0  0  0  0  0  0  0  0
   -9.6656   -5.8421    2.9468 C   0  0  0  0  0  0  0  0  0  0  0  0
   -9.8652   -6.0806    4.2916 C   0  0  0  0  0  0  0  0  0  0  0  0
  -11.1415   -6.4358    4.6976 C   0  0  0  0  0  0  0  0  0  0  0  0
  -11.3832   -6.6745    5.9929 F   0  0  0  0  0  0  0  0  0  0  0  0
  -12.1767   -6.5458    3.7694 C   0  0  0  0  0  0  0  0  0  0  0  0
  -13.3997   -6.8895    4.1892 F   0  0  0  0  0  0  0  0  0  0  0  0
  -11.9742   -6.3067    2.4178 C   0  0  0  0  0  0  0  0  0  0  0  0
  -10.7007   -5.9496    2.0034 C   0  0  0  0  0  0  0  0  0  0  0  0
  -10.1644   -5.6314    0.6781 C   0  0  0  0  0  0  0  0  0  0  0  0
  -10.8874   -5.6538   -0.4868 C   0  0  0  0  0  0  0  0  0  0  0  0
  -12.2590   -5.9780   -0.5595 C   0  0  0  0  0  0  0  0  0  0  0  0
  -13.3716   -6.2301   -0.6853 N   0  0  0  0  0  0  0  0  0  0  0  0
  -10.3912   -5.3665   -1.7758 C   0  0  0  0  0  0  0  0  0  0  0  0
  -10.0772   -5.1531   -2.8601 N   0  0  0  0  0  0  0  0  0  0  0  0
    5.5401    4.6498   -3.8701 H   0  0  0  0  0  0  0  0  0  0  0  0
    7.0191    8.1548    1.1053 H   0  0  0  0  0  0  0  0  0  0  0  0
    8.2702    9.3122   -3.6643 H   0  0  0  0  0  0  0  0  0  0  0  0
    8.2658   12.1245   -1.6976 H   0  0  0  0  0  0  0  0  0  0  0  0
   10.7295   11.9659   -2.0200 H   0  0  0  0  0  0  0  0  0  0  0  0
   11.3799    9.4747   -1.5661 H   0  0  0  0  0  0  0  0  0  0  0  0
   10.7492    8.8952    0.9486 H   0  0  0  0  0  0  0  0  0  0  0  0
    9.7108   11.0309    2.0449 H   0  0  0  0  0  0  0  0  0  0  0  0
    9.8750   13.0622    0.2860 H   0  0  0  0  0  0  0  0  0  0  0  0
   11.4627   12.2845    0.5051 H   0  0  0  0  0  0  0  0  0  0  0  0
    7.6543   11.5673    0.7473 H   0  0  0  0  0  0  0  0  0  0  0  0
    5.1953    3.8690   -0.0173 H   0  0  0  0  0  0  0  0  0  0  0  0
   -1.2429    1.0779   -1.8807 H   0  0  0  0  0  0  0  0  0  0  0  0
   -2.5343    2.7093   -3.1686 H   0  0  0  0  0  0  0  0  0  0  0  0
   -1.6357    3.8717   -6.5384 H   0  0  0  0  0  0  0  0  0  0  0  0
   -2.9070    3.8340   -5.3079 H   0  0  0  0  0  0  0  0  0  0  0  0
   -0.3677    5.5324   -5.1743 H   0  0  0  0  0  0  0  0  0  0  0  0
   -1.6355    5.4974   -3.9491 H   0  0  0  0  0  0  0  0  0  0  0  0
   -1.9849    6.1296   -5.5619 H   0  0  0  0  0  0  0  0  0  0  0  0
    0.5958    2.9231   -6.0576 H   0  0  0  0  0  0  0  0  0  0  0  0
    1.8844    1.2742   -4.7833 H   0  0  0  0  0  0  0  0  0  0  0  0
    3.8106   -0.9308   -2.3280 H   0  0  0  0  0  0  0  0  0  0  0  0
    4.8336   -2.6194   -3.7701 H   0  0  0  0  0  0  0  0  0  0  0  0
    2.9957   -4.5936   -6.2750 H   0  0  0  0  0  0  0  0  0  0  0  0
    4.5054   -4.4537   -5.3622 H   0  0  0  0  0  0  0  0  0  0  0  0
    3.6551   -2.6268   -7.6621 H   0  0  0  0  0  0  0  0  0  0  0  0
    5.1582   -2.4847   -6.7517 H   0  0  0  0  0  0  0  0  0  0  0  0
    4.8688   -3.9073   -7.7589 H   0  0  0  0  0  0  0  0  0  0  0  0
    1.2168   -2.9119   -6.0096 H   0  0  0  0  0  0  0  0  0  0  0  0
    0.1935   -1.2031   -4.5842 H   0  0  0  0  0  0  0  0  0  0  0  0
   -0.9858   -1.7169   -2.4625 H   0  0  0  0  0  0  0  0  0  0  0  0
    1.9242   -0.0607    2.4429 H   0  0  0  0  0  0  0  0  0  0  0  0
    0.9645   -1.1585    4.4301 H   0  0  0  0  0  0  0  0  0  0  0  0
   -0.9259   -2.7016    4.1993 H   0  0  0  0  0  0  0  0  0  0  0  0
    0.3952   -4.3283    1.5707 H   0  0  0  0  0  0  0  0  0  0  0  0
    1.2440   -6.6033    1.3975 H   0  0  0  0  0  0  0  0  0  0  0  0
    0.7537   -8.9759    1.0013 H   0  0  0  0  0  0  0  0  0  0  0  0
   -0.8793   -9.6094    1.2550 H   0  0  0  0  0  0  0  0  0  0  0  0
   -0.5708   -9.4072    3.7234 H   0  0  0  0  0  0  0  0  0  0  0  0
    0.6714  -10.4405    3.0087 H   0  0  0  0  0  0  0  0  0  0  0  0
    1.0577   -8.7791    3.4700 H   0  0  0  0  0  0  0  0  0  0  0  0
   -2.6772   -8.1353    2.0723 H   0  0  0  0  0  0  0  0  0  0  0  0
   -3.5368   -5.8601    2.2560 H   0  0  0  0  0  0  0  0  0  0  0  0
   -4.0772   -1.5863    2.2396 H   0  0  0  0  0  0  0  0  0  0  0  0
   -5.6627   -1.1966    4.0655 H   0  0  0  0  0  0  0  0  0  0  0  0
   -6.8208   -2.0906    6.0136 H   0  0  0  0  0  0  0  0  0  0  0  0
   -6.2194   -3.5378    6.8345 H   0  0  0  0  0  0  0  0  0  0  0  0
   -5.9605   -1.5295    8.2769 H   0  0  0  0  0  0  0  0  0  0  0  0
   -4.3803   -2.1964    7.8539 H   0  0  0  0  0  0  0  0  0  0  0  0
   -4.9739   -0.7528    7.0337 H   0  0  0  0  0  0  0  0  0  0  0  0
   -4.0193   -4.5039    6.1949 H   0  0  0  0  0  0  0  0  0  0  0  0
   -2.4360   -4.8987    4.3763 H   0  0  0  0  0  0  0  0  0  0  0  0
   -6.3739   -3.9330   -2.1965 H   0  0  0  0  0  0  0  0  0  0  0  0
   -8.3382   -4.8098   -1.1475 H   0  0  0  0  0  0  0  0  0  0  0  0
   -9.0602   -5.9936    5.0036 H   0  0  0  0  0  0  0  0  0  0  0  0
  -12.8090   -6.4052    1.7439 H   0  0  0  0  0  0  0  0  0  0  0  0
  1  2  2  0  0  0  0
  2  3  1  0  0  0  0
  3  4  2  0  0  0  0
  3  5  1  0  0  0  0
  5  6  2  0  0  0  0
  6  7  1  0  0  0  0
  7  8  2  0  0  0  0
  8  9  1  0  0  0  0
  9 10  2  0  0  0  0
 10 11  1  0  0  0  0
 11 12  2  0  0  0  0
 12 13  1  0  0  0  0
 13 14  3  0  0  0  0
 12 15  1  0  0  0  0
 15 16  3  0  0  0  0
  8 17  1  0  0  0  0
 17 18  1  0  0  0  0
 18 19  1  0  0  0  0
 19 20  2  0  0  0  0
 20 21  1  0  0  0  0
 21 22  1  0  0  0  0
 21 23  1  0  0  0  0
  1 24  1  0  0  0  0
 24 25  2  0  0  0  0
 25 26  1  0  0  0  0
 26 27  1  0  0  0  0
 27 28  1  0  0  0  0
 28 29  1  0  0  0  0
 29 30  2  0  0  0  0
 30 31  1  0  0  0  0
 31 32  1  0  0  0  0
 32 33  2  0  0  0  0
 33 34  1  0  0  0  0
 34 35  2  0  0  0  0
 35 36  1  0  0  0  0
 36 37  1  0  0  0  0
 35 38  1  0  0  0  0
 38 39  2  0  0  0  0
 31 40  1  0  0  0  0
 40 41  2  0  0  0  0
 41 42  1  0  0  0  0
 42 43  2  0  0  0  0
 43 44  1  0  0  0  0
 44 45  1  0  0  0  0
 43 46  1  0  0  0  0
 46 47  2  0  0  0  0
 31 48  1  0  0  0  0
 48 49  1  0  0  0  0
 49 50  1  0  0  0  0
 30 51  1  0  0  0  0
 51 52  2  0  0  0  0
 52 53  1  0  0  0  0
 53 54  2  0  0  0  0
 54 55  1  0  0  0  0
 55 56  1  0  0  0  0
 56 57  1  0  0  0  0
 57 58  2  0  0  0  0
 58 59  1  0  0  0  0
 59 60  2  0  0  0  0
 60 61  1  0  0  0  0
 55 62  1  0  0  0  0
 62 63  2  0  0  0  0
 63 64  1  0  0  0  0
 64 65  2  0  0  0  0
 65 66  1  0  0  0  0
 66 67  1  0  0  0  0
 65 68  1  0  0  0  0
 68 69  2  0  0  0  0
 55 70  1  0  0  0  0
 70 71  2  0  0  0  0
 71 72  1  0  0  0  0
 72 73  2  0  0  0  0
 73 74  1  0  0  0  0
 74 75  1  0  0  0  0
 73 76  1  0  0  0  0
 76 77  2  0  0  0  0
 54 78  1  0  0  0  0
 78 79  2  0  0  0  0
 79 80  1  0  0  0  0
 79 81  1  0  0  0  0
 81 82  2  0  0  0  0
 82 83  1  0  0  0  0
 82 84  1  0  0  0  0
 84 85  2  0  0  0  0
 85 86  1  0  0  0  0
 86 87  2  0  0  0  0
 86 88  1  0  0  0  0
 88 89  2  0  0  0  0
 89 90  1  0  0  0  0
 90 91  1  0  0  0  0
 90 92  2  0  0  0  0
 92 93  1  0  0  0  0
 92 94  1  0  0  0  0
 94 95  2  0  0  0  0
 95 96  1  0  0  0  0
 96 97  2  0  0  0  0
 97 98  1  0  0  0  0
 98 99  3  0  0  0  0
 97100  1  0  0  0  0
100101  3  0  0  0  0
 11  2  1  0  0  0  0
 23 17  1  0  0  0  0
 50 24  1  0  0  0  0
 57 52  1  0  0  0  0
 69 62  1  0  0  0  0
 77 70  1  0  0  0  0
 83 78  1  0  0  0  0
 96 85  1  0  0  0  0
 10  5  1  0  0  0  0
 22 18  1  0  0  0  0
 49 26  2  0  0  0  0
 80 53  1  0  0  0  0
 95 88  1  0  0  0  0
 23  7  1  0  0  0  0
 48 28  2  0  0  0  0
 61 56  2  0  0  0  0
 58 29  1  0  0  0  0
 39 32  1  0  0  0  0
 47 40  1  0  0  0  0
  1102  1  0  0  0  0
  6103  1  0  0  0  0
  9104  1  0  0  0  0
 17105  1  0  0  0  0
 18106  1  0  0  0  0
 19107  1  0  0  0  0
 20108  1  0  0  0  0
 21109  1  0  0  0  0
 22110  1  0  0  0  0
 22111  1  0  0  0  0
 23112  1  0  0  0  0
 25113  1  0  0  0  0
 33114  1  0  0  0  0
 34115  1  0  0  0  0
 36116  1  0  0  0  0
 36117  1  0  0  0  0
 37118  1  0  0  0  0
 37119  1  0  0  0  0
 37120  1  0  0  0  0
 38121  1  0  0  0  0
 39122  1  0  0  0  0
 41123  1  0  0  0  0
 42124  1  0  0  0  0
 44125  1  0  0  0  0
 44126  1  0  0  0  0
 45127  1  0  0  0  0
 45128  1  0  0  0  0
 45129  1  0  0  0  0
 46130  1  0  0  0  0
 47131  1  0  0  0  0
 51132  1  0  0  0  0
 59133  1  0  0  0  0
 60134  1  0  0  0  0
 61135  1  0  0  0  0
 63136  1  0  0  0  0
 64137  1  0  0  0  0
 66138  1  0  0  0  0
 66139  1  0  0  0  0
 67140  1  0  0  0  0
 67141  1  0  0  0  0
 67142  1  0  0  0  0
 68143  1  0  0  0  0
 69144  1  0  0  0  0
 71145  1  0  0  0  0
 72146  1  0  0  0  0
 74147  1  0  0  0  0
 74148  1  0  0  0  0
 75149  1  0  0  0  0
 75150  1  0  0  0  0
 75151  1  0  0  0  0
 76152  1  0  0  0  0
 77153  1  0  0  0  0
 81154  1  0  0  0  0
 84155  1  0  0  0  0
 89156  1  0  0  0  0
 94157  1  0  0  0  0
M  END
