163

C          2.21800        5.28760        5.17480
C          1.58780        6.49640        5.17300
C          1.78110        7.45620        6.28950
O          2.62190        7.40060        7.15890
C          0.69800        8.45040        6.14080
C          0.39630        9.50450        7.00090
C         -0.67690       10.26480        6.60180
C         -1.40480        9.99860        5.43380
C         -1.11630        8.96780        4.57180
C         -0.02460        8.18510        4.95820
C          0.60960        7.06440        4.27020
C          0.49540        6.78850        2.93070
C          1.38490        5.94070        2.24040
N          2.13070        5.32960        1.61700
C         -0.44280        7.37920        2.06370
N         -1.20370        7.79920        1.31260
C         -2.34470       11.15660        5.65900
C         -3.74800       10.81520        6.20270
C         -4.24670       12.12670        6.76500
C         -3.55700       12.38030        7.86970
C         -2.58040       11.24430        8.07290
C         -3.40610       10.08210        7.50630
C         -1.53220       11.45520        6.95970
C          1.84550        4.14500        4.43200
S          3.04330        2.93980        3.99360
C          1.85700        2.07030        3.12280
C          1.78800        0.98490        2.21870
C          0.49730        0.84120        1.73380
C         -0.42430        1.82830        2.43680
C          0.58760        2.63500        3.23070
C          0.58230        3.81130        3.95640
C         -1.30810        1.14320        3.46730
C         -1.25060       -0.22680        3.68530
C         -2.02180       -0.81910        4.67020
C         -2.86480       -0.06380        5.47190
C         -3.74300       -0.71830        6.49780
C         -5.07310       -1.13790        5.86810
C         -2.90030        1.31000        5.27100
C         -2.12650        1.90610        4.29430
C         -1.12910        2.78550        1.48880
C         -2.50040        3.00310        1.48480
C         -3.05250        3.97190        0.66430
C         -2.25890        4.74870       -0.16680
C         -2.85400        5.80710       -1.04720
C         -2.99210        5.30440       -2.48500
C         -0.89160        4.49940       -0.18780
C         -0.33480        3.53180        0.62330
C          0.40050       -0.18530        0.75480
C         -0.67820       -0.64380       -0.02130
C         -2.06540       -0.08100        0.04940
C         -3.02190       -0.97140        0.84600
C         -0.41900       -1.67060       -0.91090
S         -1.66390       -2.31830       -1.96560
C         -0.51600       -3.42580       -2.60810
C         -0.55120       -4.42650       -3.60150
C          0.70850       -5.01650       -3.69850
C          1.66320       -4.37980       -2.70280
C          2.10430       -5.45670       -1.72750
C          2.83330       -6.54670       -2.19380
C          3.20860       -7.56500       -1.33990
C          2.85970       -7.53530        0.00450
C          3.30280       -8.62410        0.93790
C          4.68840       -8.31070        1.50640
C          2.12580       -6.45240        0.46530
C          1.74690       -5.42970       -0.38640
C          2.78980       -3.72580       -3.49480
C          4.13270       -4.00440       -3.29070
C          5.10110       -3.38450       -4.06200
C          4.75810       -2.47660       -5.05230
C          5.81060       -1.76260       -5.84910
C          6.09440       -0.38760       -5.24020
C          3.41070       -2.20260       -5.25470
C          2.44070       -2.81770       -4.48990
C          0.75750       -3.33160       -2.06970
C          0.84830       -2.30210       -1.09430
C          1.93110       -1.82780       -0.33570
C          1.67370       -0.80110        0.55360
S          2.93730       -0.10770        1.55610
C          3.33560       -2.32260       -0.49390
C          4.13830       -1.36990       -1.38350
C          0.76730       -5.98270       -4.68700
C         -0.43060       -6.10750       -5.38370
S         -1.67150       -5.04190       -4.73480
C         -0.68390       -7.00790       -6.43720
C         -1.67150       -6.96820       -7.37840
C         -2.07730       -8.20980       -8.08100
O         -1.49240       -9.26870       -8.09160
C         -3.37840       -7.88350       -8.71180
C         -4.24400       -8.71990       -9.38540
C         -5.42730       -8.16910       -9.86480
Cl        -6.54380       -9.17020      -10.71450
C         -5.73050       -6.82620       -9.67040
C         -4.85010       -5.98950       -9.00140
C         -3.66310       -6.51900       -8.52010
C         -2.53750       -5.89980       -7.82460
C         -2.22360       -4.56530       -7.86450
C         -3.06600       -3.57870       -8.41360
N         -3.72120       -2.73690       -8.83780
C         -0.97860       -4.04600       -7.45330
N          0.03980       -3.59170       -7.17940
H          3.05620        5.18820        5.85610
H          0.98470        9.68190        7.88750
H         -1.67980        8.76950        3.67460
H         -2.36420       11.90870        4.87260
H         -4.39850       10.30650        5.49630
H         -4.98570       12.74220        6.28650
H         -3.60490       13.24990        8.49850
H         -2.16790       11.12630        9.07130
H         -4.29080        9.87510        8.10630
H         -2.83940        9.16380        7.36370
H         -1.01100       12.40720        7.04070
H         -0.28590        4.41230        4.15900
H         -0.59530       -0.84550        3.09100
H         -1.96160       -1.88820        4.81740
H         -3.24370       -1.60000        6.90450
H         -3.93550       -0.02470        7.31860
H         -4.90230       -1.84020        5.05520
H         -5.71200       -1.61240        6.60910
H         -5.59180       -0.27020        5.46650
H         -3.53460        1.92400        5.89450
H         -2.16040        2.97850        4.17630
H         -3.15050        2.41560        2.11660
H         -4.12130        4.13130        0.68430
H         -3.83680        6.09220       -0.66760
H         -2.21370        6.69080       -1.02890
H         -3.41950        6.07850       -3.11780
H         -3.63930        4.43030       -2.52040
H         -2.02040        5.02560       -2.88600
H         -0.25100        5.08310       -0.83220
H          0.73260        3.36820        0.60160
H         -2.44730        0.01400       -0.97160
H         -2.04250        0.91010        0.49130
H         -2.71140       -1.03530        1.88530
H         -3.05680       -1.97490        0.42870
H         -4.02390       -0.55130        0.81200
H          3.11570       -6.59760       -3.23400
H          3.77570       -8.40020       -1.72550
H          2.59000       -8.72000        1.75920
H          3.34010       -9.57600        0.40430
H          5.41760       -8.22850        0.70360
H          4.67000       -7.36840        2.04960
H          5.00720       -9.09760        2.18580
H          1.83710       -6.40710        1.50570
H          1.16790       -4.60850        0.00760
H          4.44190       -4.70130       -2.52590
H          6.14230       -3.61560       -3.88630
H          6.73090       -2.34980       -5.86080
H          5.47130       -1.63640       -6.87930
H          6.86110        0.13060       -5.81120
H          5.19230        0.21990       -5.23890
H          6.43630       -0.49160       -4.21260
H          3.11490       -1.50620       -6.02520
H          1.40070       -2.59490       -4.67630
H          3.80880       -2.37340        0.49080
H          3.34020       -3.31950       -0.92530
H          4.19500       -0.38180       -0.93370
H          5.14820       -1.74770       -1.51620
H          3.67260       -1.27940       -2.36150
H          1.63490       -6.55470       -4.95930
H         -0.05460       -7.89270       -6.46270
H         -4.00380       -9.76100       -9.53220
H         -6.66220       -6.43420      -10.04710
H         -5.10370       -4.95190       -8.85490
