170

C         -2.80480        6.91210       -4.35290
C         -3.47110        7.35350       -5.46460
C         -4.30460        6.58330       -6.41490
O         -4.67930        5.42960       -6.34010
C         -4.60710        7.50310       -7.52640
C         -5.32900        7.20050       -8.67870
C         -5.45300        8.25280       -9.55290
C         -4.89080        9.51210       -9.30330
C         -4.17500        9.82210       -8.17190
C         -4.04700        8.76750       -7.26270
C         -3.38340        8.71730       -5.96270
C         -2.83430        9.79880       -5.32220
C         -2.79600       11.10590       -5.85260
N         -2.72080       12.19530       -6.20850
C         -2.25730        9.80880       -4.03430
N         -1.78420        9.93130       -2.99410
C         -5.40980       10.08830      -10.59680
C         -6.65000       11.01310      -10.52510
C         -7.41940       10.60370       -9.29370
C         -7.95420        9.41270       -9.52790
C         -7.55570        8.99530      -10.92200
C         -7.51960       10.36660      -11.61520
C         -6.03860        8.68620      -10.87330
C         -2.76360        5.65700       -3.71900
C         -3.43360        4.46360       -3.94350
C         -3.05880        3.48130       -3.04090
S         -3.51670        1.81490       -2.82930
C         -2.41110        1.69050       -1.50100
C         -1.99500        0.66150       -0.60420
C         -1.03350        1.21870        0.24930
C         -0.82600        2.69290       -0.04040
C         -1.36830        3.60480        1.04960
C         -1.08000        4.96320        0.99270
C         -1.61340        5.83210        1.92410
C         -2.45040        5.36980        2.93230
C         -2.99800        6.31050        3.96640
C         -2.02920        6.43410        5.14430
C         -2.73340        4.01210        2.98370
C         -2.20620        3.13670        2.05080
C          0.64010        2.95800       -0.31270
C          1.15460        2.90770       -1.59980
C          2.50270        3.12030       -1.82390
C          3.37070        3.37210       -0.77060
C          4.82470        3.65170       -1.01790
C          5.05930        5.15630       -1.16820
C          2.85200        3.40830        0.51760
C          1.50530        3.20380        0.74640
C         -1.72750        2.86910       -1.23070
C         -2.09540        3.89340       -2.09520
S         -1.65690        5.53510       -2.34000
C         -0.35680        0.43150        1.16100
C         -0.68910       -0.90960        1.28070
C          0.07680       -1.81260        2.07670
C         -0.29940       -3.12040        2.29630
C         -1.65350       -3.61820        1.87860
C         -2.13600       -2.82960        0.67370
C         -1.74640       -1.48120        0.50620
C         -2.37230       -0.69870       -0.50010
C         -3.32090       -1.29170       -1.35030
C         -3.62200       -2.62050       -1.22130
C         -3.03590       -3.38470       -0.20800
C         -1.52090       -5.10010        1.57000
C         -2.07490       -6.08740        2.37090
C         -1.85770       -7.42350        2.08400
C         -1.07890       -7.80630        1.00150
C         -0.87170       -9.25770        0.67900
C         -1.96690       -9.75750       -0.26540
C         -0.52830       -6.81340        0.19990
C         -0.74220       -5.47900        0.48110
C         -2.66080       -3.36040        3.00740
C         -2.25130       -3.02240        4.29040
C         -3.17570       -2.81260        5.29780
C         -4.53650       -2.93600        5.05950
C         -5.53960       -2.66430        6.14260
C         -5.92920       -1.18470        6.15070
C         -4.94500       -3.27600        3.77660
C         -4.02440       -3.48500        2.76810
C          0.69230       -3.82750        2.98770
C          1.82730       -3.05470        3.28920
S          1.65530       -1.42540        2.72510
C          2.83480       -3.74440        3.94960
C          2.49080       -5.06860        4.16860
S          0.87010       -5.43840        3.55780
C          3.17160       -6.14300        4.77390
C          4.46540       -6.27220        5.19760
C          5.59770       -5.33370        5.02070
O          5.57740       -4.17070        4.67130
C          6.81180       -6.10390        5.34920
C          8.12940       -5.66390        5.23680
C          9.06500       -6.60670        5.58760
C          8.71660       -7.89270        6.02300
C          7.42170       -8.33550        6.14840
C          6.45300       -7.39110        5.79300
C          4.99690       -7.49200        5.78540
C          4.27460       -8.53190        6.31030
C          2.86760       -8.60150        6.40010
N          1.73580       -8.74320        6.53840
C          4.84440       -9.68450        6.89130
N          5.23120      -10.65200        7.37410
C         10.15570       -8.31500        6.18430
C         10.73600       -9.21880        5.07590
C         12.23190       -9.07050        5.23470
C         12.56260       -7.85280        4.82430
C         11.29560       -7.15750        4.38090
C         10.51730       -8.35720        3.82530
C         10.54410       -6.88100        5.70070
H         -2.17000        7.64200       -3.86390
H         -5.73850        6.21420       -8.83160
H         -3.74490       10.79450       -8.00080
H         -4.65740       10.45600      -11.29160
H         -6.42890       12.07260      -10.62240
H         -7.44650       11.17820       -8.38630
H         -8.51760        8.79300       -8.85510
H         -8.16020        8.21760      -11.38160
H         -8.50450       10.82430      -11.69470
H         -7.04340       10.34550      -12.59460
H         -5.69860        8.13850      -11.75020
H         -4.14930        4.33710       -4.73450
H         -0.43170        5.34030        0.21500
H         -1.38230        6.88550        1.86160
H         -3.15290        7.29620        3.52360
H         -3.96010        5.94270        4.32900
H         -1.86790        5.46200        5.60520
H         -1.06880        6.81580        4.80530
H         -2.42770        7.11280        5.89470
H         -3.38270        3.63090        3.75920
H         -2.45170        2.08610        2.10690
H          0.50130        2.70340       -2.43590
H          2.88510        3.08600       -2.83410
H          5.42040        3.27640       -0.18320
H          5.15140        3.14330       -1.92720
H          4.48100        5.54790       -2.00210
H          4.75250        5.67910       -0.26510
H          6.11200        5.36150       -1.34830
H          3.51120        3.59860        1.35250
H          1.11910        3.24890        1.75460
H          0.43930        0.84150        1.76440
H         -3.79650       -0.69010       -2.10980
H         -4.32830       -3.08610       -1.89210
H         -3.29480       -4.43020       -0.12140
H         -2.67200       -5.81730        3.22880
H         -2.29120       -8.17950        2.72250
H         -0.89250       -9.84610        1.59820
H          0.10250       -9.39670        0.20570
H         -2.94560       -9.63570        0.19330
H         -1.81970      -10.81000       -0.49580
H         -1.95200       -9.19270       -1.19510
H          0.08340       -7.08910       -0.64750
H         -0.29850       -4.71710       -0.14530
H         -1.20250       -2.92620        4.52610
H         -2.82780       -2.55440        6.28790
H         -6.43290       -3.27060        5.97990
H         -5.11730       -2.93060        7.11360
H         -6.66290       -0.98880        6.92910
H         -5.05450       -0.56430        6.33290
H         -6.35560       -0.90060        5.19100
H         -5.99890       -3.38340        3.56280
H         -4.37810       -3.75250        1.78450
H          3.77630       -3.32460        4.25030
H          2.54970       -7.02580        4.87240
H          8.35170       -4.66390        4.89870
H          7.17090       -9.32770        6.48390
H         10.45010       -8.62590        7.18480
H         10.34280      -10.23160        5.06230
H         12.86650       -9.82160        5.66720
H         13.52860       -7.38340        4.84550
H         11.41290       -6.29270        3.73330
H          9.47170       -8.14630        3.60840
H         10.99300       -8.78370        2.94370
H         11.09800       -6.23450        6.37880
