139

C         -3.62860        2.45770        9.59840
C         -2.97450        3.16560       10.56280
C         -1.85060        4.11570       10.36960
O         -1.52000        4.70420        9.36270
C         -1.16070        4.17420       11.67350
C          0.03890        4.82610       11.94980
C          0.47410        4.67140       13.24370
C         -0.23330        3.92690       14.19790
C         -1.42500        3.29130       13.94330
C         -1.88210        3.43240       12.62990
C         -3.07050        2.88550       11.98580
C         -4.12970        2.29020       12.61670
C         -4.20010        2.06350       14.00670
N         -4.31260        1.84800       15.12880
C         -5.31660        1.88340       11.96930
N         -6.31870        1.55450       11.51580
C          0.80310        4.16440       15.26730
C          1.78160        3.00720       15.58840
C          1.88830        2.17350       14.33570
C          2.55640        2.88070       13.43420
C          2.91340        4.20580       14.06130
C          3.11540        3.76830       15.52080
C          1.58910        4.99660       14.20570
C         -3.56670        2.60820        8.19290
S         -3.92700        1.17750        7.22760
C         -3.57980        2.03040        5.76830
C         -3.52540        1.48700        4.47980
S         -3.83290       -0.19710        4.11660
C         -3.40770        0.10110        2.47730
C         -3.29780       -0.61340        1.27840
C         -3.66800       -1.93880        0.96640
C         -3.56420       -2.37700       -0.39290
N         -3.99710       -3.61670       -0.56110
S         -4.48970       -4.18460        0.87310
N         -4.16990       -2.86970        1.76280
C         -2.98040       -1.50810       -1.33940
C         -2.61400       -1.73740       -2.67290
S         -2.68270       -3.01080       -3.82710
C         -1.75710       -2.02610       -4.94060
C         -1.31420       -2.46210       -6.19480
C         -0.53970       -1.64630       -7.04390
C         -0.27910       -0.33020       -6.59060
N          0.36760        0.68250       -7.16750
N          0.31030        1.64900       -6.29260
C          0.85430        2.94790       -6.56380
C         -0.18460        3.83180       -7.24800
N         -0.31810        1.38220       -5.17310
C         -0.71920        0.11260       -5.30800
C         -1.44120       -0.74550       -4.43910
C         -1.93380       -0.60510       -3.12190
N         -1.88620        0.33190       -2.11710
C         -2.52930       -0.19990       -1.00670
C         -2.80570        0.29770        0.30030
N         -2.69910        1.54140        0.89540
C         -3.05560        1.42680        2.21450
C         -3.15000        2.25510        3.35730
C         -2.94130        3.63970        3.58780
C         -3.00350        4.19220        4.90280
C         -3.27680        3.38010        6.02980
C         -3.26660        3.68980        7.39540
N         -2.76410        5.49970        4.80340
N         -2.57960        5.70180        3.52660
C         -2.34110        7.01170        2.99340
C         -3.65940        7.71280        2.67900
N         -2.67230        4.64920        2.75220
C         -2.44810        2.83330        0.30380
C         -1.01680        3.31040        0.56050
C         -0.81590        1.30510       -2.15020
C          0.47270        0.70280       -1.58990
C         -0.12350       -2.29700       -8.20980
C         -0.55880       -3.60300       -8.28290
S         -1.55360       -4.02380       -6.88650
C         -0.35730       -4.62610       -9.23610
C          0.55840       -4.73270      -10.24340
C          1.72280       -3.85880      -10.52780
O          1.94770       -2.73520      -10.12960
C          2.60490       -4.64730      -11.40950
C          3.87540       -4.28460      -11.85110
C          4.48150       -5.22760      -12.64500
C          3.87240       -6.44720      -12.97140
C          2.61830       -6.81530      -12.54640
C          1.98050       -5.86450      -11.74390
C          0.66520       -5.89440      -11.11320
C         -0.31860       -6.81240      -11.36850
C         -1.62930       -6.76890      -10.84560
N         -2.72010       -6.79280      -10.48730
C         -0.17510       -7.90590      -12.24810
N         -0.12660       -8.81640      -12.94590
C          5.05220       -6.90800      -13.79020
C          4.93140       -6.83630      -15.33230
C          3.93990       -5.73970      -15.63300
C          4.51180       -4.58250      -15.32840
C          5.90050       -4.87550      -14.81650
C          6.24590       -6.11130      -15.66260
C          5.72790       -5.54700      -13.43140
H         -4.21130        1.60290        9.92440
H          0.55410        5.38570       11.18480
H         -1.95700        2.71700       14.68360
H          0.45740        4.67560       16.16350
H          1.55780        2.46860       16.50530
H          1.43200        1.20810       14.21790
H          2.76910        2.62430       12.41280
H          3.72060        4.75880       13.58800
H          3.17560        4.60160       16.21950
H          3.97870        3.11710       15.64940
H          1.75600        6.05280       14.40750
H          1.72150        2.80900       -7.21170
H          1.16190        3.38340       -5.61090
H         -1.05310        3.95910       -6.60630
H          0.24230        4.80790       -7.45930
H         -0.50170        3.37760       -8.18340
H         -3.04470        4.66930        7.77270
H         -1.74300        6.89410        2.08750
H         -1.78170        7.57310        3.74400
H         -4.25450        7.81110        3.58340
H         -3.46460        8.70320        2.27800
H         -4.22480        7.14220        1.94600
H         -2.69300        2.78440       -0.75850
H         -3.12870        3.54840        0.77360
H         -0.92510        3.62210        1.59620
H         -0.78800        4.16330       -0.07300
H         -0.29080        2.52370        0.37790
H         -1.08330        2.19630       -1.59820
H         -0.66590        1.58090       -3.19620
H          0.78190       -0.14950       -2.19080
H          0.32780        0.36240       -0.56580
H          1.26740        1.44390       -1.60720
H          0.48500       -1.82890       -8.96030
H         -1.00300       -5.48370       -9.08210
H          4.31040       -3.33870      -11.56840
H          2.16620       -7.76000      -12.79850
H          5.53740       -7.82200      -13.45350
H          4.75080       -7.79250      -15.81570
H          2.93560       -5.91720      -15.97040
H          4.08050       -3.59900      -15.36050
H          6.60290       -4.04610      -14.83150
H          7.13250       -6.64060      -15.31590
H          6.34550       -5.88170      -16.72240
H          6.65680       -5.57220      -12.86460
