
  xtb     02012218563D
 energy: -235.489777629333 gnorm: 0.000515017672 xtb: 6.4.1 (unknown)
129147  0     0  0            999 V2000
   -1.6422    2.9627    9.3235 C   0  0  0  0  0  0  0  0  0  0  0  0
   -0.4839    3.2515    9.9690 C   0  0  0  0  0  0  0  0  0  0  0  0
   -0.3807    3.0529   11.4419 C   0  0  0  0  0  0  0  0  0  0  0  0
   -1.2974    2.9141   12.2195 O   0  0  0  0  0  0  0  0  0  0  0  0
    1.0670    2.9990   11.7222 C   0  0  0  0  0  0  0  0  0  0  0  0
    1.6810    2.6844   12.9329 C   0  0  0  0  0  0  0  0  0  0  0  0
    3.0541    2.6811   12.8809 C   0  0  0  0  0  0  0  0  0  0  0  0
    3.7718    2.9682   11.7112 C   0  0  0  0  0  0  0  0  0  0  0  0
    3.1819    3.2914   10.5125 C   0  0  0  0  0  0  0  0  0  0  0  0
    1.7858    3.3015   10.5455 C   0  0  0  0  0  0  0  0  0  0  0  0
    0.8306    3.6290    9.4915 C   0  0  0  0  0  0  0  0  0  0  0  0
    1.0866    4.4091    8.3957 C   0  0  0  0  0  0  0  0  0  0  0  0
    2.3709    4.8557    8.0263 C   0  0  0  0  0  0  0  0  0  0  0  0
    3.3950    5.2408    7.6790 N   0  0  0  0  0  0  0  0  0  0  0  0
    0.0665    4.9489    7.5835 C   0  0  0  0  0  0  0  0  0  0  0  0
   -0.7379    5.4569    6.9415 N   0  0  0  0  0  0  0  0  0  0  0  0
    5.1053    2.7563   12.3822 C   0  0  0  0  0  0  0  0  0  0  0  0
    5.8492    1.4265   12.1045 C   0  0  0  0  0  0  0  0  0  0  0  0
    4.7921    0.4061   11.7620 C   0  0  0  0  0  0  0  0  0  0  0  0
    4.1147    0.1373   12.8702 C   0  0  0  0  0  0  0  0  0  0  0  0
    4.7011    0.9717   13.9820 C   0  0  0  0  0  0  0  0  0  0  0  0
    6.1748    1.0053   13.5464 C   0  0  0  0  0  0  0  0  0  0  0  0
    4.3068    2.4401   13.6860 C   0  0  0  0  0  0  0  0  0  0  0  0
   -1.8548    2.6739    7.9511 C   0  0  0  0  0  0  0  0  0  0  0  0
   -0.5687    2.1194    6.8908 S   0  0  0  0  0  0  0  0  0  0  0  0
   -1.6775    1.9393    5.5779 C   0  0  0  0  0  0  0  0  0  0  0  0
   -1.3633    1.5051    4.2863 C   0  0  0  0  0  0  0  0  0  0  0  0
    0.2501    1.0700    3.7707 S   0  0  0  0  0  0  0  0  0  0  0  0
   -0.3677    0.7298    2.2026 C   0  0  0  0  0  0  0  0  0  0  0  0
    0.1089    0.2640    0.9722 C   0  0  0  0  0  0  0  0  0  0  0  0
    1.3941   -0.1932    0.6113 C   0  0  0  0  0  0  0  0  0  0  0  0
    1.5824   -0.7389   -0.6977 C   0  0  0  0  0  0  0  0  0  0  0  0
    2.8156   -1.1791   -0.8921 N   0  0  0  0  0  0  0  0  0  0  0  0
    3.6680   -0.9216    0.4606 S   0  0  0  0  0  0  0  0  0  0  0  0
    2.4943   -0.2420    1.3459 N   0  0  0  0  0  0  0  0  0  0  0  0
    0.5008   -0.7068   -1.6034 C   0  0  0  0  0  0  0  0  0  0  0  0
    0.4446   -1.0772   -2.9521 C   0  0  0  0  0  0  0  0  0  0  0  0
    1.4759   -1.7773   -4.1354 S   0  0  0  0  0  0  0  0  0  0  0  0
    0.1864   -1.6399   -5.3102 C   0  0  0  0  0  0  0  0  0  0  0  0
    0.3020   -2.0649   -6.6386 C   0  0  0  0  0  0  0  0  0  0  0  0
   -0.7726   -1.9573   -7.5474 C   0  0  0  0  0  0  0  0  0  0  0  0
   -1.9752   -1.3927   -7.0531 C   0  0  0  0  0  0  0  0  0  0  0  0
   -3.1466   -1.1684   -7.6476 N   0  0  0  0  0  0  0  0  0  0  0  0
   -3.8916   -0.6384   -6.7153 N   0  0  0  0  0  0  0  0  0  0  0  0
   -5.2351   -0.2067   -6.9706 C   0  0  0  0  0  0  0  0  0  0  0  0
   -5.2647    1.2766   -7.3275 C   0  0  0  0  0  0  0  0  0  0  0  0
   -3.3258   -0.4810   -5.5425 N   0  0  0  0  0  0  0  0  0  0  0  0
   -2.0843   -0.9528   -5.7009 C   0  0  0  0  0  0  0  0  0  0  0  0
   -0.9968   -1.0681   -4.7942 C   0  0  0  0  0  0  0  0  0  0  0  0
   -0.8265   -0.7450   -3.4285 C   0  0  0  0  0  0  0  0  0  0  0  0
   -1.5633   -0.1982   -2.4077 N   0  0  0  0  0  0  0  0  0  0  0  0
   -0.7761   -0.1746   -1.2654 C   0  0  0  0  0  0  0  0  0  0  0  0
   -1.0030    0.2307    0.0831 C   0  0  0  0  0  0  0  0  0  0  0  0
   -2.1241    0.6393    0.7899 N   0  0  0  0  0  0  0  0  0  0  0  0
   -1.7423    0.9382    2.0732 C   0  0  0  0  0  0  0  0  0  0  0  0
   -2.3407    1.3887    3.2746 C   0  0  0  0  0  0  0  0  0  0  0  0
   -3.6645    1.7420    3.6421 C   0  0  0  0  0  0  0  0  0  0  0  0
   -3.9798    2.1845    4.9623 C   0  0  0  0  0  0  0  0  0  0  0  0
   -2.9834    2.2888    5.9613 C   0  0  0  0  0  0  0  0  0  0  0  0
   -3.0696    2.6788    7.3043 C   0  0  0  0  0  0  0  0  0  0  0  0
   -5.2892    2.4348    5.0031 N   0  0  0  0  0  0  0  0  0  0  0  0
   -5.7125    2.1611    3.7994 N   0  0  0  0  0  0  0  0  0  0  0  0
   -7.0799    2.3559    3.4135 C   0  0  0  0  0  0  0  0  0  0  0  0
   -7.2745    3.7484    2.8204 C   0  0  0  0  0  0  0  0  0  0  0  0
   -4.8074    1.7487    2.9458 N   0  0  0  0  0  0  0  0  0  0  0  0
   -3.5205    0.4584    0.4648 C   0  0  0  0  0  0  0  0  0  0  0  0
   -3.8571   -1.0177    0.2624 C   0  0  0  0  0  0  0  0  0  0  0  0
   -2.7627    0.5547   -2.6985 C   0  0  0  0  0  0  0  0  0  0  0  0
   -2.5256    2.0559   -2.5460 C   0  0  0  0  0  0  0  0  0  0  0  0
   -0.4477   -2.4455   -8.8079 C   0  0  0  0  0  0  0  0  0  0  0  0
    0.8554   -2.9243   -8.8987 C   0  0  0  0  0  0  0  0  0  0  0  0
    1.7037   -2.7628   -7.3697 S   0  0  0  0  0  0  0  0  0  0  0  0
    1.3602   -3.4631  -10.0945 C   0  0  0  0  0  0  0  0  0  0  0  0
    2.5982   -3.9686  -10.3931 C   0  0  0  0  0  0  0  0  0  0  0  0
    3.7430   -4.0421   -9.4733 C   0  0  0  0  0  0  0  0  0  0  0  0
    3.7852   -3.6955   -8.3080 O   0  0  0  0  0  0  0  0  0  0  0  0
    4.8522   -4.6254  -10.2505 C   0  0  0  0  0  0  0  0  0  0  0  0
    6.1439   -4.8889   -9.8397 C   0  0  0  0  0  0  0  0  0  0  0  0
    7.0460   -5.4452  -10.7396 C   0  0  0  0  0  0  0  0  0  0  0  0
    8.4593   -5.7540  -10.3690 C   0  0  0  0  0  0  0  0  0  0  0  0
    6.5852   -5.7121  -12.0303 C   0  0  0  0  0  0  0  0  0  0  0  0
    7.4507   -6.2516  -12.9093 F   0  0  0  0  0  0  0  0  0  0  0  0
    5.2950   -5.4574  -12.4666 C   0  0  0  0  0  0  0  0  0  0  0  0
    4.4110   -4.9009  -11.5555 C   0  0  0  0  0  0  0  0  0  0  0  0
    3.0080   -4.5082  -11.6760 C   0  0  0  0  0  0  0  0  0  0  0  0
    2.2472   -4.6459  -12.8080 C   0  0  0  0  0  0  0  0  0  0  0  0
    0.8917   -4.2813  -12.9461 C   0  0  0  0  0  0  0  0  0  0  0  0
   -0.2070   -4.0152  -13.1520 N   0  0  0  0  0  0  0  0  0  0  0  0
    2.7257   -5.1886  -14.0196 C   0  0  0  0  0  0  0  0  0  0  0  0
    3.0458   -5.6200  -15.0340 N   0  0  0  0  0  0  0  0  0  0  0  0
   -2.5152    2.8540    9.9603 H   0  0  0  0  0  0  0  0  0  0  0  0
    1.0950    2.4690   13.8127 H   0  0  0  0  0  0  0  0  0  0  0  0
    3.7391    3.5054    9.6150 H   0  0  0  0  0  0  0  0  0  0  0  0
    5.7762    3.6129   12.3895 H   0  0  0  0  0  0  0  0  0  0  0  0
    6.6787    1.5108   11.4075 H   0  0  0  0  0  0  0  0  0  0  0  0
    4.6137    0.0391   10.7683 H   0  0  0  0  0  0  0  0  0  0  0  0
    3.2573   -0.4994   12.9872 H   0  0  0  0  0  0  0  0  0  0  0  0
    4.4860    0.6415   14.9949 H   0  0  0  0  0  0  0  0  0  0  0  0
    6.6526    0.0284   13.6020 H   0  0  0  0  0  0  0  0  0  0  0  0
    6.7711    1.7380   14.0885 H   0  0  0  0  0  0  0  0  0  0  0  0
    4.4557    3.0913   14.5451 H   0  0  0  0  0  0  0  0  0  0  0  0
   -5.8233   -0.3943   -6.0697 H   0  0  0  0  0  0  0  0  0  0  0  0
   -5.6146   -0.8077   -7.7985 H   0  0  0  0  0  0  0  0  0  0  0  0
   -4.8644    1.8686   -6.5079 H   0  0  0  0  0  0  0  0  0  0  0  0
   -6.2866    1.5894   -7.5208 H   0  0  0  0  0  0  0  0  0  0  0  0
   -4.6681    1.4596   -8.2177 H   0  0  0  0  0  0  0  0  0  0  0  0
   -3.9880    2.9819    7.7731 H   0  0  0  0  0  0  0  0  0  0  0  0
   -7.6907    2.2326    4.3095 H   0  0  0  0  0  0  0  0  0  0  0  0
   -7.3313    1.5882    2.6786 H   0  0  0  0  0  0  0  0  0  0  0  0
   -7.0069    4.5069    3.5517 H   0  0  0  0  0  0  0  0  0  0  0  0
   -6.6482    3.8726    1.9403 H   0  0  0  0  0  0  0  0  0  0  0  0
   -8.3134    3.8870    2.5356 H   0  0  0  0  0  0  0  0  0  0  0  0
   -3.7871    1.0558   -0.4062 H   0  0  0  0  0  0  0  0  0  0  0  0
   -4.0949    0.8481    1.3072 H   0  0  0  0  0  0  0  0  0  0  0  0
   -3.2520   -1.4619   -0.5250 H   0  0  0  0  0  0  0  0  0  0  0  0
   -3.6719   -1.5683    1.1819 H   0  0  0  0  0  0  0  0  0  0  0  0
   -4.9069   -1.1252    0.0021 H   0  0  0  0  0  0  0  0  0  0  0  0
   -3.0327    0.3316   -3.7322 H   0  0  0  0  0  0  0  0  0  0  0  0
   -3.5875    0.2130   -2.0749 H   0  0  0  0  0  0  0  0  0  0  0  0
   -1.7601    2.3829   -3.2461 H   0  0  0  0  0  0  0  0  0  0  0  0
   -3.4427    2.5989   -2.7590 H   0  0  0  0  0  0  0  0  0  0  0  0
   -2.1934    2.3075   -1.5411 H   0  0  0  0  0  0  0  0  0  0  0  0
   -1.1343   -2.4549   -9.6355 H   0  0  0  0  0  0  0  0  0  0  0  0
    0.6282   -3.4636  -10.8934 H   0  0  0  0  0  0  0  0  0  0  0  0
    6.4417   -4.6610   -8.8276 H   0  0  0  0  0  0  0  0  0  0  0  0
    9.1445   -5.1938  -11.0045 H   0  0  0  0  0  0  0  0  0  0  0  0
    8.6665   -6.8122  -10.5245 H   0  0  0  0  0  0  0  0  0  0  0  0
    8.6503   -5.5016   -9.3302 H   0  0  0  0  0  0  0  0  0  0  0  0
    5.0267   -5.6953  -13.4825 H   0  0  0  0  0  0  0  0  0  0  0  0
  1  2  2  0  0  0  0
  2  3  1  0  0  0  0
  3  4  2  0  0  0  0
  3  5  1  0  0  0  0
  5  6  2  0  0  0  0
  6  7  1  0  0  0  0
  7  8  2  0  0  0  0
  8  9  1  0  0  0  0
  9 10  2  0  0  0  0
 10 11  1  0  0  0  0
 11 12  2  0  0  0  0
 12 13  1  0  0  0  0
 13 14  3  0  0  0  0
 12 15  1  0  0  0  0
 15 16  3  0  0  0  0
  8 17  1  0  0  0  0
 17 18  1  0  0  0  0
 18 19  1  0  0  0  0
 19 20  2  0  0  0  0
 20 21  1  0  0  0  0
 21 22  1  0  0  0  0
 21 23  1  0  0  0  0
  1 24  1  0  0  0  0
 24 25  1  0  0  0  0
 25 26  1  0  0  0  0
 26 27  1  0  0  0  0
 27 28  1  0  0  0  0
 28 29  1  0  0  0  0
 29 30  1  0  0  0  0
 30 31  1  0  0  0  0
 31 32  1  0  0  0  0
 32 33  2  0  0  0  0
 33 34  1  0  0  0  0
 34 35  1  0  0  0  0
 32 36  1  0  0  0  0
 36 37  1  0  0  0  0
 37 38  1  0  0  0  0
 38 39  1  0  0  0  0
 39 40  1  0  0  0  0
 40 41  2  0  0  0  0
 41 42  1  0  0  0  0
 42 43  2  0  0  0  0
 43 44  1  0  0  0  0
 44 45  1  0  0  0  0
 45 46  1  0  0  0  0
 44 47  1  0  0  0  0
 47 48  2  0  0  0  0
 48 49  1  0  0  0  0
 49 50  1  0  0  0  0
 50 51  1  0  0  0  0
 51 52  1  0  0  0  0
 52 53  1  0  0  0  0
 53 54  1  0  0  0  0
 54 55  1  0  0  0  0
 55 56  1  0  0  0  0
 56 57  1  0  0  0  0
 57 58  1  0  0  0  0
 58 59  1  0  0  0  0
 59 60  1  0  0  0  0
 58 61  2  0  0  0  0
 61 62  1  0  0  0  0
 62 63  1  0  0  0  0
 63 64  1  0  0  0  0
 62 65  1  0  0  0  0
 54 66  1  0  0  0  0
 66 67  1  0  0  0  0
 51 68  1  0  0  0  0
 68 69  1  0  0  0  0
 41 70  1  0  0  0  0
 70 71  2  0  0  0  0
 71 72  1  0  0  0  0
 71 73  1  0  0  0  0
 73 74  2  0  0  0  0
 74 75  1  0  0  0  0
 75 76  2  0  0  0  0
 75 77  1  0  0  0  0
 77 78  2  0  0  0  0
 78 79  1  0  0  0  0
 79 80  1  0  0  0  0
 79 81  2  0  0  0  0
 81 82  1  0  0  0  0
 81 83  1  0  0  0  0
 83 84  2  0  0  0  0
 84 85  1  0  0  0  0
 85 86  2  0  0  0  0
 86 87  1  0  0  0  0
 87 88  3  0  0  0  0
 86 89  1  0  0  0  0
 89 90  3  0  0  0  0
 11  2  1  0  0  0  0
 23 17  1  0  0  0  0
 60 24  2  0  0  0  0
 85 74  1  0  0  0  0
 10  5  1  0  0  0  0
 22 18  1  0  0  0  0
 59 26  2  0  0  0  0
 84 77  1  0  0  0  0
 23  7  1  0  0  0  0
 56 27  2  0  0  0  0
 65 57  2  0  0  0  0
 55 29  2  0  0  0  0
 53 30  2  0  0  0  0
 35 31  2  0  0  0  0
 52 36  2  0  0  0  0
 50 37  2  0  0  0  0
 49 39  2  0  0  0  0
 72 40  1  0  0  0  0
 48 42  1  0  0  0  0
  1 91  1  0  0  0  0
  6 92  1  0  0  0  0
  9 93  1  0  0  0  0
 17 94  1  0  0  0  0
 18 95  1  0  0  0  0
 19 96  1  0  0  0  0
 20 97  1  0  0  0  0
 21 98  1  0  0  0  0
 22 99  1  0  0  0  0
 22100  1  0  0  0  0
 23101  1  0  0  0  0
 45102  1  0  0  0  0
 45103  1  0  0  0  0
 46104  1  0  0  0  0
 46105  1  0  0  0  0
 46106  1  0  0  0  0
 60107  1  0  0  0  0
 63108  1  0  0  0  0
 63109  1  0  0  0  0
 64110  1  0  0  0  0
 64111  1  0  0  0  0
 64112  1  0  0  0  0
 66113  1  0  0  0  0
 66114  1  0  0  0  0
 67115  1  0  0  0  0
 67116  1  0  0  0  0
 67117  1  0  0  0  0
 68118  1  0  0  0  0
 68119  1  0  0  0  0
 69120  1  0  0  0  0
 69121  1  0  0  0  0
 69122  1  0  0  0  0
 70123  1  0  0  0  0
 73124  1  0  0  0  0
 78125  1  0  0  0  0
 80126  1  0  0  0  0
 80127  1  0  0  0  0
 80128  1  0  0  0  0
 83129  1  0  0  0  0
M  END
