132

C          4.27800       -8.36660        1.21040
C          4.38660       -8.30390        2.56080
C          5.45020       -9.06580        3.27170
O          6.38350       -9.64420        2.76290
C          5.09790       -8.99500        4.70210
C          5.77130       -9.59040        5.76720
C          5.21700       -9.33120        6.99750
C          4.05290       -8.56650        7.15870
C          3.37650       -7.97520        6.12000
C          3.94860       -8.19170        4.86320
C          3.58910       -7.62430        3.56680
C          2.85750       -6.47810        3.40450
C          2.16700       -5.82130        4.44460
N          1.55920       -5.24460        5.22990
C          2.77170       -5.71380        2.22100
N          2.70210       -4.96810        1.35040
C          4.07050       -8.70780        8.65940
C          4.54950       -7.48550        9.48130
C          5.47120       -6.70040        8.58070
C          6.58270       -7.40720        8.42550
C          6.43330       -8.68200        9.21880
C          5.58040       -8.17160       10.39140
C          5.37680       -9.54420        8.48190
C          3.17550       -7.90470        0.43890
S          3.46620       -7.09200       -1.08640
C          1.80170       -6.63960       -1.19320
C          1.26570       -5.67200       -2.05030
S          2.19940       -4.80770       -3.24870
C          0.88190       -3.72320       -3.45900
C          0.61110       -2.53220       -4.14230
C          1.35350       -1.86140       -5.13700
C          0.82790       -0.64600       -5.68050
N          1.59730       -0.13860       -6.63030
S          2.87810       -1.11190       -6.82250
N          2.49880       -2.21470       -5.69890
C         -0.34450       -0.10750       -5.10820
C         -0.90110        1.16980       -5.24890
S         -0.54400        2.63930       -6.06860
C         -1.76610        3.44830       -5.10810
C         -1.94620        4.83450       -5.07430
C         -2.86170        5.45150       -4.19740
C         -3.69280        4.58870       -3.44250
N         -4.70220        4.84770       -2.61160
N         -5.07950        3.67510       -2.17990
C         -6.19610        3.51660       -1.29400
C         -7.48320        3.30340       -2.08540
N         -4.41390        2.64500       -2.64190
C         -3.50030        3.17540       -3.46270
C         -2.47680        2.58280       -4.24740
C         -1.94330        1.27710       -4.32620
N         -2.07200        0.09250       -3.64330
C         -1.08270       -0.77290       -4.08700
C         -0.65800       -2.07390       -3.68390
N         -1.17050       -3.03560       -2.82880
C         -0.23400       -4.02600       -2.67640
C         -0.05230       -5.19230       -1.89630
C         -0.87440       -5.90720       -0.98810
C         -0.33250       -6.91600       -0.13590
C          1.04690       -7.22660       -0.16350
C          1.83950       -7.92480        0.75850
N         -1.32700       -7.39030        0.61510
N         -2.37840       -6.71920        0.22320
C         -3.68650       -6.98210        0.74940
C         -4.38110       -8.07420       -0.05890
N         -2.18180       -5.82980       -0.71800
C         -2.50420       -3.19030       -2.29690
C         -2.58640       -2.82450       -0.81250
C         -2.75800        0.11620       -2.37160
C         -1.83630        0.65380       -1.27650
C         -2.73520        6.84290       -4.15850
C         -1.74990        7.31730       -4.99830
S         -1.01540        6.01180       -5.92910
C         -1.23600        8.61970       -5.17430
C         -1.14430        9.59700       -4.22030
C         -1.27400        9.38110       -2.75990
O         -1.77800        8.45060       -2.16940
C         -0.58000       10.52870       -2.13640
C         -0.31470       10.73850       -0.81460
C          0.39720       11.89800       -0.43410
C          0.71090       12.15540        0.91440
C          1.41230       13.27770        1.25540
F          1.71410       13.51870        2.53960
C          1.82650       14.19070        0.26560
F          2.51340       15.28270        0.62930
C          1.53520       13.96910       -1.05120
C          0.81560       12.82020       -1.43670
C          0.51850       12.57790       -2.79800
C         -0.16950       11.44490       -3.14330
C         -0.58490       10.91600       -4.43810
C         -0.52680       11.57950       -5.63550
C         -1.03780       11.07020       -6.84820
N         -1.45690       10.72370       -7.85920
C          0.00350       12.87650       -5.78840
N          0.42900       13.92820       -5.96380
H          5.11500       -8.80820        0.68040
H          6.65730      -10.18240        5.59980
H          2.48120       -7.39170        6.25660
H          3.20760       -9.19820        9.10520
H          3.75270       -6.92270        9.95990
H          5.20470       -5.76820        8.11790
H          7.43170       -7.18290        7.80660
H          7.35370       -9.20690        9.46040
H          6.11600       -7.46710       11.02560
H          5.15850       -8.96920       11.00150
H          5.37470      -10.57730        8.82370
H         -6.26330        4.42410       -0.69160
H         -5.99300        2.65490       -0.65450
H         -7.67340        4.15940       -2.72800
H         -8.32030        3.18420       -1.40380
H         -7.40220        2.41160       -2.70220
H          1.43910       -8.41860        1.62600
H         -4.25340       -6.05030        0.70140
H         -3.56510       -7.29500        1.78800
H         -3.80100       -8.99290       -0.02170
H         -5.36850       -8.26600        0.35080
H         -4.48510       -7.76590       -1.09650
H         -2.77650       -4.24500       -2.39740
H         -3.19290       -2.60700       -2.91140
H         -2.16280       -3.62800       -0.21950
H         -3.62440       -2.69530       -0.51710
H         -2.03420       -1.91800       -0.58830
H         -3.61530        0.78430       -2.47970
H         -3.12250       -0.86850       -2.11380
H         -2.35000        0.64320       -0.31890
H         -0.93060        0.05430       -1.20130
H         -1.54680        1.67810       -1.49990
H         -3.35130        7.46840       -3.54220
H         -0.77180        8.80780       -6.13600
H         -0.63670       10.02590       -0.07050
H          0.40170       11.46510        1.68360
H          1.85980       14.67890       -1.79600
H          0.85590       13.28830       -3.53560
