164

C          1.18700       -1.96400        7.54130
C          0.12260       -1.53880        8.29410
C         -1.08450       -0.87800        7.78570
O         -1.30950       -0.51850        6.64240
C         -1.99410       -0.73620        8.93560
C         -3.28010       -0.20200        8.92670
C         -3.90120       -0.21960       10.15250
C         -3.28510       -0.72650       11.30400
C         -2.01440       -1.25040       11.32730
C         -1.36620       -1.24710       10.08930
C         -0.03310       -1.72390        9.72330
C          0.89600       -2.22390       10.60000
C          0.68830       -2.37360       11.98700
N          0.59680       -2.52760       13.12140
C          2.20080       -2.64610       10.27040
N          3.27960       -3.00290       10.09890
C         -4.48930       -0.44890       12.16810
C         -5.39530       -1.64720       12.54470
C         -5.23210       -2.66970       11.44760
C         -5.81650       -2.19070       10.35760
C         -6.38500       -0.83520       10.69780
C         -6.76670       -1.06370       12.16910
C         -5.17650        0.11570       10.88490
C          1.43500       -1.85420        6.16680
C          2.57540       -2.41270        5.57290
C          2.63030       -2.18550        4.21610
C          3.54270       -2.55820        3.07640
C          3.60010       -4.07280        3.00570
C          4.42780       -4.76120        3.88500
C          4.46380       -6.14170        3.87970
C          3.66920       -6.87210        3.00460
C          3.74460       -8.37120        2.96820
C          4.82130       -8.82820        1.98180
C          2.83790       -6.17970        2.13560
C          2.79640       -4.79670        2.13760
C          4.92560       -1.94000        3.16790
C          5.14630       -0.78860        3.91050
C          6.40060       -0.20810        3.94820
C          7.46150       -0.75240        3.23740
C          8.83310       -0.14720        3.31700
C          9.62770       -0.77440        4.46440
C          7.23270       -1.89850        2.48690
C          5.98180       -2.48410        2.44770
C          2.81690       -1.90880        1.91160
C          1.65510       -1.25710        2.33460
C          1.53930       -1.44900        3.74710
S          0.42870       -1.03680        4.98080
C          0.83250       -0.55650        1.42240
C         -0.33400        0.12530        1.81870
C         -1.10690        0.80850        0.91030
C         -0.73280        0.81570       -0.42990
C         -1.41990        1.52110       -1.58550
C         -1.46760        3.00600       -1.27210
C         -2.53320        3.53080       -0.55190
C         -2.56570        4.87330       -0.22620
C         -1.53570        5.72480       -0.60400
C         -1.60030        7.19310       -0.29750
C         -2.31830        7.94010       -1.42340
C         -0.46920        5.19300       -1.31550
C         -0.42980        3.84990       -1.64100
C         -2.79700        0.97700       -1.91990
C         -3.58860        1.66740       -2.83070
C         -4.83230        1.18340       -3.18530
C         -5.31750       -0.00130       -2.64510
C         -6.65360       -0.54480       -3.06260
C         -6.50380       -1.44730       -4.28900
C         -4.51590       -0.69340       -1.74850
C         -3.26760       -0.21500       -1.39040
C         -0.49440        1.17320       -2.72190
C         -0.43640        1.43450       -4.07930
C          0.66170        0.83270       -4.68470
S          1.60950       -0.09260       -3.51390
C          0.54320        0.36390       -2.26050
C          0.42140        0.15030       -0.85280
C          1.24170       -0.55470        0.05780
C          2.41730       -1.22170       -0.33590
C          3.20230       -1.88650        0.57520
C          1.13130        0.80940       -6.00920
C          0.73700        1.49980       -7.12450
C         -0.23070        2.61410       -7.23360
O         -1.02670        3.01900       -6.40930
C         -0.03680        3.18450       -8.58070
C         -0.67170        4.30730       -9.10650
C         -0.27880        4.62510      -10.38400
C          0.68280        3.88530      -11.08540
C          1.31440        2.77460      -10.57930
C          0.92030        2.42820       -9.28360
C          1.35450        1.32710       -8.42880
C          2.14080        0.27890       -8.83300
C          2.68810        0.14680      -10.12630
N          3.16970       -0.02930      -11.15390
C          2.48190       -0.84810       -8.05510
N          2.79250       -1.80980       -7.50850
C          0.59320        4.77150      -12.30230
C         -0.19750        4.24110      -13.52350
C         -1.21620        3.26800      -12.98410
C         -2.13020        3.96460      -12.32180
C         -1.74590        5.42140      -12.40130
C         -1.09990        5.45520      -13.79570
C         -0.48180        5.59290      -11.52290
H          1.97470       -2.49010        8.06750
H         -3.71550        0.17860        8.01590
H         -1.55820       -1.63770       12.22270
H         -4.33140        0.23050       13.00330
H         -5.26540       -2.00910       13.56110
H         -4.67600       -3.58230       11.55750
H         -5.84570       -2.62300        9.37450
H         -7.15780       -0.45810       10.03300
H         -7.00840       -0.14540       12.70260
H         -7.57670       -1.78200       12.28740
H         -5.46900        1.16400       10.88230
H          3.30830       -2.95250        6.14560
H          5.05440       -4.20940        4.57080
H          5.11490       -6.66080        4.56860
H          3.98220       -8.75390        3.96270
H          2.78020       -8.78330        2.66430
H          4.87780       -9.91390        1.95590
H          4.59470       -8.46790        0.98090
H          5.79300       -8.43660        2.27450
H          2.20850       -6.72810        1.44910
H          2.13390       -4.28200        1.45700
H          4.33500       -0.34140        4.46620
H          6.55530        0.68490        4.53690
H          9.36570       -0.31220        2.37820
H          8.75380        0.92940        3.48070
H         10.62100       -0.33570        4.52420
H          9.72970       -1.84650        4.31200
H          9.11770       -0.61090        5.41110
H          8.04380       -2.33720        1.92320
H          5.82810       -3.37920        1.86240
H         -0.61500        0.10650        2.86100
H         -1.99440        1.33320        1.22860
H         -3.35010        2.88830       -0.25620
H         -3.40430        5.26570        0.33150
H         -0.59040        7.59330       -0.18690
H         -2.13630        7.35330        0.64020
H         -2.36320        9.00490       -1.20680
H         -3.33290        7.56530       -1.53840
H         -1.79330        7.79810       -2.36530
H          0.34430        5.83690       -1.61820
H          0.41410        3.46080       -2.19160
H         -3.23030        2.59320       -3.25590
H         -5.43690        1.73480       -3.89120
H         -7.32920        0.27870       -3.30290
H         -7.09230       -1.11960       -2.24440
H         -6.07670       -0.88910       -5.11910
H         -7.47130       -1.83920       -4.59420
H         -5.84480       -2.28320       -4.06520
H         -4.87120       -1.62010       -1.32050
H         -2.66280       -0.77470       -0.69180
H         -1.13420        2.03710       -4.62940
H          2.70010       -1.20170       -1.37780
H          4.10460       -2.38830        0.26130
H          1.97680        0.14380       -6.14300
H         -1.40040        4.85290       -8.52750
H          2.05750        2.22150      -11.12880
H          1.51160        5.27890      -12.59100
H          0.42200        3.88310      -14.34130
H         -1.13810        2.20150      -13.08700
H         -2.96880        3.59620      -11.76030
H         -2.53710        6.13860      -12.19870
H         -0.54600        6.37160      -13.99520
H         -1.81620        5.27670      -14.59620
H         -0.26660        6.63760      -11.30570
