132

C         -0.96770        2.36820       -9.20840
C         -1.65700        2.11760      -10.36250
C         -2.97100        1.45450      -10.53400
O         -3.64520        0.87140       -9.70950
C         -3.34170        1.65240      -11.94770
C         -4.52480        1.24060      -12.55880
C         -4.60710        1.56270      -13.89150
C         -3.58640        2.24450      -14.56820
C         -2.41420        2.65240      -13.97850
C         -2.30970        2.33340      -12.62020
C         -1.22730        2.58440      -11.67260
C         -0.00140        3.10200      -12.00230
C          1.10000        3.26450      -11.13420
N          2.05870        3.41440      -10.51930
C          0.36580        3.51960      -13.29930
N          0.73880        3.88520      -14.32200
C         -4.34000        2.24000      -15.87500
C         -5.02250        3.56230      -16.28350
C         -6.05010        3.13780      -17.30770
C         -7.01690        2.49380      -16.66650
C         -6.65890        2.47200      -15.19790
C         -5.93990        3.82220      -15.08160
C         -5.47820        1.48070      -15.12050
C         -1.19430        1.96720       -7.87470
S         -0.07540        2.62170       -6.67430
C         -0.84470        1.73450       -5.41260
C         -0.48260        1.72040       -4.06080
S          0.85360        2.63540       -3.39670
C          0.52260        1.95950       -1.85070
C          1.03170        2.02520       -0.54780
C          2.04660        2.83940       -0.00090
C          2.30070        2.76620        1.40630
N          3.23750        3.61550        1.79780
S          3.75870        4.43430        0.50130
N          2.80690        3.73680       -0.60810
C          1.60530        1.80330        2.16890
C          1.76870        1.41440        3.50420
S          2.71770        1.86260        4.86660
C          2.00570        0.54570        5.77110
C          2.35180        0.22510        7.08880
C          1.76730       -0.85420        7.77580
C          0.78530       -1.59430        7.07740
N          0.05310       -2.64560        7.44840
N         -0.66970       -2.92630        6.39820
C         -1.56640       -4.04500        6.36930
C         -0.87060       -5.27270        5.78830
N         -0.49000       -2.16140        5.34910
C          0.44130       -1.27900        5.72960
C          1.05660       -0.20150        5.04160
C          0.93780        0.31460        3.72910
N          0.24280        0.03120        2.58110
C          0.62810        0.93600        1.60430
C          0.25770        1.12880        0.24180
N         -0.72640        0.58310       -0.56830
C         -0.56390        1.08150       -1.83640
C         -1.16440        0.93340       -3.10790
C         -2.25330        0.16320       -3.59270
C         -2.62300        0.18110       -4.97060
C         -1.91880        0.96990       -5.91290
C         -2.10440        1.10960       -7.29090
N         -3.66820       -0.63270       -5.11890
N         -3.89900       -1.09240       -3.91970
C         -4.93400       -2.05080       -3.66140
C         -4.37480       -3.46970       -3.71260
N         -3.10030       -0.66570       -2.97130
C         -1.97020       -0.04360       -0.18000
C         -2.76980        0.84770        0.76770
C         -0.42800       -1.23900        2.42280
C          0.33290       -2.15500        1.46660
C          2.31210       -1.05100        9.04910
C          3.30020       -0.14310        9.36010
S          3.53560        1.01620        8.06510
C          4.06650       -0.02430       10.54490
C          4.34430       -0.97870       11.47300
C          4.80950       -0.56330       12.82770
O          5.18270        0.54010       13.15540
C          4.66230       -1.76420       13.66870
C          4.85370       -1.90990       15.02760
C          4.64190       -3.15050       15.62030
C          4.85630       -3.32120       17.09020
C          4.23030       -4.23680       14.83220
C          3.99340       -5.57360       15.45920
C          4.04210       -4.08380       13.46170
C          4.26200       -2.85130       12.87180
C          4.19880       -2.41990       11.47850
C          4.25290       -3.25730       10.39460
C          4.48000       -2.83470        9.06920
N          4.71480       -2.56890        7.97730
C          4.17380       -4.66170       10.48140
N          4.08770       -5.80680       10.48800
H         -0.08640        2.99110       -9.31040
H         -5.28180        0.71440      -11.99850
H         -1.64100        3.17560      -14.51510
H         -3.84380        1.74250      -16.70610
H         -4.33980        4.35580      -16.57470
H         -5.94380        3.29520      -18.36500
H         -7.87950        2.00580      -17.08110
H         -7.46770        2.27310      -14.49990
H         -5.41000        3.96340      -14.14140
H         -6.61170        4.66210      -15.25070
H         -5.74260        0.47750      -15.45010
H         -2.42670       -3.76700        5.75640
H         -1.88230       -4.23360        7.39660
H         -0.53420       -5.06880        4.77460
H         -1.55880       -6.11270        5.76830
H         -0.00990       -5.53870        6.39670
H         -2.87650        0.60220       -7.83890
H         -5.34740       -1.83860       -2.67300
H         -5.69930       -1.91250       -4.42680
H         -5.16580       -4.18610       -3.51080
H         -3.59110       -3.59140       -2.96860
H         -3.96020       -3.67310       -4.69680
H         -1.78310       -1.02520        0.25460
H         -2.54100       -0.20680       -1.09570
H         -2.20730        1.07820        1.66970
H         -3.69500        0.35150        1.04850
H         -3.01680        1.78520        0.27470
H         -1.45730       -1.08580        2.10030
H         -0.46940       -1.70050        3.41090
H         -0.19830       -3.09680        1.35610
H          0.45000       -1.70060        0.48530
H          1.32400       -2.36220        1.86380
H          1.96220       -1.81400        9.72080
H          4.44060        0.96790       10.77790
H          5.17050       -1.06200       15.61620
H          3.94940       -3.68480       17.57140
H          5.14030       -2.37880       17.54950
H          5.64340       -4.05060       17.27900
H          3.20350       -5.51170       16.20700
H          4.89400       -5.92500       15.96080
H          3.70610       -6.30540       14.70960
H          3.71790       -4.92940       12.87580
