126

C         -7.81740       -0.53150        4.41480
C         -8.06280        0.30580        5.46840
C         -7.31770        1.53370        5.78570
O         -6.40020        2.02750        5.15600
C         -7.90290        2.06460        7.02690
C         -7.50550        3.20870        7.71450
C         -8.22570        3.45010        8.85930
C         -9.26760        2.61570        9.28640
C         -9.67440        1.48890        8.61200
C         -8.95250        1.22170        7.44480
C         -9.08480        0.12720        6.48420
C        -10.01440       -0.87830        6.55550
C        -10.16140       -1.93890        5.63710
N        -10.35810       -2.83570        4.94600
C        -10.98170       -1.00370        7.57510
N        -11.79570       -1.17820        8.36610
C         -9.53480        3.44630       10.51650
C         -9.00970        2.91440       11.87310
C         -7.81660        2.04520       11.56180
C         -6.83280        2.83730       11.15710
C         -7.34320        4.25680       11.18680
C         -8.29820        4.17590       12.38840
C         -8.37610        4.37740       10.03900
C         -6.81960       -0.48270        3.42260
S         -5.57530        0.74120        3.24140
C         -4.89270       -0.11940        1.90780
C         -3.73950        0.24040        1.20040
S         -2.80990        1.68040        1.54780
C         -1.68200        1.21500        0.33750
C         -0.45260        1.65540       -0.16390
C          0.35050        2.74060        0.24610
C          1.66140        2.86570       -0.31090
N          2.33540        3.88570        0.19700
S          1.39040        4.62960        1.28220
N          0.08980        3.67440        1.14740
C          2.05760        1.95210       -1.31010
C          3.25500        1.87340       -2.02870
S          4.78460        2.65470       -2.05510
C          5.29060        1.56760       -3.32850
C          6.57370        1.56650       -3.88350
C          6.96510        0.64250       -4.87230
C          5.97890       -0.27920       -5.29950
N          6.02770       -1.25150       -6.21040
N          4.83140       -1.77410       -6.19510
C          4.45430       -2.82890       -7.09080
C          3.93100       -2.25410       -8.40400
N          3.97760       -1.24330       -5.35440
C          4.66440       -0.27030       -4.74480
C          4.29520        0.64870       -3.72790
C          3.12270        0.84220       -2.96170
N          1.88030        0.27230       -2.83150
C          1.20910        0.91940       -1.80240
C         -0.04340        0.71340       -1.15120
N         -1.01810       -0.27030       -1.22500
C         -2.00220        0.02210       -0.31530
C         -3.20240       -0.55370        0.16540
C         -3.93240       -1.72720       -0.16320
C         -5.11840       -2.08950        0.54280
C         -5.61040       -1.29570        1.60920
C         -6.69280       -1.48150        2.46440
N         -5.57310       -3.22500        0.01360
N         -4.72330       -3.50830       -0.93650
C         -4.83800       -4.69800       -1.72890
C         -3.94900       -5.80410       -1.16780
N         -3.72920       -2.66680       -1.09310
C         -0.95530       -1.57550       -1.83970
C          0.13360       -2.43730       -1.20210
C          1.34070       -0.53790       -3.90130
C          0.25820        0.21400       -4.67320
C          8.29110        0.80600       -5.27860
C          8.93630        1.83840       -4.62490
S          7.87450        2.61630       -3.46130
C         10.27780        2.26670       -4.69090
C         11.24760        1.98800       -5.60960
C         12.67020        2.18250       -5.21080
O         13.06980        2.77640       -4.23940
C         13.45360        1.45230       -6.23310
C         14.80790        1.18210       -6.30980
F         15.65360        1.62600       -5.37560
C         15.30860        0.43420       -7.36880
C         14.44540       -0.04120       -8.34050
C         13.08200        0.22280       -8.29060
C         12.59010        0.97430       -7.23750
C         11.22960        1.42890       -6.93810
C         10.21580        1.52760       -7.85660
C          9.01230        2.22110       -7.61720
N          8.03430        2.80670       -7.48400
C         10.28680        1.02800       -9.17220
N         10.27870        0.62030      -10.24550
H         -8.46190       -1.39660        4.31500
H         -6.69700        3.82170        7.34790
H        -10.47990        0.86180        8.95520
H        -10.53270        3.87280       10.59690
H         -9.77160        2.47310       12.51000
H         -7.82850        0.97210       11.61200
H         -5.85830        2.55850       10.80100
H         -6.58810        5.03840       11.19890
H         -7.77700        4.01050       13.33010
H         -8.95630        5.03900       12.47870
H         -8.61760        5.41230        9.80480
H          3.68320       -3.42230       -6.59560
H          5.34160       -3.43890       -7.26970
H          4.69840       -1.64750       -8.87820
H          3.65670       -3.06140       -9.07680
H          3.05580       -1.63480       -8.22250
H         -7.35990       -2.32270        2.40290
H         -4.54030       -4.45170       -2.75060
H         -5.88670       -4.99870       -1.70620
H         -4.04100       -6.69760       -1.77840
H         -4.24580       -6.04380       -0.14980
H         -2.90960       -5.48460       -1.16520
H         -0.81620       -1.47840       -2.91530
H         -1.92660       -2.04860       -1.68140
H          1.10750       -1.95570       -1.25800
H         -0.09900       -2.60830       -0.15350
H          0.18710       -3.39950       -1.70480
H          2.17110       -0.76940       -4.57070
H          0.97200       -1.48670       -3.51420
H         -0.14560       -0.42100       -5.45740
H          0.68110        1.10420       -5.13330
H         -0.55400        0.52540       -4.01950
H          8.76350        0.15100       -5.98760
H         10.62580        2.84270       -3.83800
H         16.36730        0.23330       -7.41460
H         14.83980       -0.62880       -9.15510
H         12.43000       -0.16390       -9.05660
