
  xtb     02012219093D
 energy: -246.107258802673 gnorm: 0.000310052454 xtb: 6.4.1 (unknown)
139160  0     0  0            999 V2000
   -3.6286    2.4577    9.5984 C   0  0  0  0  0  0  0  0  0  0  0  0
   -2.9745    3.1656   10.5628 C   0  0  0  0  0  0  0  0  0  0  0  0
   -1.8506    4.1157   10.3696 C   0  0  0  0  0  0  0  0  0  0  0  0
   -1.5200    4.7042    9.3627 O   0  0  0  0  0  0  0  0  0  0  0  0
   -1.1607    4.1742   11.6735 C   0  0  0  0  0  0  0  0  0  0  0  0
    0.0389    4.8261   11.9498 C   0  0  0  0  0  0  0  0  0  0  0  0
    0.4741    4.6714   13.2437 C   0  0  0  0  0  0  0  0  0  0  0  0
   -0.2333    3.9269   14.1979 C   0  0  0  0  0  0  0  0  0  0  0  0
   -1.4250    3.2913   13.9433 C   0  0  0  0  0  0  0  0  0  0  0  0
   -1.8821    3.4324   12.6299 C   0  0  0  0  0  0  0  0  0  0  0  0
   -3.0705    2.8855   11.9858 C   0  0  0  0  0  0  0  0  0  0  0  0
   -4.1297    2.2902   12.6167 C   0  0  0  0  0  0  0  0  0  0  0  0
   -4.2001    2.0635   14.0067 C   0  0  0  0  0  0  0  0  0  0  0  0
   -4.3126    1.8480   15.1288 N   0  0  0  0  0  0  0  0  0  0  0  0
   -5.3166    1.8834   11.9693 C   0  0  0  0  0  0  0  0  0  0  0  0
   -6.3187    1.5545   11.5158 N   0  0  0  0  0  0  0  0  0  0  0  0
    0.8031    4.1644   15.2673 C   0  0  0  0  0  0  0  0  0  0  0  0
    1.7816    3.0072   15.5884 C   0  0  0  0  0  0  0  0  0  0  0  0
    1.8883    2.1735   14.3357 C   0  0  0  0  0  0  0  0  0  0  0  0
    2.5564    2.8807   13.4342 C   0  0  0  0  0  0  0  0  0  0  0  0
    2.9134    4.2058   14.0613 C   0  0  0  0  0  0  0  0  0  0  0  0
    3.1154    3.7683   15.5208 C   0  0  0  0  0  0  0  0  0  0  0  0
    1.5891    4.9966   14.2057 C   0  0  0  0  0  0  0  0  0  0  0  0
   -3.5667    2.6082    8.1929 C   0  0  0  0  0  0  0  0  0  0  0  0
   -3.9270    1.1775    7.2276 S   0  0  0  0  0  0  0  0  0  0  0  0
   -3.5798    2.0304    5.7683 C   0  0  0  0  0  0  0  0  0  0  0  0
   -3.5254    1.4870    4.4798 C   0  0  0  0  0  0  0  0  0  0  0  0
   -3.8329   -0.1971    4.1166 S   0  0  0  0  0  0  0  0  0  0  0  0
   -3.4077    0.1011    2.4773 C   0  0  0  0  0  0  0  0  0  0  0  0
   -3.2978   -0.6134    1.2784 C   0  0  0  0  0  0  0  0  0  0  0  0
   -3.6680   -1.9388    0.9664 C   0  0  0  0  0  0  0  0  0  0  0  0
   -3.5642   -2.3770   -0.3929 C   0  0  0  0  0  0  0  0  0  0  0  0
   -3.9971   -3.6167   -0.5611 N   0  0  0  0  0  0  0  0  0  0  0  0
   -4.4897   -4.1846    0.8731 S   0  0  0  0  0  0  0  0  0  0  0  0
   -4.1699   -2.8697    1.7628 N   0  0  0  0  0  0  0  0  0  0  0  0
   -2.9804   -1.5081   -1.3394 C   0  0  0  0  0  0  0  0  0  0  0  0
   -2.6140   -1.7374   -2.6729 C   0  0  0  0  0  0  0  0  0  0  0  0
   -2.6827   -3.0108   -3.8271 S   0  0  0  0  0  0  0  0  0  0  0  0
   -1.7571   -2.0261   -4.9406 C   0  0  0  0  0  0  0  0  0  0  0  0
   -1.3142   -2.4621   -6.1948 C   0  0  0  0  0  0  0  0  0  0  0  0
   -0.5397   -1.6463   -7.0439 C   0  0  0  0  0  0  0  0  0  0  0  0
   -0.2791   -0.3302   -6.5906 C   0  0  0  0  0  0  0  0  0  0  0  0
    0.3676    0.6825   -7.1675 N   0  0  0  0  0  0  0  0  0  0  0  0
    0.3103    1.6490   -6.2926 N   0  0  0  0  0  0  0  0  0  0  0  0
    0.8543    2.9479   -6.5638 C   0  0  0  0  0  0  0  0  0  0  0  0
   -0.1846    3.8318   -7.2480 C   0  0  0  0  0  0  0  0  0  0  0  0
   -0.3181    1.3822   -5.1731 N   0  0  0  0  0  0  0  0  0  0  0  0
   -0.7192    0.1126   -5.3080 C   0  0  0  0  0  0  0  0  0  0  0  0
   -1.4412   -0.7455   -4.4391 C   0  0  0  0  0  0  0  0  0  0  0  0
   -1.9338   -0.6051   -3.1219 C   0  0  0  0  0  0  0  0  0  0  0  0
   -1.8862    0.3319   -2.1171 N   0  0  0  0  0  0  0  0  0  0  0  0
   -2.5293   -0.1999   -1.0067 C   0  0  0  0  0  0  0  0  0  0  0  0
   -2.8057    0.2977    0.3003 C   0  0  0  0  0  0  0  0  0  0  0  0
   -2.6991    1.5414    0.8954 N   0  0  0  0  0  0  0  0  0  0  0  0
   -3.0556    1.4268    2.2145 C   0  0  0  0  0  0  0  0  0  0  0  0
   -3.1500    2.2551    3.3573 C   0  0  0  0  0  0  0  0  0  0  0  0
   -2.9413    3.6397    3.5878 C   0  0  0  0  0  0  0  0  0  0  0  0
   -3.0035    4.1922    4.9028 C   0  0  0  0  0  0  0  0  0  0  0  0
   -3.2768    3.3801    6.0298 C   0  0  0  0  0  0  0  0  0  0  0  0
   -3.2666    3.6898    7.3954 C   0  0  0  0  0  0  0  0  0  0  0  0
   -2.7641    5.4997    4.8034 N   0  0  0  0  0  0  0  0  0  0  0  0
   -2.5796    5.7018    3.5266 N   0  0  0  0  0  0  0  0  0  0  0  0
   -2.3411    7.0117    2.9934 C   0  0  0  0  0  0  0  0  0  0  0  0
   -3.6594    7.7128    2.6790 C   0  0  0  0  0  0  0  0  0  0  0  0
   -2.6723    4.6492    2.7522 N   0  0  0  0  0  0  0  0  0  0  0  0
   -2.4481    2.8333    0.3038 C   0  0  0  0  0  0  0  0  0  0  0  0
   -1.0168    3.3104    0.5605 C   0  0  0  0  0  0  0  0  0  0  0  0
   -0.8159    1.3051   -2.1502 C   0  0  0  0  0  0  0  0  0  0  0  0
    0.4727    0.7028   -1.5899 C   0  0  0  0  0  0  0  0  0  0  0  0
   -0.1235   -2.2970   -8.2098 C   0  0  0  0  0  0  0  0  0  0  0  0
   -0.5588   -3.6030   -8.2829 C   0  0  0  0  0  0  0  0  0  0  0  0
   -1.5536   -4.0238   -6.8865 S   0  0  0  0  0  0  0  0  0  0  0  0
   -0.3573   -4.6261   -9.2361 C   0  0  0  0  0  0  0  0  0  0  0  0
    0.5584   -4.7327  -10.2434 C   0  0  0  0  0  0  0  0  0  0  0  0
    1.7228   -3.8588  -10.5278 C   0  0  0  0  0  0  0  0  0  0  0  0
    1.9477   -2.7352  -10.1296 O   0  0  0  0  0  0  0  0  0  0  0  0
    2.6049   -4.6473  -11.4095 C   0  0  0  0  0  0  0  0  0  0  0  0
    3.8754   -4.2846  -11.8511 C   0  0  0  0  0  0  0  0  0  0  0  0
    4.4815   -5.2276  -12.6450 C   0  0  0  0  0  0  0  0  0  0  0  0
    3.8724   -6.4472  -12.9714 C   0  0  0  0  0  0  0  0  0  0  0  0
    2.6183   -6.8153  -12.5464 C   0  0  0  0  0  0  0  0  0  0  0  0
    1.9805   -5.8645  -11.7439 C   0  0  0  0  0  0  0  0  0  0  0  0
    0.6652   -5.8944  -11.1132 C   0  0  0  0  0  0  0  0  0  0  0  0
   -0.3186   -6.8124  -11.3685 C   0  0  0  0  0  0  0  0  0  0  0  0
   -1.6293   -6.7689  -10.8456 C   0  0  0  0  0  0  0  0  0  0  0  0
   -2.7201   -6.7928  -10.4873 N   0  0  0  0  0  0  0  0  0  0  0  0
   -0.1751   -7.9059  -12.2481 C   0  0  0  0  0  0  0  0  0  0  0  0
   -0.1266   -8.8164  -12.9459 N   0  0  0  0  0  0  0  0  0  0  0  0
    5.0522   -6.9080  -13.7902 C   0  0  0  0  0  0  0  0  0  0  0  0
    4.9314   -6.8363  -15.3323 C   0  0  0  0  0  0  0  0  0  0  0  0
    3.9399   -5.7397  -15.6330 C   0  0  0  0  0  0  0  0  0  0  0  0
    4.5118   -4.5825  -15.3284 C   0  0  0  0  0  0  0  0  0  0  0  0
    5.9005   -4.8755  -14.8165 C   0  0  0  0  0  0  0  0  0  0  0  0
    6.2459   -6.1113  -15.6626 C   0  0  0  0  0  0  0  0  0  0  0  0
    5.7279   -5.5470  -13.4314 C   0  0  0  0  0  0  0  0  0  0  0  0
   -4.2113    1.6029    9.9244 H   0  0  0  0  0  0  0  0  0  0  0  0
    0.5541    5.3857   11.1848 H   0  0  0  0  0  0  0  0  0  0  0  0
   -1.9570    2.7170   14.6836 H   0  0  0  0  0  0  0  0  0  0  0  0
    0.4574    4.6756   16.1635 H   0  0  0  0  0  0  0  0  0  0  0  0
    1.5578    2.4686   16.5053 H   0  0  0  0  0  0  0  0  0  0  0  0
    1.4320    1.2081   14.2179 H   0  0  0  0  0  0  0  0  0  0  0  0
    2.7691    2.6243   12.4128 H   0  0  0  0  0  0  0  0  0  0  0  0
    3.7206    4.7588   13.5880 H   0  0  0  0  0  0  0  0  0  0  0  0
    3.1756    4.6016   16.2195 H   0  0  0  0  0  0  0  0  0  0  0  0
    3.9787    3.1171   15.6494 H   0  0  0  0  0  0  0  0  0  0  0  0
    1.7560    6.0528   14.4075 H   0  0  0  0  0  0  0  0  0  0  0  0
    1.7215    2.8090   -7.2117 H   0  0  0  0  0  0  0  0  0  0  0  0
    1.1619    3.3834   -5.6109 H   0  0  0  0  0  0  0  0  0  0  0  0
   -1.0531    3.9591   -6.6063 H   0  0  0  0  0  0  0  0  0  0  0  0
    0.2423    4.8079   -7.4593 H   0  0  0  0  0  0  0  0  0  0  0  0
   -0.5017    3.3776   -8.1834 H   0  0  0  0  0  0  0  0  0  0  0  0
   -3.0447    4.6693    7.7727 H   0  0  0  0  0  0  0  0  0  0  0  0
   -1.7430    6.8941    2.0875 H   0  0  0  0  0  0  0  0  0  0  0  0
   -1.7817    7.5731    3.7440 H   0  0  0  0  0  0  0  0  0  0  0  0
   -4.2545    7.8111    3.5834 H   0  0  0  0  0  0  0  0  0  0  0  0
   -3.4646    8.7032    2.2780 H   0  0  0  0  0  0  0  0  0  0  0  0
   -4.2248    7.1422    1.9460 H   0  0  0  0  0  0  0  0  0  0  0  0
   -2.6930    2.7844   -0.7585 H   0  0  0  0  0  0  0  0  0  0  0  0
   -3.1287    3.5484    0.7736 H   0  0  0  0  0  0  0  0  0  0  0  0
   -0.9251    3.6221    1.5962 H   0  0  0  0  0  0  0  0  0  0  0  0
   -0.7880    4.1633   -0.0730 H   0  0  0  0  0  0  0  0  0  0  0  0
   -0.2908    2.5237    0.3779 H   0  0  0  0  0  0  0  0  0  0  0  0
   -1.0833    2.1963   -1.5982 H   0  0  0  0  0  0  0  0  0  0  0  0
   -0.6659    1.5809   -3.1962 H   0  0  0  0  0  0  0  0  0  0  0  0
    0.7819   -0.1495   -2.1908 H   0  0  0  0  0  0  0  0  0  0  0  0
    0.3278    0.3624   -0.5658 H   0  0  0  0  0  0  0  0  0  0  0  0
    1.2674    1.4439   -1.6072 H   0  0  0  0  0  0  0  0  0  0  0  0
    0.4850   -1.8289   -8.9603 H   0  0  0  0  0  0  0  0  0  0  0  0
   -1.0030   -5.4837   -9.0821 H   0  0  0  0  0  0  0  0  0  0  0  0
    4.3104   -3.3387  -11.5684 H   0  0  0  0  0  0  0  0  0  0  0  0
    2.1662   -7.7600  -12.7985 H   0  0  0  0  0  0  0  0  0  0  0  0
    5.5374   -7.8220  -13.4535 H   0  0  0  0  0  0  0  0  0  0  0  0
    4.7508   -7.7925  -15.8157 H   0  0  0  0  0  0  0  0  0  0  0  0
    2.9356   -5.9172  -15.9704 H   0  0  0  0  0  0  0  0  0  0  0  0
    4.0805   -3.5990  -15.3605 H   0  0  0  0  0  0  0  0  0  0  0  0
    6.6029   -4.0461  -14.8315 H   0  0  0  0  0  0  0  0  0  0  0  0
    7.1325   -6.6406  -15.3159 H   0  0  0  0  0  0  0  0  0  0  0  0
    6.3455   -5.8817  -16.7224 H   0  0  0  0  0  0  0  0  0  0  0  0
    6.6568   -5.5722  -12.8646 H   0  0  0  0  0  0  0  0  0  0  0  0
  1  2  2  0  0  0  0
  2  3  1  0  0  0  0
  3  4  2  0  0  0  0
  3  5  1  0  0  0  0
  5  6  2  0  0  0  0
  6  7  1  0  0  0  0
  7  8  2  0  0  0  0
  8  9  1  0  0  0  0
  9 10  2  0  0  0  0
 10 11  1  0  0  0  0
 11 12  2  0  0  0  0
 12 13  1  0  0  0  0
 13 14  3  0  0  0  0
 12 15  1  0  0  0  0
 15 16  3  0  0  0  0
  8 17  1  0  0  0  0
 17 18  1  0  0  0  0
 18 19  1  0  0  0  0
 19 20  2  0  0  0  0
 20 21  1  0  0  0  0
 21 22  1  0  0  0  0
 21 23  1  0  0  0  0
  1 24  1  0  0  0  0
 24 25  1  0  0  0  0
 25 26  1  0  0  0  0
 26 27  1  0  0  0  0
 27 28  1  0  0  0  0
 28 29  1  0  0  0  0
 29 30  1  0  0  0  0
 30 31  1  0  0  0  0
 31 32  1  0  0  0  0
 32 33  2  0  0  0  0
 33 34  1  0  0  0  0
 34 35  1  0  0  0  0
 32 36  1  0  0  0  0
 36 37  1  0  0  0  0
 37 38  1  0  0  0  0
 38 39  1  0  0  0  0
 39 40  1  0  0  0  0
 40 41  2  0  0  0  0
 41 42  1  0  0  0  0
 42 43  2  0  0  0  0
 43 44  1  0  0  0  0
 44 45  1  0  0  0  0
 45 46  1  0  0  0  0
 44 47  1  0  0  0  0
 47 48  2  0  0  0  0
 48 49  1  0  0  0  0
 49 50  1  0  0  0  0
 50 51  1  0  0  0  0
 51 52  1  0  0  0  0
 52 53  1  0  0  0  0
 53 54  1  0  0  0  0
 54 55  1  0  0  0  0
 55 56  1  0  0  0  0
 56 57  1  0  0  0  0
 57 58  1  0  0  0  0
 58 59  1  0  0  0  0
 59 60  1  0  0  0  0
 58 61  2  0  0  0  0
 61 62  1  0  0  0  0
 62 63  1  0  0  0  0
 63 64  1  0  0  0  0
 62 65  1  0  0  0  0
 54 66  1  0  0  0  0
 66 67  1  0  0  0  0
 51 68  1  0  0  0  0
 68 69  1  0  0  0  0
 41 70  1  0  0  0  0
 70 71  2  0  0  0  0
 71 72  1  0  0  0  0
 71 73  1  0  0  0  0
 73 74  2  0  0  0  0
 74 75  1  0  0  0  0
 75 76  2  0  0  0  0
 75 77  1  0  0  0  0
 77 78  2  0  0  0  0
 78 79  1  0  0  0  0
 79 80  2  0  0  0  0
 80 81  1  0  0  0  0
 81 82  2  0  0  0  0
 82 83  1  0  0  0  0
 83 84  2  0  0  0  0
 84 85  1  0  0  0  0
 85 86  3  0  0  0  0
 84 87  1  0  0  0  0
 87 88  3  0  0  0  0
 80 89  1  0  0  0  0
 89 90  1  0  0  0  0
 90 91  1  0  0  0  0
 91 92  2  0  0  0  0
 92 93  1  0  0  0  0
 93 94  1  0  0  0  0
 93 95  1  0  0  0  0
 11  2  1  0  0  0  0
 23 17  1  0  0  0  0
 60 24  2  0  0  0  0
 83 74  1  0  0  0  0
 95 89  1  0  0  0  0
 10  5  1  0  0  0  0
 22 18  1  0  0  0  0
 59 26  2  0  0  0  0
 82 77  1  0  0  0  0
 94 90  1  0  0  0  0
 23  7  1  0  0  0  0
 56 27  2  0  0  0  0
 65 57  2  0  0  0  0
 95 79  1  0  0  0  0
 55 29  2  0  0  0  0
 53 30  2  0  0  0  0
 35 31  2  0  0  0  0
 52 36  2  0  0  0  0
 50 37  2  0  0  0  0
 49 39  2  0  0  0  0
 72 40  1  0  0  0  0
 48 42  1  0  0  0  0
  1 96  1  0  0  0  0
  6 97  1  0  0  0  0
  9 98  1  0  0  0  0
 17 99  1  0  0  0  0
 18100  1  0  0  0  0
 19101  1  0  0  0  0
 20102  1  0  0  0  0
 21103  1  0  0  0  0
 22104  1  0  0  0  0
 22105  1  0  0  0  0
 23106  1  0  0  0  0
 45107  1  0  0  0  0
 45108  1  0  0  0  0
 46109  1  0  0  0  0
 46110  1  0  0  0  0
 46111  1  0  0  0  0
 60112  1  0  0  0  0
 63113  1  0  0  0  0
 63114  1  0  0  0  0
 64115  1  0  0  0  0
 64116  1  0  0  0  0
 64117  1  0  0  0  0
 66118  1  0  0  0  0
 66119  1  0  0  0  0
 67120  1  0  0  0  0
 67121  1  0  0  0  0
 67122  1  0  0  0  0
 68123  1  0  0  0  0
 68124  1  0  0  0  0
 69125  1  0  0  0  0
 69126  1  0  0  0  0
 69127  1  0  0  0  0
 70128  1  0  0  0  0
 73129  1  0  0  0  0
 78130  1  0  0  0  0
 81131  1  0  0  0  0
 89132  1  0  0  0  0
 90133  1  0  0  0  0
 91134  1  0  0  0  0
 92135  1  0  0  0  0
 93136  1  0  0  0  0
 94137  1  0  0  0  0
 94138  1  0  0  0  0
 95139  1  0  0  0  0
M  END
