
  xtb     02012220363D
 energy: -230.063868601654 gnorm: 0.000327748313 xtb: 6.4.1 (unknown)
123141  0     0  0            999 V2000
   -3.1784    7.1660    1.8397 C   0  0  0  0  0  0  0  0  0  0  0  0
   -3.9459    7.6244    2.8709 C   0  0  0  0  0  0  0  0  0  0  0  0
   -4.4184    6.8827    4.0659 C   0  0  0  0  0  0  0  0  0  0  0  0
   -4.0038    5.8401    4.5265 O   0  0  0  0  0  0  0  0  0  0  0  0
   -5.5492    7.6686    4.5973 C   0  0  0  0  0  0  0  0  0  0  0  0
   -6.3898    7.3091    5.6485 C   0  0  0  0  0  0  0  0  0  0  0  0
   -7.3784    8.2258    5.9128 C   0  0  0  0  0  0  0  0  0  0  0  0
   -7.5264    9.4122    5.1809 C   0  0  0  0  0  0  0  0  0  0  0  0
   -6.7028    9.7808    4.1445 C   0  0  0  0  0  0  0  0  0  0  0  0
   -5.6848    8.8643    3.8652 C   0  0  0  0  0  0  0  0  0  0  0  0
   -4.6355    8.9051    2.8533 C   0  0  0  0  0  0  0  0  0  0  0  0
   -4.3019    9.9932    2.0914 C   0  0  0  0  0  0  0  0  0  0  0  0
   -4.9757   11.2316    2.1384 C   0  0  0  0  0  0  0  0  0  0  0  0
   -5.4801   12.2630    2.1275 N   0  0  0  0  0  0  0  0  0  0  0  0
   -3.2049   10.0571    1.2050 C   0  0  0  0  0  0  0  0  0  0  0  0
   -2.3195   10.2025    0.4883 N   0  0  0  0  0  0  0  0  0  0  0  0
   -8.7257    9.8510    5.9828 C   0  0  0  0  0  0  0  0  0  0  0  0
   -8.5132   10.9488    7.0540 C   0  0  0  0  0  0  0  0  0  0  0  0
   -7.0703   10.8542    7.4842 C   0  0  0  0  0  0  0  0  0  0  0  0
   -6.9278    9.7338    8.1795 C   0  0  0  0  0  0  0  0  0  0  0  0
   -8.2719    9.0503    8.2318 C   0  0  0  0  0  0  0  0  0  0  0  0
   -9.1986   10.2764    8.2542 C   0  0  0  0  0  0  0  0  0  0  0  0
   -8.5586    8.5316    6.8008 C   0  0  0  0  0  0  0  0  0  0  0  0
   -2.4641    5.9552    1.6974 C   0  0  0  0  0  0  0  0  0  0  0  0
   -1.9521    5.5386    0.0614 S   0  0  0  0  0  0  0  0  0  0  0  0
   -1.2352    4.0719    0.6165 C   0  0  0  0  0  0  0  0  0  0  0  0
   -0.6356    3.0835   -0.1724 C   0  0  0  0  0  0  0  0  0  0  0  0
   -0.4942    3.1469   -1.9177 S   0  0  0  0  0  0  0  0  0  0  0  0
    0.2333    1.5860   -1.9060 C   0  0  0  0  0  0  0  0  0  0  0  0
    0.6947    0.6216   -2.8195 C   0  0  0  0  0  0  0  0  0  0  0  0
    0.6463    0.5207   -4.2290 C   0  0  0  0  0  0  0  0  0  0  0  0
    1.0178   -0.7219   -4.8571 C   0  0  0  0  0  0  0  0  0  0  0  0
    0.8387   -0.6950   -6.1678 N   0  0  0  0  0  0  0  0  0  0  0  0
    0.2646    0.7604   -6.5820 S   0  0  0  0  0  0  0  0  0  0  0  0
    0.2168    1.4162   -5.1034 N   0  0  0  0  0  0  0  0  0  0  0  0
    1.5665   -1.7569   -4.0655 C   0  0  0  0  0  0  0  0  0  0  0  0
    2.1170   -3.0163   -4.3627 C   0  0  0  0  0  0  0  0  0  0  0  0
    2.3079   -4.0692   -5.7124 S   0  0  0  0  0  0  0  0  0  0  0  0
    3.1140   -5.2314   -4.6792 C   0  0  0  0  0  0  0  0  0  0  0  0
    3.5743   -6.4847   -5.0923 C   0  0  0  0  0  0  0  0  0  0  0  0
    4.2001   -7.3865   -4.2118 C   0  0  0  0  0  0  0  0  0  0  0  0
    4.3368   -6.9710   -2.8654 C   0  0  0  0  0  0  0  0  0  0  0  0
    4.8613   -7.5838   -1.8029 N   0  0  0  0  0  0  0  0  0  0  0  0
    4.6939   -6.7365   -0.8227 N   0  0  0  0  0  0  0  0  0  0  0  0
    5.0895   -7.0486    0.5202 C   0  0  0  0  0  0  0  0  0  0  0  0
    3.9471   -7.7251    1.2727 C   0  0  0  0  0  0  0  0  0  0  0  0
    4.1025   -5.6068   -1.1226 N   0  0  0  0  0  0  0  0  0  0  0  0
    3.8527   -5.7009   -2.4331 C   0  0  0  0  0  0  0  0  0  0  0  0
    3.2360   -4.8052   -3.3404 C   0  0  0  0  0  0  0  0  0  0  0  0
    2.6551   -3.5326   -3.1792 C   0  0  0  0  0  0  0  0  0  0  0  0
    2.4442   -2.6492   -2.1476 N   0  0  0  0  0  0  0  0  0  0  0  0
    1.7419   -1.5799   -2.6697 C   0  0  0  0  0  0  0  0  0  0  0  0
    1.1537   -0.4659   -2.0344 C   0  0  0  0  0  0  0  0  0  0  0  0
    0.9288   -0.2037   -0.6961 N   0  0  0  0  0  0  0  0  0  0  0  0
    0.3736    1.0515   -0.6211 C   0  0  0  0  0  0  0  0  0  0  0  0
   -0.1135    1.9018    0.3913 C   0  0  0  0  0  0  0  0  0  0  0  0
   -0.1688    1.7824    1.8022 C   0  0  0  0  0  0  0  0  0  0  0  0
   -0.7833    2.7901    2.6026 C   0  0  0  0  0  0  0  0  0  0  0  0
   -1.3551    3.9463    2.0160 C   0  0  0  0  0  0  0  0  0  0  0  0
   -2.0492    5.0071    2.6079 C   0  0  0  0  0  0  0  0  0  0  0  0
   -0.6909    2.4035    3.8752 N   0  0  0  0  0  0  0  0  0  0  0  0
   -0.0675    1.2572    3.8242 N   0  0  0  0  0  0  0  0  0  0  0  0
    0.2733    0.5316    5.0136 C   0  0  0  0  0  0  0  0  0  0  0  0
    1.6228    0.9939    5.5558 C   0  0  0  0  0  0  0  0  0  0  0  0
    0.2730    0.8311    2.6322 N   0  0  0  0  0  0  0  0  0  0  0  0
    0.6125   -1.2016    0.3075 C   0  0  0  0  0  0  0  0  0  0  0  0
   -0.8888   -1.4898    0.3285 C   0  0  0  0  0  0  0  0  0  0  0  0
    3.3741   -2.5719   -1.0377 C   0  0  0  0  0  0  0  0  0  0  0  0
    4.7847   -2.2556   -1.5348 C   0  0  0  0  0  0  0  0  0  0  0  0
    4.5732   -8.5838   -4.8357 C   0  0  0  0  0  0  0  0  0  0  0  0
    4.2037   -8.6450   -6.1598 C   0  0  0  0  0  0  0  0  0  0  0  0
    3.4434   -7.1494   -6.6822 S   0  0  0  0  0  0  0  0  0  0  0  0
    4.4540   -9.7185   -7.0517 C   0  0  0  0  0  0  0  0  0  0  0  0
    3.8077  -10.0352   -8.2030 C   0  0  0  0  0  0  0  0  0  0  0  0
    4.4788  -10.9159   -9.2097 C   0  0  0  0  0  0  0  0  0  0  0  0
    5.4750  -11.5795   -9.0426 O   0  0  0  0  0  0  0  0  0  0  0  0
    3.6744  -10.7299  -10.4148 C   0  0  0  0  0  0  0  0  0  0  0  0
    3.7494  -11.2550  -12.0433 S   0  0  0  0  0  0  0  0  0  0  0  0
    2.2755  -10.3870  -12.3802 C   0  0  0  0  0  0  0  0  0  0  0  0
    1.6136  -10.4073  -13.9481 Cl  0  0  0  0  0  0  0  0  0  0  0  0
    1.7522   -9.7383  -11.2943 C   0  0  0  0  0  0  0  0  0  0  0  0
    2.5643   -9.9325  -10.1644 C   0  0  0  0  0  0  0  0  0  0  0  0
    2.5390   -9.5921   -8.7536 C   0  0  0  0  0  0  0  0  0  0  0  0
    1.4194   -9.2024   -8.0688 C   0  0  0  0  0  0  0  0  0  0  0  0
    1.3113   -9.2017   -6.6628 C   0  0  0  0  0  0  0  0  0  0  0  0
    1.1558   -9.2578   -5.5269 N   0  0  0  0  0  0  0  0  0  0  0  0
    0.2190   -8.8730   -8.7313 C   0  0  0  0  0  0  0  0  0  0  0  0
   -0.7612   -8.5886   -9.2552 N   0  0  0  0  0  0  0  0  0  0  0  0
   -3.1418    7.7898    0.9531 H   0  0  0  0  0  0  0  0  0  0  0  0
   -6.2453    6.3818    6.1806 H   0  0  0  0  0  0  0  0  0  0  0  0
   -6.8337   10.6916    3.5843 H   0  0  0  0  0  0  0  0  0  0  0  0
   -9.6484    9.9901    5.4227 H   0  0  0  0  0  0  0  0  0  0  0  0
   -8.8638   11.9356    6.7642 H   0  0  0  0  0  0  0  0  0  0  0  0
   -6.3132   11.5603    7.1978 H   0  0  0  0  0  0  0  0  0  0  0  0
   -6.0273    9.3164    8.5906 H   0  0  0  0  0  0  0  0  0  0  0  0
   -8.4037    8.3087    9.0155 H   0  0  0  0  0  0  0  0  0  0  0  0
  -10.2451   10.0328    8.0758 H   0  0  0  0  0  0  0  0  0  0  0  0
   -9.1071   10.8567    9.1711 H   0  0  0  0  0  0  0  0  0  0  0  0
   -9.3731    7.8100    6.7767 H   0  0  0  0  0  0  0  0  0  0  0  0
    5.3702   -6.1131    1.0086 H   0  0  0  0  0  0  0  0  0  0  0  0
    5.9523   -7.7143    0.4593 H   0  0  0  0  0  0  0  0  0  0  0  0
    4.2622   -7.9648    2.2841 H   0  0  0  0  0  0  0  0  0  0  0  0
    3.0840   -7.0654    1.3200 H   0  0  0  0  0  0  0  0  0  0  0  0
    3.6595   -8.6437    0.7675 H   0  0  0  0  0  0  0  0  0  0  0  0
   -2.2440    5.0680    3.6619 H   0  0  0  0  0  0  0  0  0  0  0  0
   -0.5139    0.7176    5.7465 H   0  0  0  0  0  0  0  0  0  0  0  0
    0.3045   -0.5289    4.7557 H   0  0  0  0  0  0  0  0  0  0  0  0
    2.4031    0.8294    4.8165 H   0  0  0  0  0  0  0  0  0  0  0  0
    1.8693    0.4383    6.4560 H   0  0  0  0  0  0  0  0  0  0  0  0
    1.5841    2.0532    5.7966 H   0  0  0  0  0  0  0  0  0  0  0  0
    1.1378   -2.1265    0.0805 H   0  0  0  0  0  0  0  0  0  0  0  0
    0.9236   -0.8151    1.2815 H   0  0  0  0  0  0  0  0  0  0  0  0
   -1.4475   -0.5987    0.6012 H   0  0  0  0  0  0  0  0  0  0  0  0
   -1.1010   -2.2675    1.0568 H   0  0  0  0  0  0  0  0  0  0  0  0
   -1.2242   -1.8261   -0.6506 H   0  0  0  0  0  0  0  0  0  0  0  0
    3.0610   -1.7785   -0.3614 H   0  0  0  0  0  0  0  0  0  0  0  0
    3.3787   -3.5361   -0.5228 H   0  0  0  0  0  0  0  0  0  0  0  0
    5.1542   -3.0537   -2.1725 H   0  0  0  0  0  0  0  0  0  0  0  0
    5.4553   -2.1519   -0.6864 H   0  0  0  0  0  0  0  0  0  0  0  0
    4.7885   -1.3257   -2.1000 H   0  0  0  0  0  0  0  0  0  0  0  0
    5.0566   -9.3924   -4.3185 H   0  0  0  0  0  0  0  0  0  0  0  0
    5.3191  -10.3323   -6.8189 H   0  0  0  0  0  0  0  0  0  0  0  0
    0.8487   -9.1583  -11.3235 H   0  0  0  0  0  0  0  0  0  0  0  0
  1  2  2  0  0  0  0
  2  3  1  0  0  0  0
  3  4  2  0  0  0  0
  3  5  1  0  0  0  0
  5  6  2  0  0  0  0
  6  7  1  0  0  0  0
  7  8  2  0  0  0  0
  8  9  1  0  0  0  0
  9 10  2  0  0  0  0
 10 11  1  0  0  0  0
 11 12  2  0  0  0  0
 12 13  1  0  0  0  0
 13 14  3  0  0  0  0
 12 15  1  0  0  0  0
 15 16  3  0  0  0  0
  8 17  1  0  0  0  0
 17 18  1  0  0  0  0
 18 19  1  0  0  0  0
 19 20  2  0  0  0  0
 20 21  1  0  0  0  0
 21 22  1  0  0  0  0
 21 23  1  0  0  0  0
  1 24  1  0  0  0  0
 24 25  1  0  0  0  0
 25 26  1  0  0  0  0
 26 27  1  0  0  0  0
 27 28  1  0  0  0  0
 28 29  1  0  0  0  0
 29 30  1  0  0  0  0
 30 31  1  0  0  0  0
 31 32  1  0  0  0  0
 32 33  2  0  0  0  0
 33 34  1  0  0  0  0
 34 35  1  0  0  0  0
 32 36  1  0  0  0  0
 36 37  1  0  0  0  0
 37 38  1  0  0  0  0
 38 39  1  0  0  0  0
 39 40  1  0  0  0  0
 40 41  2  0  0  0  0
 41 42  1  0  0  0  0
 42 43  2  0  0  0  0
 43 44  1  0  0  0  0
 44 45  1  0  0  0  0
 45 46  1  0  0  0  0
 44 47  1  0  0  0  0
 47 48  2  0  0  0  0
 48 49  1  0  0  0  0
 49 50  1  0  0  0  0
 50 51  1  0  0  0  0
 51 52  1  0  0  0  0
 52 53  1  0  0  0  0
 53 54  1  0  0  0  0
 54 55  1  0  0  0  0
 55 56  1  0  0  0  0
 56 57  1  0  0  0  0
 57 58  1  0  0  0  0
 58 59  1  0  0  0  0
 59 60  1  0  0  0  0
 58 61  2  0  0  0  0
 61 62  1  0  0  0  0
 62 63  1  0  0  0  0
 63 64  1  0  0  0  0
 62 65  1  0  0  0  0
 54 66  1  0  0  0  0
 66 67  1  0  0  0  0
 51 68  1  0  0  0  0
 68 69  1  0  0  0  0
 41 70  1  0  0  0  0
 70 71  2  0  0  0  0
 71 72  1  0  0  0  0
 71 73  1  0  0  0  0
 73 74  2  0  0  0  0
 74 75  1  0  0  0  0
 75 76  2  0  0  0  0
 75 77  1  0  0  0  0
 77 78  1  0  0  0  0
 78 79  1  0  0  0  0
 79 80  1  0  0  0  0
 79 81  2  0  0  0  0
 81 82  1  0  0  0  0
 82 83  1  0  0  0  0
 83 84  2  0  0  0  0
 84 85  1  0  0  0  0
 85 86  3  0  0  0  0
 84 87  1  0  0  0  0
 87 88  3  0  0  0  0
 11  2  1  0  0  0  0
 23 17  1  0  0  0  0
 60 24  2  0  0  0  0
 83 74  1  0  0  0  0
 10  5  1  0  0  0  0
 22 18  1  0  0  0  0
 59 26  2  0  0  0  0
 82 77  2  0  0  0  0
 23  7  1  0  0  0  0
 56 27  2  0  0  0  0
 65 57  2  0  0  0  0
 55 29  2  0  0  0  0
 53 30  2  0  0  0  0
 35 31  2  0  0  0  0
 52 36  2  0  0  0  0
 50 37  2  0  0  0  0
 49 39  2  0  0  0  0
 72 40  1  0  0  0  0
 48 42  1  0  0  0  0
  1 89  1  0  0  0  0
  6 90  1  0  0  0  0
  9 91  1  0  0  0  0
 17 92  1  0  0  0  0
 18 93  1  0  0  0  0
 19 94  1  0  0  0  0
 20 95  1  0  0  0  0
 21 96  1  0  0  0  0
 22 97  1  0  0  0  0
 22 98  1  0  0  0  0
 23 99  1  0  0  0  0
 45100  1  0  0  0  0
 45101  1  0  0  0  0
 46102  1  0  0  0  0
 46103  1  0  0  0  0
 46104  1  0  0  0  0
 60105  1  0  0  0  0
 63106  1  0  0  0  0
 63107  1  0  0  0  0
 64108  1  0  0  0  0
 64109  1  0  0  0  0
 64110  1  0  0  0  0
 66111  1  0  0  0  0
 66112  1  0  0  0  0
 67113  1  0  0  0  0
 67114  1  0  0  0  0
 67115  1  0  0  0  0
 68116  1  0  0  0  0
 68117  1  0  0  0  0
 69118  1  0  0  0  0
 69119  1  0  0  0  0
 69120  1  0  0  0  0
 70121  1  0  0  0  0
 73122  1  0  0  0  0
 81123  1  0  0  0  0
M  END
