
  xtb     02102220093D
 energy: -235.318379391777 gnorm: 0.000181611625 xtb: 6.4.1 (unknown)
130148  0     0  0            999 V2000
    5.1254   -5.4713   -4.8138 C   0  0  0  0  0  0  0  0  0  0  0  0
    4.9622   -6.7957   -4.5423 C   0  0  0  0  0  0  0  0  0  0  0  0
    4.3939   -7.3622   -3.2924 C   0  0  0  0  0  0  0  0  0  0  0  0
    4.3332   -6.8571   -2.1930 O   0  0  0  0  0  0  0  0  0  0  0  0
    3.8440   -8.6765   -3.6811 C   0  0  0  0  0  0  0  0  0  0  0  0
    3.0634   -9.5174   -2.8901 C   0  0  0  0  0  0  0  0  0  0  0  0
    2.6391  -10.6547   -3.5337 C   0  0  0  0  0  0  0  0  0  0  0  0
    2.9709  -10.9426   -4.8649 C   0  0  0  0  0  0  0  0  0  0  0  0
    3.7526  -10.1308   -5.6519 C   0  0  0  0  0  0  0  0  0  0  0  0
    4.1877   -8.9628   -5.0175 C   0  0  0  0  0  0  0  0  0  0  0  0
    4.9785   -7.8538   -5.5371 C   0  0  0  0  0  0  0  0  0  0  0  0
    5.6749   -7.8307   -6.7151 C   0  0  0  0  0  0  0  0  0  0  0  0
    6.5069   -6.7626   -7.1149 C   0  0  0  0  0  0  0  0  0  0  0  0
    7.2170   -5.9393   -7.4832 N   0  0  0  0  0  0  0  0  0  0  0  0
    5.6971   -8.8905   -7.6446 C   0  0  0  0  0  0  0  0  0  0  0  0
    5.7480   -9.7197   -8.4369 N   0  0  0  0  0  0  0  0  0  0  0  0
    2.1715  -12.2219   -4.8710 C   0  0  0  0  0  0  0  0  0  0  0  0
    0.8013  -12.1698   -5.5803 C   0  0  0  0  0  0  0  0  0  0  0  0
    0.0593  -13.3635   -5.0237 C   0  0  0  0  0  0  0  0  0  0  0  0
   -0.2526  -13.0927   -3.7627 C   0  0  0  0  0  0  0  0  0  0  0  0
    0.2734  -11.7114   -3.4460 C   0  0  0  0  0  0  0  0  0  0  0  0
    0.0963  -11.0421   -4.8151 C   0  0  0  0  0  0  0  0  0  0  0  0
    1.8043  -11.9024   -3.3864 C   0  0  0  0  0  0  0  0  0  0  0  0
    5.0303   -4.3961   -3.8950 C   0  0  0  0  0  0  0  0  0  0  0  0
    4.3364   -2.8912   -4.4922 S   0  0  0  0  0  0  0  0  0  0  0  0
    4.3873   -2.2023   -2.9099 C   0  0  0  0  0  0  0  0  0  0  0  0
    3.8148   -0.9882   -2.5154 C   0  0  0  0  0  0  0  0  0  0  0  0
    2.8798    0.0552   -3.5673 S   0  0  0  0  0  0  0  0  0  0  0  0
    2.4836    1.0405   -2.2124 C   0  0  0  0  0  0  0  0  0  0  0  0
    1.6652    2.1402   -1.9068 C   0  0  0  0  0  0  0  0  0  0  0  0
    0.8654    2.9677   -2.7240 C   0  0  0  0  0  0  0  0  0  0  0  0
    0.0595    3.9802   -2.1035 C   0  0  0  0  0  0  0  0  0  0  0  0
   -0.6211    4.6950   -2.9847 N   0  0  0  0  0  0  0  0  0  0  0  0
   -0.2784    4.1427   -4.4681 S   0  0  0  0  0  0  0  0  0  0  0  0
    0.7479    2.9644   -4.0422 N   0  0  0  0  0  0  0  0  0  0  0  0
    0.0076    4.0338   -0.6931 C   0  0  0  0  0  0  0  0  0  0  0  0
   -0.8917    4.6802    0.1652 C   0  0  0  0  0  0  0  0  0  0  0  0
   -2.2482    5.7314    0.0480 S   0  0  0  0  0  0  0  0  0  0  0  0
   -2.5270    5.5331    1.7644 C   0  0  0  0  0  0  0  0  0  0  0  0
   -3.6147    6.0968    2.4421 C   0  0  0  0  0  0  0  0  0  0  0  0
   -3.8153    5.8873    3.8227 C   0  0  0  0  0  0  0  0  0  0  0  0
   -2.8600    5.0855    4.4962 C   0  0  0  0  0  0  0  0  0  0  0  0
   -2.7731    4.7106    5.7724 N   0  0  0  0  0  0  0  0  0  0  0  0
   -1.7064    3.9568    5.8194 N   0  0  0  0  0  0  0  0  0  0  0  0
   -1.2810    3.3157    7.0297 C   0  0  0  0  0  0  0  0  0  0  0  0
   -1.7991    1.8818    7.0911 C   0  0  0  0  0  0  0  0  0  0  0  0
   -1.0689    3.7834    4.6874 N   0  0  0  0  0  0  0  0  0  0  0  0
   -1.7667    4.4944    3.7957 C   0  0  0  0  0  0  0  0  0  0  0  0
   -1.5812    4.7045    2.4033 C   0  0  0  0  0  0  0  0  0  0  0  0
   -0.6431    4.2212    1.4631 C   0  0  0  0  0  0  0  0  0  0  0  0
    0.4044    3.3378    1.4319 N   0  0  0  0  0  0  0  0  0  0  0  0
    0.8238    3.2029    0.1243 C   0  0  0  0  0  0  0  0  0  0  0  0
    1.7546    2.3301   -0.5009 C   0  0  0  0  0  0  0  0  0  0  0  0
    2.6725    1.4233    0.0152 N   0  0  0  0  0  0  0  0  0  0  0  0
    3.0780    0.6170   -1.0239 C   0  0  0  0  0  0  0  0  0  0  0  0
    3.8511   -0.5526   -1.1752 C   0  0  0  0  0  0  0  0  0  0  0  0
    4.5464   -1.3744   -0.2538 C   0  0  0  0  0  0  0  0  0  0  0  0
    5.1222   -2.6154   -0.6597 C   0  0  0  0  0  0  0  0  0  0  0  0
    5.0095   -3.0732   -1.9952 C   0  0  0  0  0  0  0  0  0  0  0  0
    5.3539   -4.3088   -2.5616 C   0  0  0  0  0  0  0  0  0  0  0  0
    5.6811   -3.1696    0.4168 N   0  0  0  0  0  0  0  0  0  0  0  0
    5.4477   -2.3203    1.3806 N   0  0  0  0  0  0  0  0  0  0  0  0
    5.9453   -2.5288    2.7095 C   0  0  0  0  0  0  0  0  0  0  0  0
    7.2481   -1.7624    2.9197 C   0  0  0  0  0  0  0  0  0  0  0  0
    4.7789   -1.2402    1.0564 N   0  0  0  0  0  0  0  0  0  0  0  0
    3.6068    1.6455    1.1016 C   0  0  0  0  0  0  0  0  0  0  0  0
    4.8622    2.3583    0.5960 C   0  0  0  0  0  0  0  0  0  0  0  0
    0.8194    2.6066    2.6036 C   0  0  0  0  0  0  0  0  0  0  0  0
    1.7553    3.4402    3.4819 C   0  0  0  0  0  0  0  0  0  0  0  0
   -4.9794    6.4945    4.2824 C   0  0  0  0  0  0  0  0  0  0  0  0
   -5.6923    7.1516    3.2860 C   0  0  0  0  0  0  0  0  0  0  0  0
   -4.8798    7.0394    1.7348 S   0  0  0  0  0  0  0  0  0  0  0  0
   -6.9258    7.7741    3.5530 C   0  0  0  0  0  0  0  0  0  0  0  0
   -7.8119    8.3904    2.7121 C   0  0  0  0  0  0  0  0  0  0  0  0
   -7.6423    8.5586    1.2562 C   0  0  0  0  0  0  0  0  0  0  0  0
   -6.6731    8.2412    0.5942 O   0  0  0  0  0  0  0  0  0  0  0  0
   -8.8793    9.1897    0.7779 C   0  0  0  0  0  0  0  0  0  0  0  0
   -9.2337    9.5343   -0.5300 C   0  0  0  0  0  0  0  0  0  0  0  0
   -8.3495    9.2718   -1.5024 O   0  0  0  0  0  0  0  0  0  0  0  0
   -8.6691    9.5965   -2.8348 C   0  0  0  0  0  0  0  0  0  0  0  0
  -10.4905   10.1245   -0.7149 C   0  0  0  0  0  0  0  0  0  0  0  0
  -11.3317   10.3495    0.3596 C   0  0  0  0  0  0  0  0  0  0  0  0
  -10.9791   10.0071    1.6585 C   0  0  0  0  0  0  0  0  0  0  0  0
   -9.7410    9.4223    1.8631 C   0  0  0  0  0  0  0  0  0  0  0  0
   -9.0938    8.9492    3.0879 C   0  0  0  0  0  0  0  0  0  0  0  0
   -9.6301    9.0362    4.3470 C   0  0  0  0  0  0  0  0  0  0  0  0
  -10.8916    9.5952    4.6406 C   0  0  0  0  0  0  0  0  0  0  0  0
  -11.9046   10.0311    4.9611 N   0  0  0  0  0  0  0  0  0  0  0  0
   -9.0195    8.5940    5.5393 C   0  0  0  0  0  0  0  0  0  0  0  0
   -8.6032    8.2665    6.5590 N   0  0  0  0  0  0  0  0  0  0  0  0
    5.2237   -5.1761   -5.8529 H   0  0  0  0  0  0  0  0  0  0  0  0
    2.8284   -9.2573   -1.8699 H   0  0  0  0  0  0  0  0  0  0  0  0
    3.9980  -10.3588   -6.6760 H   0  0  0  0  0  0  0  0  0  0  0  0
    2.7285  -13.1313   -5.0871 H   0  0  0  0  0  0  0  0  0  0  0  0
    0.8520  -12.0860   -6.6624 H   0  0  0  0  0  0  0  0  0  0  0  0
   -0.1086  -14.2733   -5.5694 H   0  0  0  0  0  0  0  0  0  0  0  0
   -0.7330  -13.7310   -3.0445 H   0  0  0  0  0  0  0  0  0  0  0  0
   -0.1571  -11.2095   -2.5836 H   0  0  0  0  0  0  0  0  0  0  0  0
    0.5837  -10.0728   -4.9024 H   0  0  0  0  0  0  0  0  0  0  0  0
   -0.9518  -10.9484   -5.0945 H   0  0  0  0  0  0  0  0  0  0  0  0
    2.1171  -12.5986   -2.6106 H   0  0  0  0  0  0  0  0  0  0  0  0
   -0.1888    3.3263    7.0484 H   0  0  0  0  0  0  0  0  0  0  0  0
   -1.6763    3.9028    7.8601 H   0  0  0  0  0  0  0  0  0  0  0  0
   -1.4217    1.3101    6.2466 H   0  0  0  0  0  0  0  0  0  0  0  0
   -2.8858    1.8739    7.0638 H   0  0  0  0  0  0  0  0  0  0  0  0
   -1.4687    1.4088    8.0113 H   0  0  0  0  0  0  0  0  0  0  0  0
    5.8273   -5.0954   -2.0065 H   0  0  0  0  0  0  0  0  0  0  0  0
    6.1057   -3.6016    2.8267 H   0  0  0  0  0  0  0  0  0  0  0  0
    5.1838   -2.1842    3.4128 H   0  0  0  0  0  0  0  0  0  0  0  0
    7.6116   -1.9211    3.9308 H   0  0  0  0  0  0  0  0  0  0  0  0
    8.0036   -2.1068    2.2179 H   0  0  0  0  0  0  0  0  0  0  0  0
    7.0853   -0.6982    2.7668 H   0  0  0  0  0  0  0  0  0  0  0  0
    3.1491    2.2545    1.8702 H   0  0  0  0  0  0  0  0  0  0  0  0
    3.8817    0.6690    1.5086 H   0  0  0  0  0  0  0  0  0  0  0  0
    5.3832    1.7458   -0.1353 H   0  0  0  0  0  0  0  0  0  0  0  0
    4.6012    3.3072    0.1309 H   0  0  0  0  0  0  0  0  0  0  0  0
    5.5340    2.5503    1.4284 H   0  0  0  0  0  0  0  0  0  0  0  0
   -0.0754    2.3789    3.1877 H   0  0  0  0  0  0  0  0  0  0  0  0
    1.2703    1.6648    2.2891 H   0  0  0  0  0  0  0  0  0  0  0  0
    2.5265    3.9334    2.8935 H   0  0  0  0  0  0  0  0  0  0  0  0
    1.1771    4.2056    3.9907 H   0  0  0  0  0  0  0  0  0  0  0  0
    2.2257    2.8096    4.2312 H   0  0  0  0  0  0  0  0  0  0  0  0
   -5.3087    6.4478    5.3051 H   0  0  0  0  0  0  0  0  0  0  0  0
   -7.2050    7.7134    4.5983 H   0  0  0  0  0  0  0  0  0  0  0  0
   -7.8063    9.2887   -3.4226 H   0  0  0  0  0  0  0  0  0  0  0  0
   -9.5549    9.0535   -3.1791 H   0  0  0  0  0  0  0  0  0  0  0  0
   -8.8274   10.6723   -2.9592 H   0  0  0  0  0  0  0  0  0  0  0  0
  -10.8174   10.4102   -1.7021 H   0  0  0  0  0  0  0  0  0  0  0  0
  -12.2940   10.8054    0.1810 H   0  0  0  0  0  0  0  0  0  0  0  0
  -11.6619   10.1961    2.4688 H   0  0  0  0  0  0  0  0  0  0  0  0
  1  2  2  0  0  0  0
  2  3  1  0  0  0  0
  3  4  2  0  0  0  0
  3  5  1  0  0  0  0
  5  6  2  0  0  0  0
  6  7  1  0  0  0  0
  7  8  2  0  0  0  0
  8  9  1  0  0  0  0
  9 10  2  0  0  0  0
 10 11  1  0  0  0  0
 11 12  2  0  0  0  0
 12 13  1  0  0  0  0
 13 14  3  0  0  0  0
 12 15  1  0  0  0  0
 15 16  3  0  0  0  0
  8 17  1  0  0  0  0
 17 18  1  0  0  0  0
 18 19  1  0  0  0  0
 19 20  2  0  0  0  0
 20 21  1  0  0  0  0
 21 22  1  0  0  0  0
 21 23  1  0  0  0  0
  1 24  1  0  0  0  0
 24 25  1  0  0  0  0
 25 26  1  0  0  0  0
 26 27  1  0  0  0  0
 27 28  1  0  0  0  0
 28 29  1  0  0  0  0
 29 30  1  0  0  0  0
 30 31  1  0  0  0  0
 31 32  1  0  0  0  0
 32 33  2  0  0  0  0
 33 34  1  0  0  0  0
 34 35  1  0  0  0  0
 32 36  1  0  0  0  0
 36 37  1  0  0  0  0
 37 38  1  0  0  0  0
 38 39  1  0  0  0  0
 39 40  1  0  0  0  0
 40 41  2  0  0  0  0
 41 42  1  0  0  0  0
 42 43  2  0  0  0  0
 43 44  1  0  0  0  0
 44 45  1  0  0  0  0
 45 46  1  0  0  0  0
 44 47  1  0  0  0  0
 47 48  2  0  0  0  0
 48 49  1  0  0  0  0
 49 50  1  0  0  0  0
 50 51  1  0  0  0  0
 51 52  1  0  0  0  0
 52 53  1  0  0  0  0
 53 54  1  0  0  0  0
 54 55  1  0  0  0  0
 55 56  1  0  0  0  0
 56 57  1  0  0  0  0
 57 58  1  0  0  0  0
 58 59  1  0  0  0  0
 59 60  1  0  0  0  0
 58 61  2  0  0  0  0
 61 62  1  0  0  0  0
 62 63  1  0  0  0  0
 63 64  1  0  0  0  0
 62 65  1  0  0  0  0
 54 66  1  0  0  0  0
 66 67  1  0  0  0  0
 51 68  1  0  0  0  0
 68 69  1  0  0  0  0
 41 70  1  0  0  0  0
 70 71  2  0  0  0  0
 71 72  1  0  0  0  0
 71 73  1  0  0  0  0
 73 74  2  0  0  0  0
 74 75  1  0  0  0  0
 75 76  2  0  0  0  0
 75 77  1  0  0  0  0
 77 78  2  0  0  0  0
 78 79  1  0  0  0  0
 79 80  1  0  0  0  0
 78 81  1  0  0  0  0
 81 82  2  0  0  0  0
 82 83  1  0  0  0  0
 83 84  2  0  0  0  0
 84 85  1  0  0  0  0
 85 86  2  0  0  0  0
 86 87  1  0  0  0  0
 87 88  3  0  0  0  0
 86 89  1  0  0  0  0
 89 90  3  0  0  0  0
 11  2  1  0  0  0  0
 23 17  1  0  0  0  0
 60 24  2  0  0  0  0
 85 74  1  0  0  0  0
 10  5  1  0  0  0  0
 22 18  1  0  0  0  0
 59 26  2  0  0  0  0
 84 77  1  0  0  0  0
 23  7  1  0  0  0  0
 56 27  2  0  0  0  0
 65 57  2  0  0  0  0
 55 29  2  0  0  0  0
 53 30  2  0  0  0  0
 35 31  2  0  0  0  0
 52 36  2  0  0  0  0
 50 37  2  0  0  0  0
 49 39  2  0  0  0  0
 72 40  1  0  0  0  0
 48 42  1  0  0  0  0
  1 91  1  0  0  0  0
  6 92  1  0  0  0  0
  9 93  1  0  0  0  0
 17 94  1  0  0  0  0
 18 95  1  0  0  0  0
 19 96  1  0  0  0  0
 20 97  1  0  0  0  0
 21 98  1  0  0  0  0
 22 99  1  0  0  0  0
 22100  1  0  0  0  0
 23101  1  0  0  0  0
 45102  1  0  0  0  0
 45103  1  0  0  0  0
 46104  1  0  0  0  0
 46105  1  0  0  0  0
 46106  1  0  0  0  0
 60107  1  0  0  0  0
 63108  1  0  0  0  0
 63109  1  0  0  0  0
 64110  1  0  0  0  0
 64111  1  0  0  0  0
 64112  1  0  0  0  0
 66113  1  0  0  0  0
 66114  1  0  0  0  0
 67115  1  0  0  0  0
 67116  1  0  0  0  0
 67117  1  0  0  0  0
 68118  1  0  0  0  0
 68119  1  0  0  0  0
 69120  1  0  0  0  0
 69121  1  0  0  0  0
 69122  1  0  0  0  0
 70123  1  0  0  0  0
 73124  1  0  0  0  0
 80125  1  0  0  0  0
 80126  1  0  0  0  0
 80127  1  0  0  0  0
 81128  1  0  0  0  0
 82129  1  0  0  0  0
 83130  1  0  0  0  0
M  END
