129

C         -1.64220        2.96270        9.32350
C         -0.48390        3.25150        9.96900
C         -0.38070        3.05290       11.44190
O         -1.29740        2.91410       12.21950
C          1.06700        2.99900       11.72220
C          1.68100        2.68440       12.93290
C          3.05410        2.68110       12.88090
C          3.77180        2.96820       11.71120
C          3.18190        3.29140       10.51250
C          1.78580        3.30150       10.54550
C          0.83060        3.62900        9.49150
C          1.08660        4.40910        8.39570
C          2.37090        4.85570        8.02630
N          3.39500        5.24080        7.67900
C          0.06650        4.94890        7.58350
N         -0.73790        5.45690        6.94150
C          5.10530        2.75630       12.38220
C          5.84920        1.42650       12.10450
C          4.79210        0.40610       11.76200
C          4.11470        0.13730       12.87020
C          4.70110        0.97170       13.98200
C          6.17480        1.00530       13.54640
C          4.30680        2.44010       13.68600
C         -1.85480        2.67390        7.95110
S         -0.56870        2.11940        6.89080
C         -1.67750        1.93930        5.57790
C         -1.36330        1.50510        4.28630
S          0.25010        1.07000        3.77070
C         -0.36770        0.72980        2.20260
C          0.10890        0.26400        0.97220
C          1.39410       -0.19320        0.61130
C          1.58240       -0.73890       -0.69770
N          2.81560       -1.17910       -0.89210
S          3.66800       -0.92160        0.46060
N          2.49430       -0.24200        1.34590
C          0.50080       -0.70680       -1.60340
C          0.44460       -1.07720       -2.95210
S          1.47590       -1.77730       -4.13540
C          0.18640       -1.63990       -5.31020
C          0.30200       -2.06490       -6.63860
C         -0.77260       -1.95730       -7.54740
C         -1.97520       -1.39270       -7.05310
N         -3.14660       -1.16840       -7.64760
N         -3.89160       -0.63840       -6.71530
C         -5.23510       -0.20670       -6.97060
C         -5.26470        1.27660       -7.32750
N         -3.32580       -0.48100       -5.54250
C         -2.08430       -0.95280       -5.70090
C         -0.99680       -1.06810       -4.79420
C         -0.82650       -0.74500       -3.42850
N         -1.56330       -0.19820       -2.40770
C         -0.77610       -0.17460       -1.26540
C         -1.00300        0.23070        0.08310
N         -2.12410        0.63930        0.78990
C         -1.74230        0.93820        2.07320
C         -2.34070        1.38870        3.27460
C         -3.66450        1.74200        3.64210
C         -3.97980        2.18450        4.96230
C         -2.98340        2.28880        5.96130
C         -3.06960        2.67880        7.30430
N         -5.28920        2.43480        5.00310
N         -5.71250        2.16110        3.79940
C         -7.07990        2.35590        3.41350
C         -7.27450        3.74840        2.82040
N         -4.80740        1.74870        2.94580
C         -3.52050        0.45840        0.46480
C         -3.85710       -1.01770        0.26240
C         -2.76270        0.55470       -2.69850
C         -2.52560        2.05590       -2.54600
C         -0.44770       -2.44550       -8.80790
C          0.85540       -2.92430       -8.89870
S          1.70370       -2.76280       -7.36970
C          1.36020       -3.46310      -10.09450
C          2.59820       -3.96860      -10.39310
C          3.74300       -4.04210       -9.47330
O          3.78520       -3.69550       -8.30800
C          4.85220       -4.62540      -10.25050
C          6.14390       -4.88890       -9.83970
C          7.04600       -5.44520      -10.73960
C          8.45930       -5.75400      -10.36900
C          6.58520       -5.71210      -12.03030
F          7.45070       -6.25160      -12.90930
C          5.29500       -5.45740      -12.46660
C          4.41100       -4.90090      -11.55550
C          3.00800       -4.50820      -11.67600
C          2.24720       -4.64590      -12.80800
C          0.89170       -4.28130      -12.94610
N         -0.20700       -4.01520      -13.15200
C          2.72570       -5.18860      -14.01960
N          3.04580       -5.62000      -15.03400
H         -2.51520        2.85400        9.96030
H          1.09500        2.46900       13.81270
H          3.73910        3.50540        9.61500
H          5.77620        3.61290       12.38950
H          6.67870        1.51080       11.40750
H          4.61370        0.03910       10.76830
H          3.25730       -0.49940       12.98720
H          4.48600        0.64150       14.99490
H          6.65260        0.02840       13.60200
H          6.77110        1.73800       14.08850
H          4.45570        3.09130       14.54510
H         -5.82330       -0.39430       -6.06970
H         -5.61460       -0.80770       -7.79850
H         -4.86440        1.86860       -6.50790
H         -6.28660        1.58940       -7.52080
H         -4.66810        1.45960       -8.21770
H         -3.98800        2.98190        7.77310
H         -7.69070        2.23260        4.30950
H         -7.33130        1.58820        2.67860
H         -7.00690        4.50690        3.55170
H         -6.64820        3.87260        1.94030
H         -8.31340        3.88700        2.53560
H         -3.78710        1.05580       -0.40620
H         -4.09490        0.84810        1.30720
H         -3.25200       -1.46190       -0.52500
H         -3.67190       -1.56830        1.18190
H         -4.90690       -1.12520        0.00210
H         -3.03270        0.33160       -3.73220
H         -3.58750        0.21300       -2.07490
H         -1.76010        2.38290       -3.24610
H         -3.44270        2.59890       -2.75900
H         -2.19340        2.30750       -1.54110
H         -1.13430       -2.45490       -9.63550
H          0.62820       -3.46360      -10.89340
H          6.44170       -4.66100       -8.82760
H          9.14450       -5.19380      -11.00450
H          8.66650       -6.81220      -10.52450
H          8.65030       -5.50160       -9.33020
H          5.02670       -5.69530      -13.48250
