
  xtb     02102222023D
 energy: -261.110101251425 gnorm: 0.000352196753 xtb: 6.4.1 (unknown)
157175  0     0  0            999 V2000
    2.9463    0.1052    7.4650 C   0  0  0  0  0  0  0  0  0  0  0  0
    2.1174    0.7926    8.3107 C   0  0  0  0  0  0  0  0  0  0  0  0
    0.7127    1.1401    8.0531 C   0  0  0  0  0  0  0  0  0  0  0  0
   -0.0200    0.6892    7.1908 O   0  0  0  0  0  0  0  0  0  0  0  0
    0.3544    2.1622    9.0505 C   0  0  0  0  0  0  0  0  0  0  0  0
   -0.8419    2.8719    9.1299 C   0  0  0  0  0  0  0  0  0  0  0  0
   -0.8725    3.8031   10.1398 C   0  0  0  0  0  0  0  0  0  0  0  0
    0.2046    4.0087   11.0124 C   0  0  0  0  0  0  0  0  0  0  0  0
    1.3844    3.3050   10.9545 C   0  0  0  0  0  0  0  0  0  0  0  0
    1.4395    2.3561    9.9289 C   0  0  0  0  0  0  0  0  0  0  0  0
    2.5206    1.4533    9.5381 C   0  0  0  0  0  0  0  0  0  0  0  0
    3.6796    1.2473   10.2399 C   0  0  0  0  0  0  0  0  0  0  0  0
    4.6879    0.3240    9.8918 C   0  0  0  0  0  0  0  0  0  0  0  0
    5.5453   -0.4119    9.6847 N   0  0  0  0  0  0  0  0  0  0  0  0
    4.0127    1.9088   11.4403 C   0  0  0  0  0  0  0  0  0  0  0  0
    4.3492    2.4105   12.4167 N   0  0  0  0  0  0  0  0  0  0  0  0
   -0.5044    5.1138   11.7551 C   0  0  0  0  0  0  0  0  0  0  0  0
   -0.0676    6.5562   11.4207 C   0  0  0  0  0  0  0  0  0  0  0  0
   -1.2199    7.4053   11.9070 C   0  0  0  0  0  0  0  0  0  0  0  0
   -2.2414    7.2093   11.0831 C   0  0  0  0  0  0  0  0  0  0  0  0
   -1.7965    6.2245   10.0260 C   0  0  0  0  0  0  0  0  0  0  0  0
   -0.3176    6.6154    9.9081 C   0  0  0  0  0  0  0  0  0  0  0  0
   -1.7063    4.8827   10.7840 C   0  0  0  0  0  0  0  0  0  0  0  0
    2.6853   -0.4531    6.2023 C   0  0  0  0  0  0  0  0  0  0  0  0
    3.7126   -0.8962    5.3660 C   0  0  0  0  0  0  0  0  0  0  0  0
    3.2433   -1.3022    4.1324 C   0  0  0  0  0  0  0  0  0  0  0  0
    4.0109   -1.8069    2.6496 S   0  0  0  0  0  0  0  0  0  0  0  0
    2.4544   -1.8728    1.8852 C   0  0  0  0  0  0  0  0  0  0  0  0
    1.9704   -2.0572    0.5558 C   0  0  0  0  0  0  0  0  0  0  0  0
    0.5810   -1.8771    0.5921 C   0  0  0  0  0  0  0  0  0  0  0  0
    0.0942   -1.6192    2.0044 C   0  0  0  0  0  0  0  0  0  0  0  0
   -0.6139   -0.2941    2.2076 C   0  0  0  0  0  0  0  0  0  0  0  0
   -0.5232    0.7380    1.2861 C   0  0  0  0  0  0  0  0  0  0  0  0
   -1.1407    1.9510    1.5360 C   0  0  0  0  0  0  0  0  0  0  0  0
   -1.8418    2.1677    2.7138 C   0  0  0  0  0  0  0  0  0  0  0  0
   -2.5499    3.4679    2.9643 C   0  0  0  0  0  0  0  0  0  0  0  0
   -4.0115    3.3712    2.5220 C   0  0  0  0  0  0  0  0  0  0  0  0
   -1.9142    1.1345    3.6400 C   0  0  0  0  0  0  0  0  0  0  0  0
   -1.3100   -0.0815    3.3918 C   0  0  0  0  0  0  0  0  0  0  0  0
   -0.7874   -2.7907    2.4064 C   0  0  0  0  0  0  0  0  0  0  0  0
   -0.2680   -3.8942    3.0672 C   0  0  0  0  0  0  0  0  0  0  0  0
   -1.0802   -4.9682    3.3824 C   0  0  0  0  0  0  0  0  0  0  0  0
   -2.4242   -4.9737    3.0360 C   0  0  0  0  0  0  0  0  0  0  0  0
   -3.3129   -6.1218    3.4183 C   0  0  0  0  0  0  0  0  0  0  0  0
   -3.9312   -5.8818    4.7971 C   0  0  0  0  0  0  0  0  0  0  0  0
   -2.9372   -3.8685    2.3691 C   0  0  0  0  0  0  0  0  0  0  0  0
   -2.1315   -2.7911    2.0553 C   0  0  0  0  0  0  0  0  0  0  0  0
    1.4023   -1.5759    2.7415 C   0  0  0  0  0  0  0  0  0  0  0  0
    1.8388   -1.2277    4.0159 C   0  0  0  0  0  0  0  0  0  0  0  0
    1.1056   -0.6058    5.4425 S   0  0  0  0  0  0  0  0  0  0  0  0
   -0.1705   -1.9441   -0.5637 C   0  0  0  0  0  0  0  0  0  0  0  0
    0.4695   -2.1006   -1.7852 C   0  0  0  0  0  0  0  0  0  0  0  0
   -0.2590   -2.1228   -3.0091 C   0  0  0  0  0  0  0  0  0  0  0  0
    0.3388   -2.1323   -4.2539 C   0  0  0  0  0  0  0  0  0  0  0  0
    1.8338   -2.1109   -4.4209 C   0  0  0  0  0  0  0  0  0  0  0  0
    2.5494   -2.3757   -3.1050 C   0  0  0  0  0  0  0  0  0  0  0  0
    1.8883   -2.2473   -1.8634 C   0  0  0  0  0  0  0  0  0  0  0  0
    2.6499   -2.2931   -0.6640 C   0  0  0  0  0  0  0  0  0  0  0  0
    4.0296   -2.5452   -0.7250 C   0  0  0  0  0  0  0  0  0  0  0  0
    4.6343   -2.7512   -1.9360 C   0  0  0  0  0  0  0  0  0  0  0  0
    3.8989   -2.6519   -3.1185 C   0  0  0  0  0  0  0  0  0  0  0  0
    2.2895   -0.7015   -4.8077 C   0  0  0  0  0  0  0  0  0  0  0  0
    3.5065   -0.4913   -5.4451 C   0  0  0  0  0  0  0  0  0  0  0  0
    3.9398    0.7875   -5.7377 C   0  0  0  0  0  0  0  0  0  0  0  0
    3.1795    1.8980   -5.3960 C   0  0  0  0  0  0  0  0  0  0  0  0
    3.6753    3.2875   -5.6728 C   0  0  0  0  0  0  0  0  0  0  0  0
    4.5099    3.7998   -4.4971 C   0  0  0  0  0  0  0  0  0  0  0  0
    1.9741    1.6873   -4.7425 C   0  0  0  0  0  0  0  0  0  0  0  0
    1.5364    0.4088   -4.4493 C   0  0  0  0  0  0  0  0  0  0  0  0
    2.1568   -3.1704   -5.4631 C   0  0  0  0  0  0  0  0  0  0  0  0
    2.2356   -4.5008   -5.0698 C   0  0  0  0  0  0  0  0  0  0  0  0
    2.4494   -5.4991   -6.0013 C   0  0  0  0  0  0  0  0  0  0  0  0
    2.5712   -5.2001   -7.3522 C   0  0  0  0  0  0  0  0  0  0  0  0
    2.8407   -6.2758   -8.3636 C   0  0  0  0  0  0  0  0  0  0  0  0
    4.3436   -6.4019   -8.6218 C   0  0  0  0  0  0  0  0  0  0  0  0
    2.4748   -3.8718   -7.7432 C   0  0  0  0  0  0  0  0  0  0  0  0
    2.2658   -2.8689   -6.8143 C   0  0  0  0  0  0  0  0  0  0  0  0
   -0.6218   -2.0990   -5.2734 C   0  0  0  0  0  0  0  0  0  0  0  0
   -1.9479   -2.0725   -4.7985 C   0  0  0  0  0  0  0  0  0  0  0  0
   -2.0069   -2.0980   -3.0693 S   0  0  0  0  0  0  0  0  0  0  0  0
   -2.9203   -2.0074   -5.7815 C   0  0  0  0  0  0  0  0  0  0  0  0
   -2.3636   -1.9749   -7.0530 C   0  0  0  0  0  0  0  0  0  0  0  0
   -0.5938   -2.0447   -6.9896 S   0  0  0  0  0  0  0  0  0  0  0  0
   -2.9175   -1.9052   -8.3404 C   0  0  0  0  0  0  0  0  0  0  0  0
   -4.2122   -1.7746   -8.7794 C   0  0  0  0  0  0  0  0  0  0  0  0
   -5.4405   -1.5922   -7.9804 C   0  0  0  0  0  0  0  0  0  0  0  0
   -5.5845   -1.6070   -6.7756 O   0  0  0  0  0  0  0  0  0  0  0  0
   -6.5250   -1.3671   -8.9628 C   0  0  0  0  0  0  0  0  0  0  0  0
   -7.8578   -1.1153   -8.7093 C   0  0  0  0  0  0  0  0  0  0  0  0
   -8.7089   -0.9258   -9.7910 C   0  0  0  0  0  0  0  0  0  0  0  0
  -10.3814   -0.6063   -9.5489 Cl  0  0  0  0  0  0  0  0  0  0  0  0
   -8.1920   -0.9963  -11.0865 C   0  0  0  0  0  0  0  0  0  0  0  0
   -9.0158   -0.8096  -12.1253 F   0  0  0  0  0  0  0  0  0  0  0  0
   -6.8545   -1.2515  -11.3466 C   0  0  0  0  0  0  0  0  0  0  0  0
   -6.0074   -1.4403  -10.2652 C   0  0  0  0  0  0  0  0  0  0  0  0
   -4.5760   -1.7249  -10.1856 C   0  0  0  0  0  0  0  0  0  0  0  0
   -3.7644   -1.9366  -11.2707 C   0  0  0  0  0  0  0  0  0  0  0  0
   -2.3940   -2.2739  -11.2472 C   0  0  0  0  0  0  0  0  0  0  0  0
   -1.2858   -2.5629  -11.3395 N   0  0  0  0  0  0  0  0  0  0  0  0
   -4.2062   -1.8665  -12.6096 C   0  0  0  0  0  0  0  0  0  0  0  0
   -4.4924   -1.8214  -13.7202 N   0  0  0  0  0  0  0  0  0  0  0  0
    3.9878    0.0296    7.7553 H   0  0  0  0  0  0  0  0  0  0  0  0
   -1.6460    2.6817    8.4364 H   0  0  0  0  0  0  0  0  0  0  0  0
    2.2034    3.4758   11.6328 H   0  0  0  0  0  0  0  0  0  0  0  0
   -0.6551    4.9510   12.8204 H   0  0  0  0  0  0  0  0  0  0  0  0
    0.9231    6.8255   11.7761 H   0  0  0  0  0  0  0  0  0  0  0  0
   -1.1919    7.9986   12.8019 H   0  0  0  0  0  0  0  0  0  0  0  0
   -3.2372    7.6062   11.1523 H   0  0  0  0  0  0  0  0  0  0  0  0
   -2.3809    6.1925    9.1103 H   0  0  0  0  0  0  0  0  0  0  0  0
    0.2825    5.9146    9.3304 H   0  0  0  0  0  0  0  0  0  0  0  0
   -0.1881    7.6201    9.5089 H   0  0  0  0  0  0  0  0  0  0  0  0
   -2.6596    4.5640   11.2014 H   0  0  0  0  0  0  0  0  0  0  0  0
    4.7472   -0.8808    5.6579 H   0  0  0  0  0  0  0  0  0  0  0  0
    0.0300    0.5992    0.3683 H   0  0  0  0  0  0  0  0  0  0  0  0
   -1.0680    2.7433    0.8043 H   0  0  0  0  0  0  0  0  0  0  0  0
   -2.5112    3.7092    4.0285 H   0  0  0  0  0  0  0  0  0  0  0  0
   -2.0585    4.2720    2.4128 H   0  0  0  0  0  0  0  0  0  0  0  0
   -4.5282    4.3110    2.7026 H   0  0  0  0  0  0  0  0  0  0  0  0
   -4.5211    2.5828    3.0713 H   0  0  0  0  0  0  0  0  0  0  0  0
   -4.0704    3.1407    1.4605 H   0  0  0  0  0  0  0  0  0  0  0  0
   -2.4415    1.2833    4.5705 H   0  0  0  0  0  0  0  0  0  0  0  0
   -1.3815   -0.8740    4.1218 H   0  0  0  0  0  0  0  0  0  0  0  0
    0.7762   -3.9192    3.3428 H   0  0  0  0  0  0  0  0  0  0  0  0
   -0.6599   -5.8170    3.9028 H   0  0  0  0  0  0  0  0  0  0  0  0
   -2.7341   -7.0474    3.4397 H   0  0  0  0  0  0  0  0  0  0  0  0
   -4.1103   -6.2341    2.6809 H   0  0  0  0  0  0  0  0  0  0  0  0
   -4.5221   -4.9687    4.7929 H   0  0  0  0  0  0  0  0  0  0  0  0
   -3.1515   -5.7804    5.5487 H   0  0  0  0  0  0  0  0  0  0  0  0
   -4.5761   -6.7122    5.0749 H   0  0  0  0  0  0  0  0  0  0  0  0
   -3.9809   -3.8518    2.0891 H   0  0  0  0  0  0  0  0  0  0  0  0
   -2.5536   -1.9372    1.5459 H   0  0  0  0  0  0  0  0  0  0  0  0
   -1.2447   -1.8391   -0.5332 H   0  0  0  0  0  0  0  0  0  0  0  0
    4.5990   -2.5854    0.1911 H   0  0  0  0  0  0  0  0  0  0  0  0
    5.6895   -2.9729   -1.9874 H   0  0  0  0  0  0  0  0  0  0  0  0
    4.4049   -2.7958   -4.0603 H   0  0  0  0  0  0  0  0  0  0  0  0
    4.1236   -1.3300   -5.7282 H   0  0  0  0  0  0  0  0  0  0  0  0
    4.8859    0.9240   -6.2419 H   0  0  0  0  0  0  0  0  0  0  0  0
    2.8284    3.9580   -5.8320 H   0  0  0  0  0  0  0  0  0  0  0  0
    4.2878    3.2892   -6.5765 H   0  0  0  0  0  0  0  0  0  0  0  0
    5.3674    3.1514   -4.3309 H   0  0  0  0  0  0  0  0  0  0  0  0
    3.9132    3.8156   -3.5878 H   0  0  0  0  0  0  0  0  0  0  0  0
    4.8687    4.8070   -4.6955 H   0  0  0  0  0  0  0  0  0  0  0  0
    1.3659    2.5339   -4.4571 H   0  0  0  0  0  0  0  0  0  0  0  0
    0.5961    0.2863   -3.9322 H   0  0  0  0  0  0  0  0  0  0  0  0
    2.1287   -4.7563   -4.0247 H   0  0  0  0  0  0  0  0  0  0  0  0
    2.5120   -6.5272   -5.6738 H   0  0  0  0  0  0  0  0  0  0  0  0
    2.4556   -7.2310   -8.0015 H   0  0  0  0  0  0  0  0  0  0  0  0
    2.3346   -6.0347   -9.3004 H   0  0  0  0  0  0  0  0  0  0  0  0
    4.8662   -6.6538   -7.7014 H   0  0  0  0  0  0  0  0  0  0  0  0
    4.7432   -5.4623   -8.9964 H   0  0  0  0  0  0  0  0  0  0  0  0
    4.5392   -7.1795   -9.3563 H   0  0  0  0  0  0  0  0  0  0  0  0
    2.5515   -3.6158   -8.7897 H   0  0  0  0  0  0  0  0  0  0  0  0
    2.1901   -1.8453   -7.1498 H   0  0  0  0  0  0  0  0  0  0  0  0
   -3.9787   -1.9761   -5.6022 H   0  0  0  0  0  0  0  0  0  0  0  0
   -2.1627   -1.9473   -9.1166 H   0  0  0  0  0  0  0  0  0  0  0  0
   -8.2242   -1.0671   -7.6963 H   0  0  0  0  0  0  0  0  0  0  0  0
   -6.5244   -1.2906  -12.3714 H   0  0  0  0  0  0  0  0  0  0  0  0
  1  2  2  0  0  0  0
  2  3  1  0  0  0  0
  3  4  2  0  0  0  0
  3  5  1  0  0  0  0
  5  6  2  0  0  0  0
  6  7  1  0  0  0  0
  7  8  2  0  0  0  0
  8  9  1  0  0  0  0
  9 10  2  0  0  0  0
 10 11  1  0  0  0  0
 11 12  2  0  0  0  0
 12 13  1  0  0  0  0
 13 14  3  0  0  0  0
 12 15  1  0  0  0  0
 15 16  3  0  0  0  0
  8 17  1  0  0  0  0
 17 18  1  0  0  0  0
 18 19  1  0  0  0  0
 19 20  2  0  0  0  0
 20 21  1  0  0  0  0
 21 22  1  0  0  0  0
 21 23  1  0  0  0  0
  1 24  1  0  0  0  0
 24 25  2  0  0  0  0
 25 26  1  0  0  0  0
 26 27  1  0  0  0  0
 27 28  1  0  0  0  0
 28 29  1  0  0  0  0
 29 30  2  0  0  0  0
 30 31  1  0  0  0  0
 31 32  1  0  0  0  0
 32 33  2  0  0  0  0
 33 34  1  0  0  0  0
 34 35  2  0  0  0  0
 35 36  1  0  0  0  0
 36 37  1  0  0  0  0
 35 38  1  0  0  0  0
 38 39  2  0  0  0  0
 31 40  1  0  0  0  0
 40 41  2  0  0  0  0
 41 42  1  0  0  0  0
 42 43  2  0  0  0  0
 43 44  1  0  0  0  0
 44 45  1  0  0  0  0
 43 46  1  0  0  0  0
 46 47  2  0  0  0  0
 31 48  1  0  0  0  0
 48 49  1  0  0  0  0
 49 50  1  0  0  0  0
 30 51  1  0  0  0  0
 51 52  2  0  0  0  0
 52 53  1  0  0  0  0
 53 54  2  0  0  0  0
 54 55  1  0  0  0  0
 55 56  1  0  0  0  0
 56 57  1  0  0  0  0
 57 58  2  0  0  0  0
 58 59  1  0  0  0  0
 59 60  2  0  0  0  0
 60 61  1  0  0  0  0
 55 62  1  0  0  0  0
 62 63  2  0  0  0  0
 63 64  1  0  0  0  0
 64 65  2  0  0  0  0
 65 66  1  0  0  0  0
 66 67  1  0  0  0  0
 65 68  1  0  0  0  0
 68 69  2  0  0  0  0
 55 70  1  0  0  0  0
 70 71  2  0  0  0  0
 71 72  1  0  0  0  0
 72 73  2  0  0  0  0
 73 74  1  0  0  0  0
 74 75  1  0  0  0  0
 73 76  1  0  0  0  0
 76 77  2  0  0  0  0
 54 78  1  0  0  0  0
 78 79  2  0  0  0  0
 79 80  1  0  0  0  0
 79 81  1  0  0  0  0
 81 82  2  0  0  0  0
 82 83  1  0  0  0  0
 82 84  1  0  0  0  0
 84 85  2  0  0  0  0
 85 86  1  0  0  0  0
 86 87  2  0  0  0  0
 86 88  1  0  0  0  0
 88 89  2  0  0  0  0
 89 90  1  0  0  0  0
 90 91  1  0  0  0  0
 90 92  2  0  0  0  0
 92 93  1  0  0  0  0
 92 94  1  0  0  0  0
 94 95  2  0  0  0  0
 95 96  1  0  0  0  0
 96 97  2  0  0  0  0
 97 98  1  0  0  0  0
 98 99  3  0  0  0  0
 97100  1  0  0  0  0
100101  3  0  0  0  0
 11  2  1  0  0  0  0
 23 17  1  0  0  0  0
 50 24  1  0  0  0  0
 57 52  1  0  0  0  0
 69 62  1  0  0  0  0
 77 70  1  0  0  0  0
 83 78  1  0  0  0  0
 96 85  1  0  0  0  0
 10  5  1  0  0  0  0
 22 18  1  0  0  0  0
 49 26  2  0  0  0  0
 80 53  1  0  0  0  0
 95 88  1  0  0  0  0
 23  7  1  0  0  0  0
 48 28  2  0  0  0  0
 61 56  2  0  0  0  0
 58 29  1  0  0  0  0
 39 32  1  0  0  0  0
 47 40  1  0  0  0  0
  1102  1  0  0  0  0
  6103  1  0  0  0  0
  9104  1  0  0  0  0
 17105  1  0  0  0  0
 18106  1  0  0  0  0
 19107  1  0  0  0  0
 20108  1  0  0  0  0
 21109  1  0  0  0  0
 22110  1  0  0  0  0
 22111  1  0  0  0  0
 23112  1  0  0  0  0
 25113  1  0  0  0  0
 33114  1  0  0  0  0
 34115  1  0  0  0  0
 36116  1  0  0  0  0
 36117  1  0  0  0  0
 37118  1  0  0  0  0
 37119  1  0  0  0  0
 37120  1  0  0  0  0
 38121  1  0  0  0  0
 39122  1  0  0  0  0
 41123  1  0  0  0  0
 42124  1  0  0  0  0
 44125  1  0  0  0  0
 44126  1  0  0  0  0
 45127  1  0  0  0  0
 45128  1  0  0  0  0
 45129  1  0  0  0  0
 46130  1  0  0  0  0
 47131  1  0  0  0  0
 51132  1  0  0  0  0
 59133  1  0  0  0  0
 60134  1  0  0  0  0
 61135  1  0  0  0  0
 63136  1  0  0  0  0
 64137  1  0  0  0  0
 66138  1  0  0  0  0
 66139  1  0  0  0  0
 67140  1  0  0  0  0
 67141  1  0  0  0  0
 67142  1  0  0  0  0
 68143  1  0  0  0  0
 69144  1  0  0  0  0
 71145  1  0  0  0  0
 72146  1  0  0  0  0
 74147  1  0  0  0  0
 74148  1  0  0  0  0
 75149  1  0  0  0  0
 75150  1  0  0  0  0
 75151  1  0  0  0  0
 76152  1  0  0  0  0
 77153  1  0  0  0  0
 81154  1  0  0  0  0
 84155  1  0  0  0  0
 89156  1  0  0  0  0
 94157  1  0  0  0  0
M  END
