
  xtb     02022220263D
 energy: -182.727733089265 gnorm: 0.000658893876 xtb: 6.4.1 (unknown)
104117  0     0  0            999 V2000
    7.0763   -6.2079   -0.7607 C   0  0  0  0  0  0  0  0  0  0  0  0
    8.0610   -6.1590    0.1746 C   0  0  0  0  0  0  0  0  0  0  0  0
    9.4343   -6.6306   -0.1923 C   0  0  0  0  0  0  0  0  0  0  0  0
    9.7575   -7.1843   -1.2178 O   0  0  0  0  0  0  0  0  0  0  0  0
   10.2573   -6.2236    0.9425 C   0  0  0  0  0  0  0  0  0  0  0  0
   11.9161   -6.2728    1.3525 S   0  0  0  0  0  0  0  0  0  0  0  0
   11.5657   -5.5361    2.8718 C   0  0  0  0  0  0  0  0  0  0  0  0
   10.2423   -5.2708    3.0674 C   0  0  0  0  0  0  0  0  0  0  0  0
    9.4813   -5.6631    1.9499 C   0  0  0  0  0  0  0  0  0  0  0  0
    8.0859   -5.7053    1.5519 C   0  0  0  0  0  0  0  0  0  0  0  0
    7.0337   -5.5738    2.4180 C   0  0  0  0  0  0  0  0  0  0  0  0
    5.6826   -5.8273    2.1138 C   0  0  0  0  0  0  0  0  0  0  0  0
    4.5625   -6.0254    1.9586 N   0  0  0  0  0  0  0  0  0  0  0  0
    7.2276   -5.1956    3.7630 C   0  0  0  0  0  0  0  0  0  0  0  0
    7.3608   -4.8601    4.8523 N   0  0  0  0  0  0  0  0  0  0  0  0
    5.8068   -5.5717   -0.8096 C   0  0  0  0  0  0  0  0  0  0  0  0
    4.5189   -6.5292   -1.5307 S   0  0  0  0  0  0  0  0  0  0  0  0
    3.4458   -5.2278   -1.2947 C   0  0  0  0  0  0  0  0  0  0  0  0
    2.0814   -4.9683   -1.4570 C   0  0  0  0  0  0  0  0  0  0  0  0
    1.0162   -5.8305   -1.7938 C   0  0  0  0  0  0  0  0  0  0  0  0
   -0.3240   -5.3396   -1.6731 C   0  0  0  0  0  0  0  0  0  0  0  0
   -1.2299   -6.2663   -1.9443 N   0  0  0  0  0  0  0  0  0  0  0  0
   -0.4588   -7.6379   -2.3237 S   0  0  0  0  0  0  0  0  0  0  0  0
    1.0591   -7.1025   -2.1574 N   0  0  0  0  0  0  0  0  0  0  0  0
   -0.5214   -3.9783   -1.3552 C   0  0  0  0  0  0  0  0  0  0  0  0
   -1.7010   -3.2236   -1.2823 C   0  0  0  0  0  0  0  0  0  0  0  0
   -3.4091   -3.4534   -1.3979 S   0  0  0  0  0  0  0  0  0  0  0  0
   -3.6278   -1.7324   -1.1834 C   0  0  0  0  0  0  0  0  0  0  0  0
   -4.7690   -0.9242   -1.1517 C   0  0  0  0  0  0  0  0  0  0  0  0
   -6.1601   -1.4558   -1.2213 C   0  0  0  0  0  0  0  0  0  0  0  0
   -6.7208   -1.6534    0.1893 C   0  0  0  0  0  0  0  0  0  0  0  0
   -4.4423    0.4078   -0.9353 C   0  0  0  0  0  0  0  0  0  0  0  0
   -2.6978    0.6522   -0.8223 S   0  0  0  0  0  0  0  0  0  0  0  0
   -2.4215   -1.0366   -1.0308 C   0  0  0  0  0  0  0  0  0  0  0  0
   -1.3198   -1.8939   -1.0793 C   0  0  0  0  0  0  0  0  0  0  0  0
    0.0459   -1.7983   -0.9887 N   0  0  0  0  0  0  0  0  0  0  0  0
    0.5646   -3.0801   -1.1402 C   0  0  0  0  0  0  0  0  0  0  0  0
    1.8788   -3.6189   -1.0643 C   0  0  0  0  0  0  0  0  0  0  0  0
    3.0910   -3.1019   -0.6382 N   0  0  0  0  0  0  0  0  0  0  0  0
    4.0553   -4.0832   -0.7592 C   0  0  0  0  0  0  0  0  0  0  0  0
    5.4249   -4.2764   -0.4666 C   0  0  0  0  0  0  0  0  0  0  0  0
    6.4527   -3.2509   -0.0746 C   0  0  0  0  0  0  0  0  0  0  0  0
    6.3431   -2.6865    1.3535 C   0  0  0  0  0  0  0  0  0  0  0  0
    3.2658   -1.9174    0.1680 C   0  0  0  0  0  0  0  0  0  0  0  0
    3.9427   -0.7731   -0.5890 C   0  0  0  0  0  0  0  0  0  0  0  0
    0.6440   -0.5188   -1.3094 C   0  0  0  0  0  0  0  0  0  0  0  0
    0.9728   -0.4309   -2.7984 C   0  0  0  0  0  0  0  0  0  0  0  0
   -5.3341    1.5020   -0.9037 C   0  0  0  0  0  0  0  0  0  0  0  0
   -5.1331    2.7477   -0.3933 C   0  0  0  0  0  0  0  0  0  0  0  0
   -5.9408    3.8973   -0.8762 C   0  0  0  0  0  0  0  0  0  0  0  0
   -6.9651    3.8459   -1.5200 O   0  0  0  0  0  0  0  0  0  0  0  0
   -5.1910    5.0991   -0.4565 C   0  0  0  0  0  0  0  0  0  0  0  0
   -5.4670    6.4249   -0.7857 C   0  0  0  0  0  0  0  0  0  0  0  0
   -4.5735    7.3296   -0.2643 C   0  0  0  0  0  0  0  0  0  0  0  0
   -3.4779    6.9494    0.5230 C   0  0  0  0  0  0  0  0  0  0  0  0
   -3.1935    5.6474    0.8593 C   0  0  0  0  0  0  0  0  0  0  0  0
   -4.0951    4.7128    0.3439 C   0  0  0  0  0  0  0  0  0  0  0  0
   -4.1409    3.2648    0.5217 C   0  0  0  0  0  0  0  0  0  0  0  0
   -3.5678    2.5654    1.5529 C   0  0  0  0  0  0  0  0  0  0  0  0
   -2.6562    3.1136    2.4743 C   0  0  0  0  0  0  0  0  0  0  0  0
   -1.8888    3.5040    3.2343 N   0  0  0  0  0  0  0  0  0  0  0  0
   -3.9164    1.2308    1.8471 C   0  0  0  0  0  0  0  0  0  0  0  0
   -4.2242    0.1641    2.1399 N   0  0  0  0  0  0  0  0  0  0  0  0
   -3.0089    8.3717    0.7004 C   0  0  0  0  0  0  0  0  0  0  0  0
   -3.3165    9.0320    2.0613 C   0  0  0  0  0  0  0  0  0  0  0  0
   -3.1865   10.5119    1.7816 C   0  0  0  0  0  0  0  0  0  0  0  0
   -4.2233   10.8742    1.0370 C   0  0  0  0  0  0  0  0  0  0  0  0
   -5.0719    9.6454    0.8013 C   0  0  0  0  0  0  0  0  0  0  0  0
   -4.8444    8.9097    2.1281 C   0  0  0  0  0  0  0  0  0  0  0  0
   -4.2310    8.7965   -0.1755 C   0  0  0  0  0  0  0  0  0  0  0  0
    7.3105   -6.8299   -1.6212 H   0  0  0  0  0  0  0  0  0  0  0  0
   12.3728   -5.3406    3.5505 H   0  0  0  0  0  0  0  0  0  0  0  0
    9.8483   -4.8165    3.9576 H   0  0  0  0  0  0  0  0  0  0  0  0
   -6.8006   -0.7663   -1.7749 H   0  0  0  0  0  0  0  0  0  0  0  0
   -6.1426   -2.4141   -1.7443 H   0  0  0  0  0  0  0  0  0  0  0  0
   -7.7347   -2.0412    0.1372 H   0  0  0  0  0  0  0  0  0  0  0  0
   -6.1047   -2.3564    0.7438 H   0  0  0  0  0  0  0  0  0  0  0  0
   -6.7300   -0.7101    0.7301 H   0  0  0  0  0  0  0  0  0  0  0  0
    7.4335   -3.7106   -0.2025 H   0  0  0  0  0  0  0  0  0  0  0  0
    6.4020   -2.4312   -0.7961 H   0  0  0  0  0  0  0  0  0  0  0  0
    7.3136   -2.7005    1.8439 H   0  0  0  0  0  0  0  0  0  0  0  0
    5.6548   -3.2711    1.9592 H   0  0  0  0  0  0  0  0  0  0  0  0
    6.0014   -1.6547    1.3482 H   0  0  0  0  0  0  0  0  0  0  0  0
    3.8692   -2.1878    1.0363 H   0  0  0  0  0  0  0  0  0  0  0  0
    2.2849   -1.6221    0.5443 H   0  0  0  0  0  0  0  0  0  0  0  0
    3.4820   -0.6122   -1.5595 H   0  0  0  0  0  0  0  0  0  0  0  0
    3.8783    0.1443   -0.0087 H   0  0  0  0  0  0  0  0  0  0  0  0
    4.9917   -0.9915   -0.7602 H   0  0  0  0  0  0  0  0  0  0  0  0
   -0.0956    0.2433   -1.0514 H   0  0  0  0  0  0  0  0  0  0  0  0
    1.5291   -0.3299   -0.7113 H   0  0  0  0  0  0  0  0  0  0  0  0
    1.6782   -1.2093   -3.0822 H   0  0  0  0  0  0  0  0  0  0  0  0
    1.4039    0.5397   -3.0278 H   0  0  0  0  0  0  0  0  0  0  0  0
    0.0698   -0.5574   -3.3910 H   0  0  0  0  0  0  0  0  0  0  0  0
   -6.2717    1.3645   -1.4341 H   0  0  0  0  0  0  0  0  0  0  0  0
   -6.3178    6.6786   -1.3984 H   0  0  0  0  0  0  0  0  0  0  0  0
   -2.3434    5.3601    1.4564 H   0  0  0  0  0  0  0  0  0  0  0  0
   -2.0063    8.5909    0.3379 H   0  0  0  0  0  0  0  0  0  0  0  0
   -2.7451    8.6385    2.8974 H   0  0  0  0  0  0  0  0  0  0  0  0
   -2.3525   11.1111    2.0968 H   0  0  0  0  0  0  0  0  0  0  0  0
   -4.4283   11.8366    0.6059 H   0  0  0  0  0  0  0  0  0  0  0  0
   -6.0996    9.8131    0.4905 H   0  0  0  0  0  0  0  0  0  0  0  0
   -5.2634    9.4497    2.9754 H   0  0  0  0  0  0  0  0  0  0  0  0
   -5.2076    7.8837    2.1351 H   0  0  0  0  0  0  0  0  0  0  0  0
   -4.0433    9.2984   -1.1231 H   0  0  0  0  0  0  0  0  0  0  0  0
  1  2  2  0  0  0  0
  2  3  1  0  0  0  0
  3  4  2  0  0  0  0
  3  5  1  0  0  0  0
  5  6  1  0  0  0  0
  6  7  1  0  0  0  0
  7  8  2  0  0  0  0
  8  9  1  0  0  0  0
  9 10  1  0  0  0  0
 10 11  2  0  0  0  0
 11 12  1  0  0  0  0
 12 13  3  0  0  0  0
 11 14  1  0  0  0  0
 14 15  3  0  0  0  0
  1 16  1  0  0  0  0
 16 17  1  0  0  0  0
 17 18  1  0  0  0  0
 18 19  1  0  0  0  0
 19 20  1  0  0  0  0
 20 21  1  0  0  0  0
 21 22  2  0  0  0  0
 22 23  1  0  0  0  0
 23 24  1  0  0  0  0
 21 25  1  0  0  0  0
 25 26  1  0  0  0  0
 26 27  1  0  0  0  0
 27 28  1  0  0  0  0
 28 29  1  0  0  0  0
 29 30  1  0  0  0  0
 30 31  1  0  0  0  0
 29 32  2  0  0  0  0
 32 33  1  0  0  0  0
 33 34  1  0  0  0  0
 34 35  1  0  0  0  0
 35 36  1  0  0  0  0
 36 37  1  0  0  0  0
 37 38  1  0  0  0  0
 38 39  1  0  0  0  0
 39 40  1  0  0  0  0
 40 41  1  0  0  0  0
 41 42  1  0  0  0  0
 42 43  1  0  0  0  0
 39 44  1  0  0  0  0
 44 45  1  0  0  0  0
 36 46  1  0  0  0  0
 46 47  1  0  0  0  0
 32 48  1  0  0  0  0
 48 49  2  0  0  0  0
 49 50  1  0  0  0  0
 50 51  2  0  0  0  0
 50 52  1  0  0  0  0
 52 53  2  0  0  0  0
 53 54  1  0  0  0  0
 54 55  2  0  0  0  0
 55 56  1  0  0  0  0
 56 57  2  0  0  0  0
 57 58  1  0  0  0  0
 58 59  2  0  0  0  0
 59 60  1  0  0  0  0
 60 61  3  0  0  0  0
 59 62  1  0  0  0  0
 62 63  3  0  0  0  0
 55 64  1  0  0  0  0
 64 65  1  0  0  0  0
 65 66  1  0  0  0  0
 66 67  2  0  0  0  0
 67 68  1  0  0  0  0
 68 69  1  0  0  0  0
 68 70  1  0  0  0  0
 10  2  1  0  0  0  0
 41 16  2  0  0  0  0
 58 49  1  0  0  0  0
 70 64  1  0  0  0  0
  9  5  2  0  0  0  0
 40 18  2  0  0  0  0
 57 52  1  0  0  0  0
 69 65  1  0  0  0  0
 38 19  2  0  0  0  0
 70 54  1  0  0  0  0
 24 20  2  0  0  0  0
 37 25  2  0  0  0  0
 35 26  2  0  0  0  0
 34 28  2  0  0  0  0
  1 71  1  0  0  0  0
  7 72  1  0  0  0  0
  8 73  1  0  0  0  0
 30 74  1  0  0  0  0
 30 75  1  0  0  0  0
 31 76  1  0  0  0  0
 31 77  1  0  0  0  0
 31 78  1  0  0  0  0
 42 79  1  0  0  0  0
 42 80  1  0  0  0  0
 43 81  1  0  0  0  0
 43 82  1  0  0  0  0
 43 83  1  0  0  0  0
 44 84  1  0  0  0  0
 44 85  1  0  0  0  0
 45 86  1  0  0  0  0
 45 87  1  0  0  0  0
 45 88  1  0  0  0  0
 46 89  1  0  0  0  0
 46 90  1  0  0  0  0
 47 91  1  0  0  0  0
 47 92  1  0  0  0  0
 47 93  1  0  0  0  0
 48 94  1  0  0  0  0
 53 95  1  0  0  0  0
 56 96  1  0  0  0  0
 64 97  1  0  0  0  0
 65 98  1  0  0  0  0
 66 99  1  0  0  0  0
 67100  1  0  0  0  0
 68101  1  0  0  0  0
 69102  1  0  0  0  0
 69103  1  0  0  0  0
 70104  1  0  0  0  0
M  END
