
  xtb     02112202303D
 energy: -163.663808945317 gnorm: 0.000788379937 xtb: 6.4.1 (unknown)
 82 93  0     0  0            999 V2000
   -0.6870    9.1130   -0.1591 C   0  0  0  0  0  0  0  0  0  0  0  0
   -1.6017    9.5250   -1.0951 C   0  0  0  0  0  0  0  0  0  0  0  0
   -2.4845    8.6446   -1.8678 C   0  0  0  0  0  0  0  0  0  0  0  0
   -2.5379    7.4212   -1.8170 O   0  0  0  0  0  0  0  0  0  0  0  0
   -3.2759    9.5367   -2.6973 C   0  0  0  0  0  0  0  0  0  0  0  0
   -4.5164    9.3802   -3.8628 S   0  0  0  0  0  0  0  0  0  0  0  0
   -4.5583   11.0932   -4.0490 C   0  0  0  0  0  0  0  0  0  0  0  0
   -3.6666   11.7600   -3.2601 C   0  0  0  0  0  0  0  0  0  0  0  0
   -2.9212   10.8619   -2.4743 C   0  0  0  0  0  0  0  0  0  0  0  0
   -1.8650   10.9027   -1.4781 C   0  0  0  0  0  0  0  0  0  0  0  0
   -1.2593   12.0493   -1.0372 C   0  0  0  0  0  0  0  0  0  0  0  0
   -1.6348   13.3183   -1.5276 C   0  0  0  0  0  0  0  0  0  0  0  0
   -1.9261   14.3599   -1.9101 N   0  0  0  0  0  0  0  0  0  0  0  0
   -0.2213   12.1261   -0.0874 C   0  0  0  0  0  0  0  0  0  0  0  0
    0.6264   12.2634    0.6754 N   0  0  0  0  0  0  0  0  0  0  0  0
   -0.3346    7.8267    0.2727 C   0  0  0  0  0  0  0  0  0  0  0  0
    0.6466    7.6416    1.2495 C   0  0  0  0  0  0  0  0  0  0  0  0
    0.9274    6.3241    1.5584 C   0  0  0  0  0  0  0  0  0  0  0  0
    2.0847    5.6366    2.6846 S   0  0  0  0  0  0  0  0  0  0  0  0
    1.5838    4.0592    2.1866 C   0  0  0  0  0  0  0  0  0  0  0  0
    1.9137    2.7184    2.4107 C   0  0  0  0  0  0  0  0  0  0  0  0
    2.9249    2.1560    3.2200 C   0  0  0  0  0  0  0  0  0  0  0  0
    3.1252    0.7403    3.1855 C   0  0  0  0  0  0  0  0  0  0  0  0
    4.1273    0.3504    3.9577 N   0  0  0  0  0  0  0  0  0  0  0  0
    4.7620    1.6574    4.6700 S   0  0  0  0  0  0  0  0  0  0  0  0
    3.7833    2.7705    4.0188 N   0  0  0  0  0  0  0  0  0  0  0  0
    2.2577   -0.0494    2.3998 C   0  0  0  0  0  0  0  0  0  0  0  0
    2.1976   -1.4395    2.2496 C   0  0  0  0  0  0  0  0  0  0  0  0
    1.0982   -1.7119    1.4264 C   0  0  0  0  0  0  0  0  0  0  0  0
    0.4887   -0.5406    1.0640 N   0  0  0  0  0  0  0  0  0  0  0  0
   -0.7524   -0.6101    0.3311 C   0  0  0  0  0  0  0  0  0  0  0  0
   -0.5207   -0.8421   -1.1622 C   0  0  0  0  0  0  0  0  0  0  0  0
    1.1921    0.5092    1.6286 C   0  0  0  0  0  0  0  0  0  0  0  0
    1.0618    1.9255    1.5783 C   0  0  0  0  0  0  0  0  0  0  0  0
    0.2632    2.7910    0.8535 N   0  0  0  0  0  0  0  0  0  0  0  0
    0.5709    4.0720    1.2218 C   0  0  0  0  0  0  0  0  0  0  0  0
    0.1833    5.3607    0.8452 C   0  0  0  0  0  0  0  0  0  0  0  0
   -1.0180    6.1636   -0.3359 Se  0  0  0  0  0  2  0  0  0  0  0  0
   -0.6752    2.6029   -0.2264 C   0  0  0  0  0  0  0  0  0  0  0  0
   -2.1225    2.7172    0.2513 C   0  0  0  0  0  0  0  0  0  0  0  0
    0.9048   -3.0810    1.2272 C   0  0  0  0  0  0  0  0  0  0  0  0
    1.8882   -3.8357    1.9063 C   0  0  0  0  0  0  0  0  0  0  0  0
    3.0335   -2.8494    2.7897 S   0  0  0  0  0  0  0  0  0  0  0  0
    1.8101   -5.2147    1.7778 C   0  0  0  0  0  0  0  0  0  0  0  0
    0.7580   -5.6586    0.9922 C   0  0  0  0  0  0  0  0  0  0  0  0
   -0.2803   -4.1961    0.3265 Se  0  0  0  0  0  2  0  0  0  0  0  0
    0.3185   -6.9389    0.6205 C   0  0  0  0  0  0  0  0  0  0  0  0
    0.8143   -8.1961    0.8600 C   0  0  0  0  0  0  0  0  0  0  0  0
    2.0687   -8.5744    1.5487 C   0  0  0  0  0  0  0  0  0  0  0  0
    2.8695   -7.8597    2.1109 O   0  0  0  0  0  0  0  0  0  0  0  0
    2.1672  -10.0435    1.4056 C   0  0  0  0  0  0  0  0  0  0  0  0
    3.1524  -10.9150    1.8334 C   0  0  0  0  0  0  0  0  0  0  0  0
    4.2267  -10.4720    2.4932 F   0  0  0  0  0  0  0  0  0  0  0  0
    3.0345  -12.2755    1.5775 C   0  0  0  0  0  0  0  0  0  0  0  0
    1.9285  -12.7473    0.8925 C   0  0  0  0  0  0  0  0  0  0  0  0
    0.9259  -11.8910    0.4542 C   0  0  0  0  0  0  0  0  0  0  0  0
    1.0467  -10.5354    0.7139 C   0  0  0  0  0  0  0  0  0  0  0  0
    0.1710   -9.4082    0.3892 C   0  0  0  0  0  0  0  0  0  0  0  0
   -1.0537   -9.5253   -0.2186 C   0  0  0  0  0  0  0  0  0  0  0  0
   -1.9560   -8.4775   -0.5010 C   0  0  0  0  0  0  0  0  0  0  0  0
   -2.7591   -7.6978   -0.7623 N   0  0  0  0  0  0  0  0  0  0  0  0
   -1.6187  -10.7468   -0.6436 C   0  0  0  0  0  0  0  0  0  0  0  0
   -2.1440  -11.6946   -1.0227 N   0  0  0  0  0  0  0  0  0  0  0  0
   -0.1282    9.8962    0.3417 H   0  0  0  0  0  0  0  0  0  0  0  0
   -5.2530   11.5210   -4.7451 H   0  0  0  0  0  0  0  0  0  0  0  0
   -3.5610   12.8289   -3.2515 H   0  0  0  0  0  0  0  0  0  0  0  0
    1.1469    8.4749    1.7136 H   0  0  0  0  0  0  0  0  0  0  0  0
   -1.3151   -1.4646    0.7304 H   0  0  0  0  0  0  0  0  0  0  0  0
   -1.3411    0.2835    0.5182 H   0  0  0  0  0  0  0  0  0  0  0  0
   -1.4638   -0.7772   -1.6972 H   0  0  0  0  0  0  0  0  0  0  0  0
   -0.1011   -1.8338   -1.3254 H   0  0  0  0  0  0  0  0  0  0  0  0
    0.1749   -0.1160   -1.5779 H   0  0  0  0  0  0  0  0  0  0  0  0
   -0.4912    3.4035   -0.9563 H   0  0  0  0  0  0  0  0  0  0  0  0
   -0.4829    1.6570   -0.7235 H   0  0  0  0  0  0  0  0  0  0  0  0
   -2.3175    2.0646    1.1002 H   0  0  0  0  0  0  0  0  0  0  0  0
   -2.3323    3.7409    0.5594 H   0  0  0  0  0  0  0  0  0  0  0  0
   -2.7999    2.4606   -0.5582 H   0  0  0  0  0  0  0  0  0  0  0  0
    2.5041   -5.8950    2.2398 H   0  0  0  0  0  0  0  0  0  0  0  0
   -0.5843   -6.9102    0.0189 H   0  0  0  0  0  0  0  0  0  0  0  0
    3.8099  -12.9438    1.9172 H   0  0  0  0  0  0  0  0  0  0  0  0
    1.8419  -13.8043    0.6935 H   0  0  0  0  0  0  0  0  0  0  0  0
    0.0797  -12.2905   -0.0784 H   0  0  0  0  0  0  0  0  0  0  0  0
  1  2  2  0  0  0  0
  2  3  1  0  0  0  0
  3  4  2  0  0  0  0
  3  5  1  0  0  0  0
  5  6  1  0  0  0  0
  6  7  1  0  0  0  0
  7  8  2  0  0  0  0
  8  9  1  0  0  0  0
  9 10  1  0  0  0  0
 10 11  2  0  0  0  0
 11 12  1  0  0  0  0
 12 13  3  0  0  0  0
 11 14  1  0  0  0  0
 14 15  3  0  0  0  0
  1 16  1  0  0  0  0
 16 17  2  0  0  0  0
 17 18  1  0  0  0  0
 18 19  1  0  0  0  0
 19 20  1  0  0  0  0
 20 21  1  0  0  0  0
 21 22  1  0  0  0  0
 22 23  1  0  0  0  0
 23 24  2  0  0  0  0
 24 25  1  0  0  0  0
 25 26  1  0  0  0  0
 23 27  1  0  0  0  0
 27 28  1  0  0  0  0
 28 29  2  0  0  0  0
 29 30  1  0  0  0  0
 30 31  1  0  0  0  0
 31 32  1  0  0  0  0
 30 33  1  0  0  0  0
 33 34  1  0  0  0  0
 34 35  1  0  0  0  0
 35 36  1  0  0  0  0
 36 37  1  0  0  0  0
 37 38  1  0  0  0  0
 35 39  1  0  0  0  0
 39 40  1  0  0  0  0
 29 41  1  0  0  0  0
 41 42  2  0  0  0  0
 42 43  1  0  0  0  0
 42 44  1  0  0  0  0
 44 45  2  0  0  0  0
 45 46  1  0  0  0  0
 45 47  1  0  0  0  0
 47 48  2  0  0  0  0
 48 49  1  0  0  0  0
 49 50  2  0  0  0  0
 49 51  1  0  0  0  0
 51 52  2  0  0  0  0
 52 53  1  0  0  0  0
 52 54  1  0  0  0  0
 54 55  2  0  0  0  0
 55 56  1  0  0  0  0
 56 57  2  0  0  0  0
 57 58  1  0  0  0  0
 58 59  2  0  0  0  0
 59 60  1  0  0  0  0
 60 61  3  0  0  0  0
 59 62  1  0  0  0  0
 62 63  3  0  0  0  0
 10  2  1  0  0  0  0
 38 16  1  0  0  0  0
 46 41  1  0  0  0  0
 58 48  1  0  0  0  0
  9  5  2  0  0  0  0
 37 18  2  0  0  0  0
 57 51  1  0  0  0  0
 36 20  2  0  0  0  0
 34 21  2  0  0  0  0
 26 22  2  0  0  0  0
 33 27  2  0  0  0  0
 43 28  1  0  0  0  0
  1 64  1  0  0  0  0
  7 65  1  0  0  0  0
  8 66  1  0  0  0  0
 17 67  1  0  0  0  0
 31 68  1  0  0  0  0
 31 69  1  0  0  0  0
 32 70  1  0  0  0  0
 32 71  1  0  0  0  0
 32 72  1  0  0  0  0
 39 73  1  0  0  0  0
 39 74  1  0  0  0  0
 40 75  1  0  0  0  0
 40 76  1  0  0  0  0
 40 77  1  0  0  0  0
 44 78  1  0  0  0  0
 47 79  1  0  0  0  0
 54 80  1  0  0  0  0
 55 81  1  0  0  0  0
 56 82  1  0  0  0  0
M  END
