82

C          3.49160       -0.55330       -8.16840
C          3.70870       -1.26080       -9.31760
C          4.05670       -2.70080       -9.47630
O          4.29840       -3.52440       -8.61840
C          4.05060       -2.91160      -10.91990
S          4.30510       -4.23670      -11.96730
C          4.02160       -3.21610      -13.32820
C          3.74740       -1.92070      -13.00270
C          3.76310       -1.74000      -11.60570
C          3.56090       -0.67400      -10.64540
C          3.28450        0.62410      -10.98850
C          3.16660        1.02020      -12.33840
N          3.06240        1.37000      -13.42620
C          3.08930        1.71000      -10.11200
N          2.91880        2.64710       -9.46900
C          3.50450       -0.91970       -6.80850
C          3.81310       -2.09960       -6.15650
C          3.61330       -2.06430       -4.78090
S          3.79050       -3.32850       -3.58310
C          3.18730       -2.24300       -2.38290
C          2.79200       -2.26390       -1.03890
C          2.72070       -3.33580       -0.12160
C          2.04200       -3.13300        1.12330
N          1.98320       -4.23590        1.85310
S          2.72640       -5.42490        1.04570
N          3.14550       -4.58080       -0.26910
C          1.55720       -1.84310        1.43310
C          0.85800       -1.37210        2.55220
C          0.69170        0.00800        2.37780
N          1.24810        0.40160        1.18810
C          1.56360        1.79880        0.98540
C          3.07000        2.04230        1.01060
C          1.75770       -0.72830        0.56590
C          2.29210       -0.96430       -0.72830
N          2.39110       -0.18370       -1.86780
C          2.90010       -0.96250       -2.87170
C          3.13610       -0.84970       -4.24600
Se         2.92960        0.42850       -5.58220
C          1.79490        1.09100       -2.18980
C          0.27090        1.01110       -2.20590
C         -0.04370        0.59370        3.41010
C         -0.45350       -0.37460        4.35480
S          0.12180       -1.98700        3.98740
C         -1.28480        0.06930        5.37270
C         -1.58600        1.42150        5.31700
Se        -0.71490        2.27310        3.84210
C         -2.45210        2.23510        6.06310
C         -3.33650        1.96040        7.07510
C         -3.54340        0.70230        7.81380
O         -3.05210       -0.38700        7.61300
C         -4.47290        1.04040        8.92000
C         -4.90810        0.23150        9.95520
Cl        -4.52440       -1.42950       10.01430
C         -5.67790        0.81500       10.97220
Cl        -6.27310       -0.15090       12.25080
C         -5.92070        2.18760       10.96640
Cl        -6.77110        2.89300       12.27190
C         -5.46990        3.00360        9.91610
Cl        -5.64670        4.70260       10.06920
C         -4.80890        2.40670        8.85040
C         -4.27620        2.93960        7.59990
C         -4.76050        4.02520        6.91730
C         -4.27330        4.48430        5.67270
N         -3.94030        4.92710        4.66650
C         -5.93420        4.74240        7.23920
N         -6.92100        5.31820        7.34640
H          3.21860        0.48700       -8.31670
H          4.07460       -3.63930      -14.31220
H          3.54650       -1.15340      -13.72680
H          4.15910       -2.97100       -6.68430
H          1.10710        2.17360        0.06910
H          1.10000        2.34450        1.81540
H          3.47710        1.75440        1.97710
H          3.27740        3.09640        0.84850
H          3.57770        1.46110        0.24420
H          2.15040        1.35860       -3.19160
H          2.15570        1.86220       -1.51050
H         -0.05380        0.31140       -2.97260
H         -0.15030        1.98730       -2.42960
H         -0.11570        0.66930       -1.24860
H         -1.68510       -0.57260        6.13780
H         -2.42300        3.27480        5.75280
