92

C          3.01420       -0.17820        5.46260
C          4.16100        0.37250        4.99710
C          4.63660        0.37180        3.57400
O          4.04560        0.01820        2.57910
C          6.01670        0.83720        3.66790
S          7.29910        1.09490        2.56810
C          8.31500        1.59760        3.86820
C          7.70850        1.57120        5.08860
C          6.37520        1.12850        4.97730
C          5.24100        0.88320        5.84080
C          5.21320        1.14100        7.18390
C          6.34310        1.64670        7.86270
N          7.25260        2.05040        8.43380
C          4.10500        0.96910        8.03840
N          3.24770        0.86310        8.79500
C          1.90270       -0.69370        4.69970
C          1.25470       -1.84190        5.17660
C          0.22690       -2.43750        4.46740
C         -0.19500       -1.86070        3.28450
C         -1.25770       -2.31840        2.31530
C         -2.68330       -2.08740        2.87300
C         -3.02500       -2.83780        4.15310
C         -1.05030       -3.77450        1.87420
C          0.30040       -3.98590        1.19960
C         -1.07020       -1.33640        1.17800
C         -0.13920       -0.34690        1.52480
C          0.42290       -0.68650        2.81990
C          1.45610       -0.09510        3.51830
C          0.16740        0.70660        0.67320
C         -0.44560        0.73580       -0.56410
C         -1.34930       -0.28300       -0.92060
C         -1.68720       -1.31400       -0.05360
C         -1.79820       -0.05270       -2.28100
C         -2.61410       -0.80300       -3.09880
C         -2.84650       -0.38650       -4.42360
C         -2.26550        0.81220       -4.86510
C         -1.45540        1.56600       -4.03400
C         -1.20670        1.13170       -2.74690
C         -0.32610        1.75310       -1.68280
C          1.09250        1.92450       -2.27860
C          2.27220        1.85620       -1.31620
C         -0.98940        3.09610       -1.29400
C         -0.28170        3.92430       -0.23120
C         -3.65840       -1.26570       -5.21750
C         -4.03390       -1.32200       -6.52370
C         -3.72270       -0.41010       -7.66730
O         -3.11000        0.63570       -7.67140
C         -4.33900       -1.05700       -8.82020
S         -4.45260       -0.72310      -10.49160
C         -5.37780       -2.16140      -10.71560
C         -5.59440       -2.86620       -9.56920
C         -4.99260       -2.22800       -8.46560
C         -4.84550       -2.43040       -7.04060
C         -5.39240       -3.48730       -6.36300
C         -6.15190       -4.47470       -7.02910
N         -6.77020       -5.29400       -7.54140
C         -5.30750       -3.76270       -4.98260
N         -5.30020       -4.07670       -3.87720
H          2.92380       -0.30840        6.53530
H          9.32370        1.89130        3.65210
H          8.19550        1.84920        6.00460
H          1.60060       -2.29330        6.09540
H         -0.21620       -3.35030        4.83530
H         -2.80230       -1.01550        3.05300
H         -3.39220       -2.37040        2.09180
H         -4.05950       -2.63500        4.42230
H         -2.39360       -2.51200        4.97520
H         -2.91620       -3.91150        4.02560
H         -1.11960       -4.42700        2.74550
H         -1.84970       -4.05080        1.18370
H          0.42080       -5.03020        0.92040
H          0.38190       -3.37750        0.30170
H          1.11190       -3.71210        1.87040
H          1.90680        0.81670        3.16440
H          0.87860        1.45280        0.98450
H         -2.39650       -2.07240       -0.34880
H         -3.05950       -1.71800       -2.73580
H         -2.44450        1.14900       -5.87120
H         -1.01410        2.47830       -4.40690
H          1.11710        2.87870       -2.80970
H          1.23340        1.13580       -3.02310
H          2.21980        2.62350       -0.55020
H          3.19220        2.00630       -1.87860
H          2.32810        0.88360       -0.83500
H         -1.07960        3.69650       -2.20270
H         -2.00280        2.87260       -0.94810
H          0.70990        4.22230       -0.55970
H         -0.85780        4.82830       -0.04210
H         -0.20110        3.37700        0.70320
H         -4.02660       -2.09650       -4.62520
H         -5.71660       -2.41010      -11.70230
H         -6.15010       -3.78420       -9.53030
