
  xtb     01212212463D
 energy: -150.551968486483 gnorm: 0.000814906117 xtb: 6.4.1 (unknown)
 92100  0     0  0            999 V2000
    3.0142   -0.1782    5.4626 C   0  0  0  0  0  0  0  0  0  0  0  0
    4.1610    0.3725    4.9971 C   0  0  0  0  0  0  0  0  0  0  0  0
    4.6366    0.3718    3.5740 C   0  0  0  0  0  0  0  0  0  0  0  0
    4.0456    0.0182    2.5791 O   0  0  0  0  0  0  0  0  0  0  0  0
    6.0167    0.8372    3.6679 C   0  0  0  0  0  0  0  0  0  0  0  0
    7.2991    1.0949    2.5681 S   0  0  0  0  0  0  0  0  0  0  0  0
    8.3150    1.5976    3.8682 C   0  0  0  0  0  0  0  0  0  0  0  0
    7.7085    1.5712    5.0886 C   0  0  0  0  0  0  0  0  0  0  0  0
    6.3752    1.1285    4.9773 C   0  0  0  0  0  0  0  0  0  0  0  0
    5.2410    0.8832    5.8408 C   0  0  0  0  0  0  0  0  0  0  0  0
    5.2132    1.1410    7.1839 C   0  0  0  0  0  0  0  0  0  0  0  0
    6.3431    1.6467    7.8627 C   0  0  0  0  0  0  0  0  0  0  0  0
    7.2526    2.0504    8.4338 N   0  0  0  0  0  0  0  0  0  0  0  0
    4.1050    0.9691    8.0384 C   0  0  0  0  0  0  0  0  0  0  0  0
    3.2477    0.8631    8.7950 N   0  0  0  0  0  0  0  0  0  0  0  0
    1.9027   -0.6937    4.6997 C   0  0  0  0  0  0  0  0  0  0  0  0
    1.2547   -1.8419    5.1766 C   0  0  0  0  0  0  0  0  0  0  0  0
    0.2269   -2.4375    4.4674 C   0  0  0  0  0  0  0  0  0  0  0  0
   -0.1950   -1.8607    3.2845 C   0  0  0  0  0  0  0  0  0  0  0  0
   -1.2577   -2.3184    2.3153 C   0  0  0  0  0  0  0  0  0  0  0  0
   -2.6833   -2.0874    2.8730 C   0  0  0  0  0  0  0  0  0  0  0  0
   -3.0250   -2.8378    4.1531 C   0  0  0  0  0  0  0  0  0  0  0  0
   -1.0503   -3.7745    1.8742 C   0  0  0  0  0  0  0  0  0  0  0  0
    0.3004   -3.9859    1.1996 C   0  0  0  0  0  0  0  0  0  0  0  0
   -1.0702   -1.3364    1.1780 C   0  0  0  0  0  0  0  0  0  0  0  0
   -0.1392   -0.3469    1.5248 C   0  0  0  0  0  0  0  0  0  0  0  0
    0.4229   -0.6865    2.8199 C   0  0  0  0  0  0  0  0  0  0  0  0
    1.4561   -0.0951    3.5183 C   0  0  0  0  0  0  0  0  0  0  0  0
    0.1674    0.7066    0.6732 C   0  0  0  0  0  0  0  0  0  0  0  0
   -0.4456    0.7358   -0.5641 C   0  0  0  0  0  0  0  0  0  0  0  0
   -1.3493   -0.2830   -0.9206 C   0  0  0  0  0  0  0  0  0  0  0  0
   -1.6872   -1.3140   -0.0536 C   0  0  0  0  0  0  0  0  0  0  0  0
   -1.7982   -0.0527   -2.2810 C   0  0  0  0  0  0  0  0  0  0  0  0
   -2.6141   -0.8030   -3.0988 C   0  0  0  0  0  0  0  0  0  0  0  0
   -2.8465   -0.3865   -4.4236 C   0  0  0  0  0  0  0  0  0  0  0  0
   -2.2655    0.8122   -4.8651 C   0  0  0  0  0  0  0  0  0  0  0  0
   -1.4554    1.5660   -4.0340 C   0  0  0  0  0  0  0  0  0  0  0  0
   -1.2067    1.1317   -2.7469 C   0  0  0  0  0  0  0  0  0  0  0  0
   -0.3261    1.7531   -1.6828 C   0  0  0  0  0  0  0  0  0  0  0  0
    1.0925    1.9245   -2.2786 C   0  0  0  0  0  0  0  0  0  0  0  0
    2.2722    1.8562   -1.3162 C   0  0  0  0  0  0  0  0  0  0  0  0
   -0.9894    3.0961   -1.2940 C   0  0  0  0  0  0  0  0  0  0  0  0
   -0.2817    3.9243   -0.2312 C   0  0  0  0  0  0  0  0  0  0  0  0
   -3.6584   -1.2657   -5.2175 C   0  0  0  0  0  0  0  0  0  0  0  0
   -4.0339   -1.3220   -6.5237 C   0  0  0  0  0  0  0  0  0  0  0  0
   -3.7227   -0.4101   -7.6673 C   0  0  0  0  0  0  0  0  0  0  0  0
   -3.1100    0.6357   -7.6714 O   0  0  0  0  0  0  0  0  0  0  0  0
   -4.3390   -1.0570   -8.8202 C   0  0  0  0  0  0  0  0  0  0  0  0
   -4.4526   -0.7231  -10.4916 S   0  0  0  0  0  0  0  0  0  0  0  0
   -5.3778   -2.1614  -10.7156 C   0  0  0  0  0  0  0  0  0  0  0  0
   -5.5944   -2.8662   -9.5692 C   0  0  0  0  0  0  0  0  0  0  0  0
   -4.9926   -2.2280   -8.4656 C   0  0  0  0  0  0  0  0  0  0  0  0
   -4.8455   -2.4304   -7.0406 C   0  0  0  0  0  0  0  0  0  0  0  0
   -5.3924   -3.4873   -6.3630 C   0  0  0  0  0  0  0  0  0  0  0  0
   -6.1519   -4.4747   -7.0291 C   0  0  0  0  0  0  0  0  0  0  0  0
   -6.7702   -5.2940   -7.5414 N   0  0  0  0  0  0  0  0  0  0  0  0
   -5.3075   -3.7627   -4.9826 C   0  0  0  0  0  0  0  0  0  0  0  0
   -5.3002   -4.0767   -3.8772 N   0  0  0  0  0  0  0  0  0  0  0  0
    2.9238   -0.3084    6.5353 H   0  0  0  0  0  0  0  0  0  0  0  0
    9.3237    1.8913    3.6521 H   0  0  0  0  0  0  0  0  0  0  0  0
    8.1955    1.8492    6.0046 H   0  0  0  0  0  0  0  0  0  0  0  0
    1.6006   -2.2933    6.0954 H   0  0  0  0  0  0  0  0  0  0  0  0
   -0.2162   -3.3503    4.8353 H   0  0  0  0  0  0  0  0  0  0  0  0
   -2.8023   -1.0155    3.0530 H   0  0  0  0  0  0  0  0  0  0  0  0
   -3.3922   -2.3704    2.0918 H   0  0  0  0  0  0  0  0  0  0  0  0
   -4.0595   -2.6350    4.4223 H   0  0  0  0  0  0  0  0  0  0  0  0
   -2.3936   -2.5120    4.9752 H   0  0  0  0  0  0  0  0  0  0  0  0
   -2.9162   -3.9115    4.0256 H   0  0  0  0  0  0  0  0  0  0  0  0
   -1.1196   -4.4270    2.7455 H   0  0  0  0  0  0  0  0  0  0  0  0
   -1.8497   -4.0508    1.1837 H   0  0  0  0  0  0  0  0  0  0  0  0
    0.4208   -5.0302    0.9204 H   0  0  0  0  0  0  0  0  0  0  0  0
    0.3819   -3.3775    0.3017 H   0  0  0  0  0  0  0  0  0  0  0  0
    1.1119   -3.7121    1.8704 H   0  0  0  0  0  0  0  0  0  0  0  0
    1.9068    0.8167    3.1644 H   0  0  0  0  0  0  0  0  0  0  0  0
    0.8786    1.4528    0.9845 H   0  0  0  0  0  0  0  0  0  0  0  0
   -2.3965   -2.0724   -0.3488 H   0  0  0  0  0  0  0  0  0  0  0  0
   -3.0595   -1.7180   -2.7358 H   0  0  0  0  0  0  0  0  0  0  0  0
   -2.4445    1.1490   -5.8712 H   0  0  0  0  0  0  0  0  0  0  0  0
   -1.0141    2.4783   -4.4069 H   0  0  0  0  0  0  0  0  0  0  0  0
    1.1171    2.8787   -2.8097 H   0  0  0  0  0  0  0  0  0  0  0  0
    1.2334    1.1358   -3.0231 H   0  0  0  0  0  0  0  0  0  0  0  0
    2.2198    2.6235   -0.5502 H   0  0  0  0  0  0  0  0  0  0  0  0
    3.1922    2.0063   -1.8786 H   0  0  0  0  0  0  0  0  0  0  0  0
    2.3281    0.8836   -0.8350 H   0  0  0  0  0  0  0  0  0  0  0  0
   -1.0796    3.6965   -2.2027 H   0  0  0  0  0  0  0  0  0  0  0  0
   -2.0028    2.8726   -0.9481 H   0  0  0  0  0  0  0  0  0  0  0  0
    0.7099    4.2223   -0.5597 H   0  0  0  0  0  0  0  0  0  0  0  0
   -0.8578    4.8283   -0.0421 H   0  0  0  0  0  0  0  0  0  0  0  0
   -0.2011    3.3770    0.7032 H   0  0  0  0  0  0  0  0  0  0  0  0
   -4.0266   -2.0965   -4.6252 H   0  0  0  0  0  0  0  0  0  0  0  0
   -5.7166   -2.4101  -11.7023 H   0  0  0  0  0  0  0  0  0  0  0  0
   -6.1501   -3.7842   -9.5303 H   0  0  0  0  0  0  0  0  0  0  0  0
  1  2  2  0  0  0  0
  2  3  1  0  0  0  0
  3  4  2  0  0  0  0
  3  5  1  0  0  0  0
  5  6  1  0  0  0  0
  6  7  1  0  0  0  0
  7  8  2  0  0  0  0
  8  9  1  0  0  0  0
  9 10  1  0  0  0  0
 10 11  2  0  0  0  0
 11 12  1  0  0  0  0
 12 13  3  0  0  0  0
 11 14  1  0  0  0  0
 14 15  3  0  0  0  0
  1 16  1  0  0  0  0
 16 17  2  0  0  0  0
 17 18  1  0  0  0  0
 18 19  2  0  0  0  0
 19 20  1  0  0  0  0
 20 21  1  0  0  0  0
 21 22  1  0  0  0  0
 20 23  1  0  0  0  0
 23 24  1  0  0  0  0
 20 25  1  0  0  0  0
 25 26  2  0  0  0  0
 26 27  1  0  0  0  0
 27 28  2  0  0  0  0
 26 29  1  0  0  0  0
 29 30  2  0  0  0  0
 30 31  1  0  0  0  0
 31 32  2  0  0  0  0
 31 33  1  0  0  0  0
 33 34  2  0  0  0  0
 34 35  1  0  0  0  0
 35 36  2  0  0  0  0
 36 37  1  0  0  0  0
 37 38  2  0  0  0  0
 38 39  1  0  0  0  0
 39 40  1  0  0  0  0
 40 41  1  0  0  0  0
 39 42  1  0  0  0  0
 42 43  1  0  0  0  0
 35 44  1  0  0  0  0
 44 45  2  0  0  0  0
 45 46  1  0  0  0  0
 46 47  2  0  0  0  0
 46 48  1  0  0  0  0
 48 49  1  0  0  0  0
 49 50  1  0  0  0  0
 50 51  2  0  0  0  0
 51 52  1  0  0  0  0
 52 53  1  0  0  0  0
 53 54  2  0  0  0  0
 54 55  1  0  0  0  0
 55 56  3  0  0  0  0
 54 57  1  0  0  0  0
 57 58  3  0  0  0  0
 10  2  1  0  0  0  0
 28 16  1  0  0  0  0
 39 30  1  0  0  0  0
 53 45  1  0  0  0  0
  9  5  2  0  0  0  0
 27 19  1  0  0  0  0
 38 33  1  0  0  0  0
 52 48  2  0  0  0  0
 32 25  1  0  0  0  0
  1 59  1  0  0  0  0
  7 60  1  0  0  0  0
  8 61  1  0  0  0  0
 17 62  1  0  0  0  0
 18 63  1  0  0  0  0
 21 64  1  0  0  0  0
 21 65  1  0  0  0  0
 22 66  1  0  0  0  0
 22 67  1  0  0  0  0
 22 68  1  0  0  0  0
 23 69  1  0  0  0  0
 23 70  1  0  0  0  0
 24 71  1  0  0  0  0
 24 72  1  0  0  0  0
 24 73  1  0  0  0  0
 28 74  1  0  0  0  0
 29 75  1  0  0  0  0
 32 76  1  0  0  0  0
 34 77  1  0  0  0  0
 36 78  1  0  0  0  0
 37 79  1  0  0  0  0
 40 80  1  0  0  0  0
 40 81  1  0  0  0  0
 41 82  1  0  0  0  0
 41 83  1  0  0  0  0
 41 84  1  0  0  0  0
 42 85  1  0  0  0  0
 42 86  1  0  0  0  0
 43 87  1  0  0  0  0
 43 88  1  0  0  0  0
 43 89  1  0  0  0  0
 44 90  1  0  0  0  0
 50 91  1  0  0  0  0
 51 92  1  0  0  0  0
M  END
