
  xtb     02012223383D
 energy: -179.652790910837 gnorm: 0.000541559247 xtb: 6.4.1 (unknown)
 97108  0     0  0            999 V2000
    4.9603   -0.6394   -6.6491 C   0  0  0  0  0  0  0  0  0  0  0  0
    6.0383    0.0104   -6.1329 C   0  0  0  0  0  0  0  0  0  0  0  0
    6.9332    0.7766   -7.0540 C   0  0  0  0  0  0  0  0  0  0  0  0
    6.9459    0.7220   -8.2626 O   0  0  0  0  0  0  0  0  0  0  0  0
    7.7155    1.6163   -6.1514 C   0  0  0  0  0  0  0  0  0  0  0  0
    8.8889    2.8496   -6.3100 S   0  0  0  0  0  0  0  0  0  0  0  0
    8.9961    2.9740   -4.5935 C   0  0  0  0  0  0  0  0  0  0  0  0
    8.1824    2.1090   -3.9228 C   0  0  0  0  0  0  0  0  0  0  0  0
    7.4344    1.3259   -4.8213 C   0  0  0  0  0  0  0  0  0  0  0  0
    6.4874    0.2278   -4.7714 C   0  0  0  0  0  0  0  0  0  0  0  0
    6.3022   -0.5915   -3.6884 C   0  0  0  0  0  0  0  0  0  0  0  0
    6.8407   -0.2855   -2.4231 C   0  0  0  0  0  0  0  0  0  0  0  0
    7.2459   -0.0356   -1.3786 N   0  0  0  0  0  0  0  0  0  0  0  0
    5.6535   -1.8411   -3.7481 C   0  0  0  0  0  0  0  0  0  0  0  0
    5.1864   -2.8896   -3.7712 N   0  0  0  0  0  0  0  0  0  0  0  0
    3.7752   -1.0643   -6.0087 C   0  0  0  0  0  0  0  0  0  0  0  0
    2.8455   -1.9664   -6.5087 C   0  0  0  0  0  0  0  0  0  0  0  0
    2.9767   -2.7193   -7.7915 C   0  0  0  0  0  0  0  0  0  0  0  0
    2.2866   -1.9621   -8.9294 C   0  0  0  0  0  0  0  0  0  0  0  0
    1.7424   -2.0888   -5.6582 C   0  0  0  0  0  0  0  0  0  0  0  0
    0.2963   -3.0677   -5.7414 S   0  0  0  0  0  0  0  0  0  0  0  0
   -0.2174   -2.3875   -4.2387 C   0  0  0  0  0  0  0  0  0  0  0  0
   -1.2758   -2.5063   -3.3283 C   0  0  0  0  0  0  0  0  0  0  0  0
   -2.3917   -3.3712   -3.3288 C   0  0  0  0  0  0  0  0  0  0  0  0
   -3.2763   -3.3566   -2.2030 C   0  0  0  0  0  0  0  0  0  0  0  0
   -4.2512   -4.2455   -2.3130 N   0  0  0  0  0  0  0  0  0  0  0  0
   -4.0710   -5.0315   -3.7161 S   0  0  0  0  0  0  0  0  0  0  0  0
   -2.7433   -4.2672   -4.2379 N   0  0  0  0  0  0  0  0  0  0  0  0
   -3.0550   -2.4116   -1.1775 C   0  0  0  0  0  0  0  0  0  0  0  0
   -3.8132   -2.1116   -0.0384 C   0  0  0  0  0  0  0  0  0  0  0  0
   -5.2332   -2.6712    0.7704 S   0  0  0  0  0  0  0  0  0  0  0  0
   -5.0290   -1.3976    1.9506 C   0  0  0  0  0  0  0  0  0  0  0  0
   -5.7801   -1.0229    3.0681 C   0  0  0  0  0  0  0  0  0  0  0  0
   -6.9692   -1.7775    3.5562 C   0  0  0  0  0  0  0  0  0  0  0  0
   -6.5515   -2.7731    4.6417 C   0  0  0  0  0  0  0  0  0  0  0  0
   -5.2106    0.0625    3.7234 C   0  0  0  0  0  0  0  0  0  0  0  0
   -3.7570    0.6410    2.9048 S   0  0  0  0  0  0  0  0  0  0  0  0
   -3.9061   -0.5939    1.7108 C   0  0  0  0  0  0  0  0  0  0  0  0
   -3.2080   -1.0075    0.5735 C   0  0  0  0  0  0  0  0  0  0  0  0
   -2.0932   -0.6365   -0.1277 N   0  0  0  0  0  0  0  0  0  0  0  0
   -1.9673   -1.4895   -1.2120 C   0  0  0  0  0  0  0  0  0  0  0  0
   -1.0107   -1.6029   -2.2571 C   0  0  0  0  0  0  0  0  0  0  0  0
    0.1984   -0.9736   -2.5130 N   0  0  0  0  0  0  0  0  0  0  0  0
    0.6750   -1.4520   -3.7037 C   0  0  0  0  0  0  0  0  0  0  0  0
    1.7987   -1.2789   -4.5164 C   0  0  0  0  0  0  0  0  0  0  0  0
    3.2434   -0.3402   -4.4896 S   0  0  0  0  0  0  0  0  0  0  0  0
    1.1088   -0.2899   -1.6197 C   0  0  0  0  0  0  0  0  0  0  0  0
    1.5304   -1.1844   -0.4571 C   0  0  0  0  0  0  0  0  0  0  0  0
   -1.4836    0.6475    0.1337 C   0  0  0  0  0  0  0  0  0  0  0  0
   -1.7792    1.6437   -0.9850 C   0  0  0  0  0  0  0  0  0  0  0  0
   -5.7352    0.7359    4.8455 C   0  0  0  0  0  0  0  0  0  0  0  0
   -5.1026    1.5744    5.7147 C   0  0  0  0  0  0  0  0  0  0  0  0
   -5.8848    2.5619    6.5009 C   0  0  0  0  0  0  0  0  0  0  0  0
   -7.0860    2.5905    6.6462 O   0  0  0  0  0  0  0  0  0  0  0  0
   -4.8831    3.5249    7.0080 C   0  0  0  0  0  0  0  0  0  0  0  0
   -5.0866    4.6997    7.7052 C   0  0  0  0  0  0  0  0  0  0  0  0
   -3.9925    5.4754    8.0736 C   0  0  0  0  0  0  0  0  0  0  0  0
   -4.1387    6.7547    8.8304 C   0  0  0  0  0  0  0  0  0  0  0  0
   -2.7234    5.0177    7.7127 C   0  0  0  0  0  0  0  0  0  0  0  0
   -1.6608    5.7709    8.0535 F   0  0  0  0  0  0  0  0  0  0  0  0
   -2.4888    3.8388    7.0239 C   0  0  0  0  0  0  0  0  0  0  0  0
   -3.5922    3.0823    6.6670 C   0  0  0  0  0  0  0  0  0  0  0  0
   -3.7011    1.7932    5.9908 C   0  0  0  0  0  0  0  0  0  0  0  0
   -2.7080    0.8520    5.9014 C   0  0  0  0  0  0  0  0  0  0  0  0
   -1.3618    1.0938    6.2353 C   0  0  0  0  0  0  0  0  0  0  0  0
   -0.2479    1.2508    6.4641 N   0  0  0  0  0  0  0  0  0  0  0  0
   -2.9625   -0.4896    5.5490 C   0  0  0  0  0  0  0  0  0  0  0  0
   -3.1567   -1.5986    5.3244 N   0  0  0  0  0  0  0  0  0  0  0  0
    4.9824   -0.7653   -7.7272 H   0  0  0  0  0  0  0  0  0  0  0  0
    9.6719    3.6902   -4.1684 H   0  0  0  0  0  0  0  0  0  0  0  0
    8.1226    2.0489   -2.8518 H   0  0  0  0  0  0  0  0  0  0  0  0
    2.5002   -3.6939   -7.6700 H   0  0  0  0  0  0  0  0  0  0  0  0
    4.0279   -2.8775   -8.0322 H   0  0  0  0  0  0  0  0  0  0  0  0
    2.3712   -2.5257   -9.8546 H   0  0  0  0  0  0  0  0  0  0  0  0
    1.2322   -1.8210   -8.7043 H   0  0  0  0  0  0  0  0  0  0  0  0
    2.7435   -0.9858   -9.0750 H   0  0  0  0  0  0  0  0  0  0  0  0
   -7.4101   -2.3179    2.7162 H   0  0  0  0  0  0  0  0  0  0  0  0
   -7.7143   -1.0894    3.9601 H   0  0  0  0  0  0  0  0  0  0  0  0
   -5.8225   -3.4759    4.2471 H   0  0  0  0  0  0  0  0  0  0  0  0
   -6.1000   -2.2516    5.4822 H   0  0  0  0  0  0  0  0  0  0  0  0
   -7.4178   -3.3270    4.9934 H   0  0  0  0  0  0  0  0  0  0  0  0
    0.6776    0.6489   -1.2734 H   0  0  0  0  0  0  0  0  0  0  0  0
    1.9906   -0.0357   -2.2131 H   0  0  0  0  0  0  0  0  0  0  0  0
    0.6692   -1.5220    0.1151 H   0  0  0  0  0  0  0  0  0  0  0  0
    2.2018   -0.6420    0.2029 H   0  0  0  0  0  0  0  0  0  0  0  0
    2.0526   -2.0607   -0.8343 H   0  0  0  0  0  0  0  0  0  0  0  0
   -0.4132    0.5357    0.3062 H   0  0  0  0  0  0  0  0  0  0  0  0
   -1.9199    1.0145    1.0661 H   0  0  0  0  0  0  0  0  0  0  0  0
   -2.8504    1.8202   -1.0511 H   0  0  0  0  0  0  0  0  0  0  0  0
   -1.4387    1.2687   -1.9474 H   0  0  0  0  0  0  0  0  0  0  0  0
   -1.2855    2.5896   -0.7798 H   0  0  0  0  0  0  0  0  0  0  0  0
   -6.8079    0.6476    4.9908 H   0  0  0  0  0  0  0  0  0  0  0  0
   -6.0895    5.0063    7.9604 H   0  0  0  0  0  0  0  0  0  0  0  0
   -3.6330    6.6805    9.7927 H   0  0  0  0  0  0  0  0  0  0  0  0
   -3.6719    7.5723    8.2822 H   0  0  0  0  0  0  0  0  0  0  0  0
   -5.1861    6.9880    8.9969 H   0  0  0  0  0  0  0  0  0  0  0  0
   -1.4780    3.5536    6.7815 H   0  0  0  0  0  0  0  0  0  0  0  0
  1  2  2  0  0  0  0
  2  3  1  0  0  0  0
  3  4  2  0  0  0  0
  3  5  1  0  0  0  0
  5  6  1  0  0  0  0
  6  7  1  0  0  0  0
  7  8  2  0  0  0  0
  8  9  1  0  0  0  0
  9 10  1  0  0  0  0
 10 11  2  0  0  0  0
 11 12  1  0  0  0  0
 12 13  3  0  0  0  0
 11 14  1  0  0  0  0
 14 15  3  0  0  0  0
  1 16  1  0  0  0  0
 16 17  2  0  0  0  0
 17 18  1  0  0  0  0
 18 19  1  0  0  0  0
 17 20  1  0  0  0  0
 20 21  1  0  0  0  0
 21 22  1  0  0  0  0
 22 23  1  0  0  0  0
 23 24  1  0  0  0  0
 24 25  1  0  0  0  0
 25 26  2  0  0  0  0
 26 27  1  0  0  0  0
 27 28  1  0  0  0  0
 25 29  1  0  0  0  0
 29 30  1  0  0  0  0
 30 31  1  0  0  0  0
 31 32  1  0  0  0  0
 32 33  1  0  0  0  0
 33 34  1  0  0  0  0
 34 35  1  0  0  0  0
 33 36  2  0  0  0  0
 36 37  1  0  0  0  0
 37 38  1  0  0  0  0
 38 39  1  0  0  0  0
 39 40  1  0  0  0  0
 40 41  1  0  0  0  0
 41 42  1  0  0  0  0
 42 43  1  0  0  0  0
 43 44  1  0  0  0  0
 44 45  1  0  0  0  0
 45 46  1  0  0  0  0
 43 47  1  0  0  0  0
 47 48  1  0  0  0  0
 40 49  1  0  0  0  0
 49 50  1  0  0  0  0
 36 51  1  0  0  0  0
 51 52  2  0  0  0  0
 52 53  1  0  0  0  0
 53 54  2  0  0  0  0
 53 55  1  0  0  0  0
 55 56  2  0  0  0  0
 56 57  1  0  0  0  0
 57 58  1  0  0  0  0
 57 59  2  0  0  0  0
 59 60  1  0  0  0  0
 59 61  1  0  0  0  0
 61 62  2  0  0  0  0
 62 63  1  0  0  0  0
 63 64  2  0  0  0  0
 64 65  1  0  0  0  0
 65 66  3  0  0  0  0
 64 67  1  0  0  0  0
 67 68  3  0  0  0  0
 10  2  1  0  0  0  0
 46 16  1  0  0  0  0
 63 52  1  0  0  0  0
  9  5  2  0  0  0  0
 45 20  2  0  0  0  0
 62 55  1  0  0  0  0
 44 22  2  0  0  0  0
 42 23  2  0  0  0  0
 28 24  2  0  0  0  0
 41 29  2  0  0  0  0
 39 30  2  0  0  0  0
 38 32  2  0  0  0  0
  1 69  1  0  0  0  0
  7 70  1  0  0  0  0
  8 71  1  0  0  0  0
 18 72  1  0  0  0  0
 18 73  1  0  0  0  0
 19 74  1  0  0  0  0
 19 75  1  0  0  0  0
 19 76  1  0  0  0  0
 34 77  1  0  0  0  0
 34 78  1  0  0  0  0
 35 79  1  0  0  0  0
 35 80  1  0  0  0  0
 35 81  1  0  0  0  0
 47 82  1  0  0  0  0
 47 83  1  0  0  0  0
 48 84  1  0  0  0  0
 48 85  1  0  0  0  0
 48 86  1  0  0  0  0
 49 87  1  0  0  0  0
 49 88  1  0  0  0  0
 50 89  1  0  0  0  0
 50 90  1  0  0  0  0
 50 91  1  0  0  0  0
 51 92  1  0  0  0  0
 56 93  1  0  0  0  0
 58 94  1  0  0  0  0
 58 95  1  0  0  0  0
 58 96  1  0  0  0  0
 61 97  1  0  0  0  0
M  END
