112

C         -6.17010       -4.98540       -3.75520
C         -6.55550       -6.15690       -3.18410
C         -7.18440       -7.21500       -4.03540
O         -7.61750       -7.08150       -5.15640
C         -7.09130       -8.41600       -3.21020
S         -7.45520      -10.07650       -3.39370
C         -6.91950      -10.37630       -1.78200
C         -6.49170       -9.26130       -1.12340
C         -6.58370       -8.12540       -1.94880
C         -6.37370       -6.69370       -1.84780
C         -6.31130       -5.99710       -0.66980
C         -6.19250       -6.65010        0.57320
N         -6.07070       -7.16660        1.59060
C         -6.46150       -4.59880       -0.57480
N         -6.64080       -3.47170       -0.45180
C         -5.23460       -4.02810       -3.29850
C         -5.12090       -2.73010       -3.76300
C         -4.08180       -2.04030       -3.14950
S         -3.48220       -0.41170       -3.26380
C         -2.27480       -0.79230       -2.08500
C         -1.21370       -0.07840       -1.44660
C         -0.78860        1.23900       -1.59760
C          0.29220        1.64120       -0.85000
C          0.97780        3.00070       -0.83420
C         -0.01290        4.09110       -0.47330
C         -0.80620        4.70000       -1.43820
C         -1.71640        5.68060       -1.08980
C         -1.86720        6.08210        0.23010
C         -2.87690        7.12660        0.60820
C         -4.22520        6.47750        0.92710
C         -1.09200        5.45570        1.19600
C         -0.18280        4.47340        0.85230
C          1.66060        3.21390       -2.20510
C          2.39160        4.54400       -2.32170
C          2.01520        2.77630        0.23270
C          1.98280        1.46400        0.67370
C          0.93520        0.73830        0.02690
C          0.51690       -0.58180        0.17080
C         -0.57480       -0.98440       -0.56490
C         -1.26620       -2.33570       -0.57900
C         -1.98350       -2.59430        0.76880
C         -1.05160       -2.95470        1.91720
C         -0.37780       -3.48390       -1.01800
C          0.83570       -3.24730       -1.65140
C          1.61820       -4.29750       -2.09510
C          1.21080       -5.61370       -1.92900
C          2.04130       -6.75010       -2.45110
C          1.66340       -7.06520       -3.89990
C         -0.01260       -5.84730       -1.31570
C         -0.79700       -4.80100       -0.86930
C         -2.32090       -2.09780       -1.62860
C         -3.34940       -2.81460       -2.23090
S         -3.97080       -4.41580       -2.13380
S          3.12530        1.09700        1.92060
C          3.64390        2.75520        1.89830
C          4.52630        3.48770        2.68250
C          4.54910        4.82460        2.32750
S          3.47960        5.16290        0.97390
C          2.96630        3.52090        0.93060
C          5.32580        5.87490        2.86830
C          5.86590        5.97170        4.11280
C          6.98040        6.94270        4.34780
O          7.35520        7.80950        3.59270
C          7.50670        6.55430        5.65260
S          8.80630        7.02930        6.65570
C          8.32690        5.86540        7.83430
C          7.21960        5.14880        7.48760
C          6.74430        5.54080        6.22190
C          5.63200        5.23460        5.34090
C          4.49370        4.58120        5.73630
C          3.29730        4.52010        4.99610
N          2.28240        4.47830        4.46100
C          4.39420        3.96770        7.00220
N          4.30440        3.43920        8.01660
H         -6.58540       -4.79530       -4.74070
H         -6.95790      -11.37880       -1.40290
H         -6.12660       -9.26340       -0.11300
H         -5.79390       -2.30780       -4.48660
H         -1.30350        1.90700       -2.27040
H         -0.71840        4.42300       -2.47750
H         -2.31540        6.14540       -1.86040
H         -3.00370        7.83420       -0.21390
H         -2.52740        7.67790        1.48330
H         -4.59640        5.93100        0.06290
H         -4.95670        7.23440        1.20030
H         -4.12200        5.77880        1.75420
H         -1.19410        5.74100        2.23290
H          0.39740        4.00600        1.63350
H          2.36570        2.39260       -2.35860
H          0.90460        3.13810       -2.98720
H          2.74350        4.68200       -3.34150
H          3.25220        4.57530       -1.65990
H          1.73330        5.37080       -2.06710
H          1.05020       -1.25470        0.82360
H         -2.70720       -3.39820        0.62240
H         -2.54870       -1.69470        1.02420
H         -0.37860       -3.76020        1.63210
H         -0.46270       -2.09640        2.22680
H         -1.63970       -3.28380        2.77070
H          1.17610       -2.23390       -1.80330
H          2.56170       -4.08830       -2.57890
H          1.88180       -7.63820       -1.83640
H          3.09990       -6.48710       -2.40440
H          2.26370       -7.88860       -4.27960
H          0.61320       -7.34110       -3.96530
H          1.82760       -6.19490       -4.53140
H         -0.35790       -6.86270       -1.18310
H         -1.74410       -5.02330       -0.40200
H          5.14870        3.06460        3.45020
H          5.57080        6.68950        2.19380
H          8.89920        5.77710        8.73700
H          6.78360        4.38460        8.10400
