
  xtb     01262217293D
 energy: -191.282959913749 gnorm: 0.000946691135 xtb: 6.4.1 (unknown)
112124  0     0  0            999 V2000
   -6.1701   -4.9854   -3.7552 C   0  0  0  0  0  0  0  0  0  0  0  0
   -6.5555   -6.1569   -3.1841 C   0  0  0  0  0  0  0  0  0  0  0  0
   -7.1844   -7.2150   -4.0354 C   0  0  0  0  0  0  0  0  0  0  0  0
   -7.6175   -7.0815   -5.1564 O   0  0  0  0  0  0  0  0  0  0  0  0
   -7.0913   -8.4160   -3.2102 C   0  0  0  0  0  0  0  0  0  0  0  0
   -7.4552  -10.0765   -3.3937 S   0  0  0  0  0  0  0  0  0  0  0  0
   -6.9195  -10.3763   -1.7820 C   0  0  0  0  0  0  0  0  0  0  0  0
   -6.4917   -9.2613   -1.1234 C   0  0  0  0  0  0  0  0  0  0  0  0
   -6.5837   -8.1254   -1.9488 C   0  0  0  0  0  0  0  0  0  0  0  0
   -6.3737   -6.6937   -1.8478 C   0  0  0  0  0  0  0  0  0  0  0  0
   -6.3113   -5.9971   -0.6698 C   0  0  0  0  0  0  0  0  0  0  0  0
   -6.1925   -6.6501    0.5732 C   0  0  0  0  0  0  0  0  0  0  0  0
   -6.0707   -7.1666    1.5906 N   0  0  0  0  0  0  0  0  0  0  0  0
   -6.4615   -4.5988   -0.5748 C   0  0  0  0  0  0  0  0  0  0  0  0
   -6.6408   -3.4717   -0.4518 N   0  0  0  0  0  0  0  0  0  0  0  0
   -5.2346   -4.0281   -3.2985 C   0  0  0  0  0  0  0  0  0  0  0  0
   -5.1209   -2.7301   -3.7630 C   0  0  0  0  0  0  0  0  0  0  0  0
   -4.0818   -2.0403   -3.1495 C   0  0  0  0  0  0  0  0  0  0  0  0
   -3.4822   -0.4117   -3.2638 S   0  0  0  0  0  0  0  0  0  0  0  0
   -2.2748   -0.7923   -2.0850 C   0  0  0  0  0  0  0  0  0  0  0  0
   -1.2137   -0.0784   -1.4466 C   0  0  0  0  0  0  0  0  0  0  0  0
   -0.7886    1.2390   -1.5976 C   0  0  0  0  0  0  0  0  0  0  0  0
    0.2922    1.6412   -0.8500 C   0  0  0  0  0  0  0  0  0  0  0  0
    0.9778    3.0007   -0.8342 C   0  0  0  0  0  0  0  0  0  0  0  0
   -0.0129    4.0911   -0.4733 C   0  0  0  0  0  0  0  0  0  0  0  0
   -0.8062    4.7000   -1.4382 C   0  0  0  0  0  0  0  0  0  0  0  0
   -1.7164    5.6806   -1.0898 C   0  0  0  0  0  0  0  0  0  0  0  0
   -1.8672    6.0821    0.2301 C   0  0  0  0  0  0  0  0  0  0  0  0
   -2.8769    7.1266    0.6082 C   0  0  0  0  0  0  0  0  0  0  0  0
   -4.2252    6.4775    0.9271 C   0  0  0  0  0  0  0  0  0  0  0  0
   -1.0920    5.4557    1.1960 C   0  0  0  0  0  0  0  0  0  0  0  0
   -0.1828    4.4734    0.8523 C   0  0  0  0  0  0  0  0  0  0  0  0
    1.6606    3.2139   -2.2051 C   0  0  0  0  0  0  0  0  0  0  0  0
    2.3916    4.5440   -2.3217 C   0  0  0  0  0  0  0  0  0  0  0  0
    2.0152    2.7763    0.2327 C   0  0  0  0  0  0  0  0  0  0  0  0
    1.9828    1.4640    0.6737 C   0  0  0  0  0  0  0  0  0  0  0  0
    0.9352    0.7383    0.0269 C   0  0  0  0  0  0  0  0  0  0  0  0
    0.5169   -0.5818    0.1708 C   0  0  0  0  0  0  0  0  0  0  0  0
   -0.5748   -0.9844   -0.5649 C   0  0  0  0  0  0  0  0  0  0  0  0
   -1.2662   -2.3357   -0.5790 C   0  0  0  0  0  0  0  0  0  0  0  0
   -1.9835   -2.5943    0.7688 C   0  0  0  0  0  0  0  0  0  0  0  0
   -1.0516   -2.9547    1.9172 C   0  0  0  0  0  0  0  0  0  0  0  0
   -0.3778   -3.4839   -1.0180 C   0  0  0  0  0  0  0  0  0  0  0  0
    0.8357   -3.2473   -1.6514 C   0  0  0  0  0  0  0  0  0  0  0  0
    1.6182   -4.2975   -2.0951 C   0  0  0  0  0  0  0  0  0  0  0  0
    1.2108   -5.6137   -1.9290 C   0  0  0  0  0  0  0  0  0  0  0  0
    2.0413   -6.7501   -2.4511 C   0  0  0  0  0  0  0  0  0  0  0  0
    1.6634   -7.0652   -3.8999 C   0  0  0  0  0  0  0  0  0  0  0  0
   -0.0126   -5.8473   -1.3157 C   0  0  0  0  0  0  0  0  0  0  0  0
   -0.7970   -4.8010   -0.8693 C   0  0  0  0  0  0  0  0  0  0  0  0
   -2.3209   -2.0978   -1.6286 C   0  0  0  0  0  0  0  0  0  0  0  0
   -3.3494   -2.8146   -2.2309 C   0  0  0  0  0  0  0  0  0  0  0  0
   -3.9708   -4.4158   -2.1338 S   0  0  0  0  0  0  0  0  0  0  0  0
    3.1253    1.0970    1.9206 S   0  0  0  0  0  0  0  0  0  0  0  0
    3.6439    2.7552    1.8983 C   0  0  0  0  0  0  0  0  0  0  0  0
    4.5263    3.4877    2.6825 C   0  0  0  0  0  0  0  0  0  0  0  0
    4.5491    4.8246    2.3275 C   0  0  0  0  0  0  0  0  0  0  0  0
    3.4796    5.1629    0.9739 S   0  0  0  0  0  0  0  0  0  0  0  0
    2.9663    3.5209    0.9306 C   0  0  0  0  0  0  0  0  0  0  0  0
    5.3258    5.8749    2.8683 C   0  0  0  0  0  0  0  0  0  0  0  0
    5.8659    5.9717    4.1128 C   0  0  0  0  0  0  0  0  0  0  0  0
    6.9804    6.9427    4.3478 C   0  0  0  0  0  0  0  0  0  0  0  0
    7.3552    7.8095    3.5927 O   0  0  0  0  0  0  0  0  0  0  0  0
    7.5067    6.5543    5.6526 C   0  0  0  0  0  0  0  0  0  0  0  0
    8.8063    7.0293    6.6557 S   0  0  0  0  0  0  0  0  0  0  0  0
    8.3269    5.8654    7.8343 C   0  0  0  0  0  0  0  0  0  0  0  0
    7.2196    5.1488    7.4876 C   0  0  0  0  0  0  0  0  0  0  0  0
    6.7443    5.5408    6.2219 C   0  0  0  0  0  0  0  0  0  0  0  0
    5.6320    5.2346    5.3409 C   0  0  0  0  0  0  0  0  0  0  0  0
    4.4937    4.5812    5.7363 C   0  0  0  0  0  0  0  0  0  0  0  0
    3.2973    4.5201    4.9961 C   0  0  0  0  0  0  0  0  0  0  0  0
    2.2824    4.4783    4.4610 N   0  0  0  0  0  0  0  0  0  0  0  0
    4.3942    3.9677    7.0022 C   0  0  0  0  0  0  0  0  0  0  0  0
    4.3044    3.4392    8.0166 N   0  0  0  0  0  0  0  0  0  0  0  0
   -6.5854   -4.7953   -4.7407 H   0  0  0  0  0  0  0  0  0  0  0  0
   -6.9579  -11.3788   -1.4029 H   0  0  0  0  0  0  0  0  0  0  0  0
   -6.1266   -9.2634   -0.1130 H   0  0  0  0  0  0  0  0  0  0  0  0
   -5.7939   -2.3078   -4.4866 H   0  0  0  0  0  0  0  0  0  0  0  0
   -1.3035    1.9070   -2.2704 H   0  0  0  0  0  0  0  0  0  0  0  0
   -0.7184    4.4230   -2.4775 H   0  0  0  0  0  0  0  0  0  0  0  0
   -2.3154    6.1454   -1.8604 H   0  0  0  0  0  0  0  0  0  0  0  0
   -3.0037    7.8342   -0.2139 H   0  0  0  0  0  0  0  0  0  0  0  0
   -2.5274    7.6779    1.4833 H   0  0  0  0  0  0  0  0  0  0  0  0
   -4.5964    5.9310    0.0629 H   0  0  0  0  0  0  0  0  0  0  0  0
   -4.9567    7.2344    1.2003 H   0  0  0  0  0  0  0  0  0  0  0  0
   -4.1220    5.7788    1.7542 H   0  0  0  0  0  0  0  0  0  0  0  0
   -1.1941    5.7410    2.2329 H   0  0  0  0  0  0  0  0  0  0  0  0
    0.3974    4.0060    1.6335 H   0  0  0  0  0  0  0  0  0  0  0  0
    2.3657    2.3926   -2.3586 H   0  0  0  0  0  0  0  0  0  0  0  0
    0.9046    3.1381   -2.9872 H   0  0  0  0  0  0  0  0  0  0  0  0
    2.7435    4.6820   -3.3415 H   0  0  0  0  0  0  0  0  0  0  0  0
    3.2522    4.5753   -1.6599 H   0  0  0  0  0  0  0  0  0  0  0  0
    1.7333    5.3708   -2.0671 H   0  0  0  0  0  0  0  0  0  0  0  0
    1.0502   -1.2547    0.8236 H   0  0  0  0  0  0  0  0  0  0  0  0
   -2.7072   -3.3982    0.6224 H   0  0  0  0  0  0  0  0  0  0  0  0
   -2.5487   -1.6947    1.0242 H   0  0  0  0  0  0  0  0  0  0  0  0
   -0.3786   -3.7602    1.6321 H   0  0  0  0  0  0  0  0  0  0  0  0
   -0.4627   -2.0964    2.2268 H   0  0  0  0  0  0  0  0  0  0  0  0
   -1.6397   -3.2838    2.7707 H   0  0  0  0  0  0  0  0  0  0  0  0
    1.1761   -2.2339   -1.8033 H   0  0  0  0  0  0  0  0  0  0  0  0
    2.5617   -4.0883   -2.5789 H   0  0  0  0  0  0  0  0  0  0  0  0
    1.8818   -7.6382   -1.8364 H   0  0  0  0  0  0  0  0  0  0  0  0
    3.0999   -6.4871   -2.4044 H   0  0  0  0  0  0  0  0  0  0  0  0
    2.2637   -7.8886   -4.2796 H   0  0  0  0  0  0  0  0  0  0  0  0
    0.6132   -7.3411   -3.9653 H   0  0  0  0  0  0  0  0  0  0  0  0
    1.8276   -6.1949   -4.5314 H   0  0  0  0  0  0  0  0  0  0  0  0
   -0.3579   -6.8627   -1.1831 H   0  0  0  0  0  0  0  0  0  0  0  0
   -1.7441   -5.0233   -0.4020 H   0  0  0  0  0  0  0  0  0  0  0  0
    5.1487    3.0646    3.4502 H   0  0  0  0  0  0  0  0  0  0  0  0
    5.5708    6.6895    2.1938 H   0  0  0  0  0  0  0  0  0  0  0  0
    8.8992    5.7771    8.7370 H   0  0  0  0  0  0  0  0  0  0  0  0
    6.7836    4.3846    8.1040 H   0  0  0  0  0  0  0  0  0  0  0  0
  1  2  2  0  0  0  0
  2  3  1  0  0  0  0
  3  4  2  0  0  0  0
  3  5  1  0  0  0  0
  5  6  1  0  0  0  0
  6  7  1  0  0  0  0
  7  8  2  0  0  0  0
  8  9  1  0  0  0  0
  9 10  1  0  0  0  0
 10 11  2  0  0  0  0
 11 12  1  0  0  0  0
 12 13  3  0  0  0  0
 11 14  1  0  0  0  0
 14 15  3  0  0  0  0
  1 16  1  0  0  0  0
 16 17  2  0  0  0  0
 17 18  1  0  0  0  0
 18 19  1  0  0  0  0
 19 20  1  0  0  0  0
 20 21  1  0  0  0  0
 21 22  2  0  0  0  0
 22 23  1  0  0  0  0
 23 24  1  0  0  0  0
 24 25  1  0  0  0  0
 25 26  2  0  0  0  0
 26 27  1  0  0  0  0
 27 28  2  0  0  0  0
 28 29  1  0  0  0  0
 29 30  1  0  0  0  0
 28 31  1  0  0  0  0
 31 32  2  0  0  0  0
 24 33  1  0  0  0  0
 33 34  1  0  0  0  0
 24 35  1  0  0  0  0
 35 36  2  0  0  0  0
 36 37  1  0  0  0  0
 37 38  1  0  0  0  0
 38 39  2  0  0  0  0
 39 40  1  0  0  0  0
 40 41  1  0  0  0  0
 41 42  1  0  0  0  0
 40 43  1  0  0  0  0
 43 44  2  0  0  0  0
 44 45  1  0  0  0  0
 45 46  2  0  0  0  0
 46 47  1  0  0  0  0
 47 48  1  0  0  0  0
 46 49  1  0  0  0  0
 49 50  2  0  0  0  0
 40 51  1  0  0  0  0
 51 52  1  0  0  0  0
 52 53  1  0  0  0  0
 36 54  1  0  0  0  0
 54 55  1  0  0  0  0
 55 56  1  0  0  0  0
 56 57  2  0  0  0  0
 57 58  1  0  0  0  0
 58 59  1  0  0  0  0
 57 60  1  0  0  0  0
 60 61  2  0  0  0  0
 61 62  1  0  0  0  0
 62 63  2  0  0  0  0
 62 64  1  0  0  0  0
 64 65  1  0  0  0  0
 65 66  1  0  0  0  0
 66 67  2  0  0  0  0
 67 68  1  0  0  0  0
 68 69  1  0  0  0  0
 69 70  2  0  0  0  0
 70 71  1  0  0  0  0
 71 72  3  0  0  0  0
 70 73  1  0  0  0  0
 73 74  3  0  0  0  0
 10  2  1  0  0  0  0
 53 16  1  0  0  0  0
 59 55  2  0  0  0  0
 69 61  1  0  0  0  0
  9  5  2  0  0  0  0
 52 18  2  0  0  0  0
 68 64  2  0  0  0  0
 51 20  2  0  0  0  0
 39 21  1  0  0  0  0
 50 43  1  0  0  0  0
 37 23  2  0  0  0  0
 32 25  1  0  0  0  0
 59 35  1  0  0  0  0
  1 75  1  0  0  0  0
  7 76  1  0  0  0  0
  8 77  1  0  0  0  0
 17 78  1  0  0  0  0
 22 79  1  0  0  0  0
 26 80  1  0  0  0  0
 27 81  1  0  0  0  0
 29 82  1  0  0  0  0
 29 83  1  0  0  0  0
 30 84  1  0  0  0  0
 30 85  1  0  0  0  0
 30 86  1  0  0  0  0
 31 87  1  0  0  0  0
 32 88  1  0  0  0  0
 33 89  1  0  0  0  0
 33 90  1  0  0  0  0
 34 91  1  0  0  0  0
 34 92  1  0  0  0  0
 34 93  1  0  0  0  0
 38 94  1  0  0  0  0
 41 95  1  0  0  0  0
 41 96  1  0  0  0  0
 42 97  1  0  0  0  0
 42 98  1  0  0  0  0
 42 99  1  0  0  0  0
 44100  1  0  0  0  0
 45101  1  0  0  0  0
 47102  1  0  0  0  0
 47103  1  0  0  0  0
 48104  1  0  0  0  0
 48105  1  0  0  0  0
 48106  1  0  0  0  0
 49107  1  0  0  0  0
 50108  1  0  0  0  0
 56109  1  0  0  0  0
 60110  1  0  0  0  0
 66111  1  0  0  0  0
 67112  1  0  0  0  0
M  END
