116

C          0.05150        2.94990       -8.93630
C         -0.96530        2.36420       -9.64780
C         -2.09230        1.59060       -9.09530
O         -2.31070        1.31760       -7.92790
C         -2.88900        1.22220      -10.26010
S         -4.33070        0.35190      -10.55000
C         -4.16520        0.63890      -12.24240
C         -3.05990        1.36500      -12.57570
C         -2.31740        1.70540      -11.42860
C         -1.10320        2.42660      -11.09160
C         -0.27900        3.02420      -12.01150
C         -0.56120        2.98080      -13.39260
N         -0.77010        2.95820      -14.52090
C          0.90800        3.72720      -11.73060
N          1.88450        4.31260      -11.57320
C          0.32490        2.97310       -7.56520
C          1.42030        3.66010       -7.01310
C          2.40120        4.49230       -7.77270
C          1.84860        5.89840       -8.02040
C          1.46480        3.51560       -5.63330
C          0.43350        2.71720       -5.10650
S         -0.63150        2.14700       -6.33400
C          0.54750        2.59990       -3.71960
C          1.65340        3.29110       -3.21060
S          2.57230        4.12210       -4.41550
C          1.70220        3.03520       -1.83350
C          2.69370        3.38930       -0.88270
N          3.73140        4.16310       -1.22300
C          4.64700        4.40310       -0.30820
C          5.79220        5.27300       -0.70800
C          4.54560        3.85520        0.99550
C          5.58420        4.10920        2.03720
N          3.52400        3.10070        1.34160
C          2.58270        2.86010        0.42090
C          1.42720        2.10100        0.73880
C          1.03380        1.54460        1.96610
S          1.63860        1.37120        3.57310
C          0.16690        0.53570        4.01800
C         -0.25380       -0.08380        5.20400
C          0.47090        0.03090        6.50290
C          0.75270        1.48740        6.87020
C         -1.49010       -0.69340        5.03530
S         -2.16780       -0.41020        3.42970
C         -0.73870        0.42480        2.95320
C         -0.23820        0.99660        1.78020
N         -0.64060        1.16120        0.47790
C         -2.06100        1.15640        0.19850
C         -2.66390        2.54310        0.41500
C          0.37930        1.83130       -0.18460
C          0.57890        2.21020       -1.53240
N         -0.09720        1.94300       -2.70510
C         -1.08350        0.93470       -3.01810
C         -2.45850        1.54030       -3.29480
C         -2.27070       -1.45940        5.92910
C         -1.79120       -2.35670        6.84210
C         -0.45570       -2.99550        6.76350
O          0.45760       -2.72350        6.01200
C         -0.50160       -4.12330        7.71370
C          0.51310       -5.04520        7.95800
C          0.19090       -5.99650        8.89570
C         -1.05530       -6.03810        9.53550
C         -2.06880       -5.14060        9.29670
C         -1.75710       -4.15750        8.35320
C         -2.56330       -3.04910        7.85170
C         -3.79750       -2.67110        8.31460
C         -4.51740       -3.35030        9.31800
N         -5.15750       -3.85940       10.12420
C         -4.49570       -1.52760        7.87300
N         -5.10790       -0.60100        7.57960
C         -0.68440       -7.25100       10.35180
C         -0.31680       -7.03320       11.84040
C          0.20590       -5.62240       11.95090
C          1.38620       -5.57960       11.34740
C          1.68300       -6.96090       10.81790
C          1.00430       -7.81690       11.89910
C          0.70500       -7.20210        9.64140
H          0.77600        3.49670       -9.52510
H         -4.90850        0.24670      -12.90850
H         -2.80420        1.63350      -13.58370
H          3.31410        4.56800       -7.17860
H          2.65230        4.02850       -8.72780
H          1.63100        6.39060       -7.07550
H          0.93480        5.85520       -8.60850
H          2.57950        6.49050       -8.56370
H          5.83370        6.16040       -0.07800
H          5.66690        5.57220       -1.74460
H          6.73410        4.73770       -0.59740
H          6.55530        3.74760        1.70240
H          5.67260        5.17670        2.23440
H          5.30390        3.59540        2.95220
H          1.41040       -0.52210        6.42660
H         -0.12460       -0.42940        7.29220
H          1.23140        1.53160        7.84510
H         -0.17650        2.05180        6.91660
H          1.40960        1.95660        6.14330
H         -2.26230        0.81560       -0.81200
H         -2.51550        0.44380        0.89180
H         -3.73160        2.51890        0.21530
H         -2.19600        3.26990       -0.24650
H         -2.51040        2.86580        1.44210
H         -1.10570        0.20150       -2.21050
H         -0.74700        0.41620       -3.92260
H         -2.77760        2.19190       -2.48560
H         -3.19080        0.74820       -3.42330
H         -2.42650        2.12280       -4.21150
H         -3.34420       -1.36630        5.80870
H          1.45630       -4.98120        7.43830
H         -3.02670       -5.19040        9.78740
H         -1.30290       -8.13370       10.20190
H         -1.09700       -7.31230       12.54330
H         -0.34520       -4.81290       12.39250
H          2.01870       -4.72670       11.18360
H          2.72420       -7.17440       10.59040
H          0.90010       -8.86470       11.62080
H          1.49670       -7.74060       12.86740
H          0.99520       -8.05390        9.02920
