
  xtb     02022218593D
 energy: -198.681717550638 gnorm: 0.000514561494 xtb: 6.4.1 (unknown)
116130  0     0  0            999 V2000
    0.0515    2.9499   -8.9363 C   0  0  0  0  0  0  0  0  0  0  0  0
   -0.9653    2.3642   -9.6478 C   0  0  0  0  0  0  0  0  0  0  0  0
   -2.0923    1.5906   -9.0953 C   0  0  0  0  0  0  0  0  0  0  0  0
   -2.3107    1.3176   -7.9279 O   0  0  0  0  0  0  0  0  0  0  0  0
   -2.8890    1.2222  -10.2601 C   0  0  0  0  0  0  0  0  0  0  0  0
   -4.3307    0.3519  -10.5500 S   0  0  0  0  0  0  0  0  0  0  0  0
   -4.1652    0.6389  -12.2424 C   0  0  0  0  0  0  0  0  0  0  0  0
   -3.0599    1.3650  -12.5757 C   0  0  0  0  0  0  0  0  0  0  0  0
   -2.3174    1.7054  -11.4286 C   0  0  0  0  0  0  0  0  0  0  0  0
   -1.1032    2.4266  -11.0916 C   0  0  0  0  0  0  0  0  0  0  0  0
   -0.2790    3.0242  -12.0115 C   0  0  0  0  0  0  0  0  0  0  0  0
   -0.5612    2.9808  -13.3926 C   0  0  0  0  0  0  0  0  0  0  0  0
   -0.7701    2.9582  -14.5209 N   0  0  0  0  0  0  0  0  0  0  0  0
    0.9080    3.7272  -11.7306 C   0  0  0  0  0  0  0  0  0  0  0  0
    1.8845    4.3126  -11.5732 N   0  0  0  0  0  0  0  0  0  0  0  0
    0.3249    2.9731   -7.5652 C   0  0  0  0  0  0  0  0  0  0  0  0
    1.4203    3.6601   -7.0131 C   0  0  0  0  0  0  0  0  0  0  0  0
    2.4012    4.4923   -7.7727 C   0  0  0  0  0  0  0  0  0  0  0  0
    1.8486    5.8984   -8.0204 C   0  0  0  0  0  0  0  0  0  0  0  0
    1.4648    3.5156   -5.6333 C   0  0  0  0  0  0  0  0  0  0  0  0
    0.4335    2.7172   -5.1065 C   0  0  0  0  0  0  0  0  0  0  0  0
   -0.6315    2.1470   -6.3340 S   0  0  0  0  0  0  0  0  0  0  0  0
    0.5475    2.5999   -3.7196 C   0  0  0  0  0  0  0  0  0  0  0  0
    1.6534    3.2911   -3.2106 C   0  0  0  0  0  0  0  0  0  0  0  0
    2.5723    4.1221   -4.4155 S   0  0  0  0  0  0  0  0  0  0  0  0
    1.7022    3.0352   -1.8335 C   0  0  0  0  0  0  0  0  0  0  0  0
    2.6937    3.3893   -0.8827 C   0  0  0  0  0  0  0  0  0  0  0  0
    3.7314    4.1631   -1.2230 N   0  0  0  0  0  0  0  0  0  0  0  0
    4.6470    4.4031   -0.3082 C   0  0  0  0  0  0  0  0  0  0  0  0
    5.7922    5.2730   -0.7080 C   0  0  0  0  0  0  0  0  0  0  0  0
    4.5456    3.8552    0.9955 C   0  0  0  0  0  0  0  0  0  0  0  0
    5.5842    4.1092    2.0372 C   0  0  0  0  0  0  0  0  0  0  0  0
    3.5240    3.1007    1.3416 N   0  0  0  0  0  0  0  0  0  0  0  0
    2.5827    2.8601    0.4209 C   0  0  0  0  0  0  0  0  0  0  0  0
    1.4272    2.1010    0.7388 C   0  0  0  0  0  0  0  0  0  0  0  0
    1.0338    1.5446    1.9661 C   0  0  0  0  0  0  0  0  0  0  0  0
    1.6386    1.3712    3.5731 S   0  0  0  0  0  0  0  0  0  0  0  0
    0.1669    0.5357    4.0180 C   0  0  0  0  0  0  0  0  0  0  0  0
   -0.2538   -0.0838    5.2040 C   0  0  0  0  0  0  0  0  0  0  0  0
    0.4709    0.0309    6.5029 C   0  0  0  0  0  0  0  0  0  0  0  0
    0.7527    1.4874    6.8702 C   0  0  0  0  0  0  0  0  0  0  0  0
   -1.4901   -0.6934    5.0353 C   0  0  0  0  0  0  0  0  0  0  0  0
   -2.1678   -0.4102    3.4297 S   0  0  0  0  0  0  0  0  0  0  0  0
   -0.7387    0.4248    2.9532 C   0  0  0  0  0  0  0  0  0  0  0  0
   -0.2382    0.9966    1.7802 C   0  0  0  0  0  0  0  0  0  0  0  0
   -0.6406    1.1612    0.4779 N   0  0  0  0  0  0  0  0  0  0  0  0
   -2.0610    1.1564    0.1985 C   0  0  0  0  0  0  0  0  0  0  0  0
   -2.6639    2.5431    0.4150 C   0  0  0  0  0  0  0  0  0  0  0  0
    0.3793    1.8313   -0.1846 C   0  0  0  0  0  0  0  0  0  0  0  0
    0.5789    2.2102   -1.5324 C   0  0  0  0  0  0  0  0  0  0  0  0
   -0.0972    1.9430   -2.7051 N   0  0  0  0  0  0  0  0  0  0  0  0
   -1.0835    0.9347   -3.0181 C   0  0  0  0  0  0  0  0  0  0  0  0
   -2.4585    1.5403   -3.2948 C   0  0  0  0  0  0  0  0  0  0  0  0
   -2.2707   -1.4594    5.9291 C   0  0  0  0  0  0  0  0  0  0  0  0
   -1.7912   -2.3567    6.8421 C   0  0  0  0  0  0  0  0  0  0  0  0
   -0.4557   -2.9955    6.7635 C   0  0  0  0  0  0  0  0  0  0  0  0
    0.4576   -2.7235    6.0120 O   0  0  0  0  0  0  0  0  0  0  0  0
   -0.5016   -4.1233    7.7137 C   0  0  0  0  0  0  0  0  0  0  0  0
    0.5131   -5.0452    7.9580 C   0  0  0  0  0  0  0  0  0  0  0  0
    0.1909   -5.9965    8.8957 C   0  0  0  0  0  0  0  0  0  0  0  0
   -1.0553   -6.0381    9.5355 C   0  0  0  0  0  0  0  0  0  0  0  0
   -2.0688   -5.1406    9.2967 C   0  0  0  0  0  0  0  0  0  0  0  0
   -1.7571   -4.1575    8.3532 C   0  0  0  0  0  0  0  0  0  0  0  0
   -2.5633   -3.0491    7.8517 C   0  0  0  0  0  0  0  0  0  0  0  0
   -3.7975   -2.6711    8.3146 C   0  0  0  0  0  0  0  0  0  0  0  0
   -4.5174   -3.3503    9.3180 C   0  0  0  0  0  0  0  0  0  0  0  0
   -5.1575   -3.8594   10.1242 N   0  0  0  0  0  0  0  0  0  0  0  0
   -4.4957   -1.5276    7.8730 C   0  0  0  0  0  0  0  0  0  0  0  0
   -5.1079   -0.6010    7.5796 N   0  0  0  0  0  0  0  0  0  0  0  0
   -0.6844   -7.2510   10.3518 C   0  0  0  0  0  0  0  0  0  0  0  0
   -0.3168   -7.0332   11.8404 C   0  0  0  0  0  0  0  0  0  0  0  0
    0.2059   -5.6224   11.9509 C   0  0  0  0  0  0  0  0  0  0  0  0
    1.3862   -5.5796   11.3474 C   0  0  0  0  0  0  0  0  0  0  0  0
    1.6830   -6.9609   10.8179 C   0  0  0  0  0  0  0  0  0  0  0  0
    1.0043   -7.8169   11.8991 C   0  0  0  0  0  0  0  0  0  0  0  0
    0.7050   -7.2021    9.6414 C   0  0  0  0  0  0  0  0  0  0  0  0
    0.7760    3.4967   -9.5251 H   0  0  0  0  0  0  0  0  0  0  0  0
   -4.9085    0.2467  -12.9085 H   0  0  0  0  0  0  0  0  0  0  0  0
   -2.8042    1.6335  -13.5837 H   0  0  0  0  0  0  0  0  0  0  0  0
    3.3141    4.5680   -7.1786 H   0  0  0  0  0  0  0  0  0  0  0  0
    2.6523    4.0285   -8.7278 H   0  0  0  0  0  0  0  0  0  0  0  0
    1.6310    6.3906   -7.0755 H   0  0  0  0  0  0  0  0  0  0  0  0
    0.9348    5.8552   -8.6085 H   0  0  0  0  0  0  0  0  0  0  0  0
    2.5795    6.4905   -8.5637 H   0  0  0  0  0  0  0  0  0  0  0  0
    5.8337    6.1604   -0.0780 H   0  0  0  0  0  0  0  0  0  0  0  0
    5.6669    5.5722   -1.7446 H   0  0  0  0  0  0  0  0  0  0  0  0
    6.7341    4.7377   -0.5974 H   0  0  0  0  0  0  0  0  0  0  0  0
    6.5553    3.7476    1.7024 H   0  0  0  0  0  0  0  0  0  0  0  0
    5.6726    5.1767    2.2344 H   0  0  0  0  0  0  0  0  0  0  0  0
    5.3039    3.5954    2.9522 H   0  0  0  0  0  0  0  0  0  0  0  0
    1.4104   -0.5221    6.4266 H   0  0  0  0  0  0  0  0  0  0  0  0
   -0.1246   -0.4294    7.2922 H   0  0  0  0  0  0  0  0  0  0  0  0
    1.2314    1.5316    7.8451 H   0  0  0  0  0  0  0  0  0  0  0  0
   -0.1765    2.0518    6.9166 H   0  0  0  0  0  0  0  0  0  0  0  0
    1.4096    1.9566    6.1433 H   0  0  0  0  0  0  0  0  0  0  0  0
   -2.2623    0.8156   -0.8120 H   0  0  0  0  0  0  0  0  0  0  0  0
   -2.5155    0.4438    0.8918 H   0  0  0  0  0  0  0  0  0  0  0  0
   -3.7316    2.5189    0.2153 H   0  0  0  0  0  0  0  0  0  0  0  0
   -2.1960    3.2699   -0.2465 H   0  0  0  0  0  0  0  0  0  0  0  0
   -2.5104    2.8658    1.4421 H   0  0  0  0  0  0  0  0  0  0  0  0
   -1.1057    0.2015   -2.2105 H   0  0  0  0  0  0  0  0  0  0  0  0
   -0.7470    0.4162   -3.9226 H   0  0  0  0  0  0  0  0  0  0  0  0
   -2.7776    2.1919   -2.4856 H   0  0  0  0  0  0  0  0  0  0  0  0
   -3.1908    0.7482   -3.4233 H   0  0  0  0  0  0  0  0  0  0  0  0
   -2.4265    2.1228   -4.2115 H   0  0  0  0  0  0  0  0  0  0  0  0
   -3.3442   -1.3663    5.8087 H   0  0  0  0  0  0  0  0  0  0  0  0
    1.4563   -4.9812    7.4383 H   0  0  0  0  0  0  0  0  0  0  0  0
   -3.0267   -5.1904    9.7874 H   0  0  0  0  0  0  0  0  0  0  0  0
   -1.3029   -8.1337   10.2019 H   0  0  0  0  0  0  0  0  0  0  0  0
   -1.0970   -7.3123   12.5433 H   0  0  0  0  0  0  0  0  0  0  0  0
   -0.3452   -4.8129   12.3925 H   0  0  0  0  0  0  0  0  0  0  0  0
    2.0187   -4.7267   11.1836 H   0  0  0  0  0  0  0  0  0  0  0  0
    2.7242   -7.1744   10.5904 H   0  0  0  0  0  0  0  0  0  0  0  0
    0.9001   -8.8647   11.6208 H   0  0  0  0  0  0  0  0  0  0  0  0
    1.4967   -7.7406   12.8674 H   0  0  0  0  0  0  0  0  0  0  0  0
    0.9952   -8.0539    9.0292 H   0  0  0  0  0  0  0  0  0  0  0  0
  1  2  2  0  0  0  0
  2  3  1  0  0  0  0
  3  4  2  0  0  0  0
  3  5  1  0  0  0  0
  5  6  1  0  0  0  0
  6  7  1  0  0  0  0
  7  8  2  0  0  0  0
  8  9  1  0  0  0  0
  9 10  1  0  0  0  0
 10 11  2  0  0  0  0
 11 12  1  0  0  0  0
 12 13  3  0  0  0  0
 11 14  1  0  0  0  0
 14 15  3  0  0  0  0
  1 16  1  0  0  0  0
 16 17  2  0  0  0  0
 17 18  1  0  0  0  0
 18 19  1  0  0  0  0
 17 20  1  0  0  0  0
 20 21  2  0  0  0  0
 21 22  1  0  0  0  0
 21 23  1  0  0  0  0
 23 24  2  0  0  0  0
 24 25  1  0  0  0  0
 24 26  1  0  0  0  0
 26 27  2  0  0  0  0
 27 28  1  0  0  0  0
 28 29  2  0  0  0  0
 29 30  1  0  0  0  0
 29 31  1  0  0  0  0
 31 32  1  0  0  0  0
 31 33  2  0  0  0  0
 33 34  1  0  0  0  0
 34 35  2  0  0  0  0
 35 36  1  0  0  0  0
 36 37  1  0  0  0  0
 37 38  1  0  0  0  0
 38 39  1  0  0  0  0
 39 40  1  0  0  0  0
 40 41  1  0  0  0  0
 39 42  2  0  0  0  0
 42 43  1  0  0  0  0
 43 44  1  0  0  0  0
 44 45  1  0  0  0  0
 45 46  1  0  0  0  0
 46 47  1  0  0  0  0
 47 48  1  0  0  0  0
 46 49  1  0  0  0  0
 49 50  2  0  0  0  0
 50 51  1  0  0  0  0
 51 52  1  0  0  0  0
 52 53  1  0  0  0  0
 42 54  1  0  0  0  0
 54 55  2  0  0  0  0
 55 56  1  0  0  0  0
 56 57  2  0  0  0  0
 56 58  1  0  0  0  0
 58 59  2  0  0  0  0
 59 60  1  0  0  0  0
 60 61  2  0  0  0  0
 61 62  1  0  0  0  0
 62 63  2  0  0  0  0
 63 64  1  0  0  0  0
 64 65  2  0  0  0  0
 65 66  1  0  0  0  0
 66 67  3  0  0  0  0
 65 68  1  0  0  0  0
 68 69  3  0  0  0  0
 61 70  1  0  0  0  0
 70 71  1  0  0  0  0
 71 72  1  0  0  0  0
 72 73  2  0  0  0  0
 73 74  1  0  0  0  0
 74 75  1  0  0  0  0
 74 76  1  0  0  0  0
 10  2  1  0  0  0  0
 22 16  1  0  0  0  0
 51 23  1  0  0  0  0
 64 55  1  0  0  0  0
 76 70  1  0  0  0  0
  9  5  2  0  0  0  0
 25 20  1  0  0  0  0
 50 26  1  0  0  0  0
 63 58  1  0  0  0  0
 75 71  1  0  0  0  0
 34 27  1  0  0  0  0
 49 35  1  0  0  0  0
 76 60  1  0  0  0  0
 45 36  2  0  0  0  0
 44 38  2  0  0  0  0
  1 77  1  0  0  0  0
  7 78  1  0  0  0  0
  8 79  1  0  0  0  0
 18 80  1  0  0  0  0
 18 81  1  0  0  0  0
 19 82  1  0  0  0  0
 19 83  1  0  0  0  0
 19 84  1  0  0  0  0
 30 85  1  0  0  0  0
 30 86  1  0  0  0  0
 30 87  1  0  0  0  0
 32 88  1  0  0  0  0
 32 89  1  0  0  0  0
 32 90  1  0  0  0  0
 40 91  1  0  0  0  0
 40 92  1  0  0  0  0
 41 93  1  0  0  0  0
 41 94  1  0  0  0  0
 41 95  1  0  0  0  0
 47 96  1  0  0  0  0
 47 97  1  0  0  0  0
 48 98  1  0  0  0  0
 48 99  1  0  0  0  0
 48100  1  0  0  0  0
 52101  1  0  0  0  0
 52102  1  0  0  0  0
 53103  1  0  0  0  0
 53104  1  0  0  0  0
 53105  1  0  0  0  0
 54106  1  0  0  0  0
 59107  1  0  0  0  0
 62108  1  0  0  0  0
 70109  1  0  0  0  0
 71110  1  0  0  0  0
 72111  1  0  0  0  0
 73112  1  0  0  0  0
 74113  1  0  0  0  0
 75114  1  0  0  0  0
 75115  1  0  0  0  0
 76116  1  0  0  0  0
M  END
