
  xtb     02012218013D
 energy: -179.818289358577 gnorm: 0.000872236817 xtb: 6.4.1 (unknown)
 99109  0     0  0            999 V2000
   -1.4653    7.7848    1.3905 C   0  0  0  0  0  0  0  0  0  0  0  0
   -1.1571    7.9837    2.7055 C   0  0  0  0  0  0  0  0  0  0  0  0
   -1.3771    9.5665    3.4427 S   0  0  0  0  0  0  0  0  0  0  0  0
   -0.8123    8.9743    4.9859 C   0  0  0  0  0  0  0  0  0  0  0  0
   -0.7399    9.8193    6.0657 C   0  0  0  0  0  0  0  0  0  0  0  0
   -1.1241   11.1676    5.9104 C   0  0  0  0  0  0  0  0  0  0  0  0
   -1.4394   12.2642    5.7928 N   0  0  0  0  0  0  0  0  0  0  0  0
   -0.3137    9.4905    7.3630 C   0  0  0  0  0  0  0  0  0  0  0  0
    0.0245    9.2900    8.4425 N   0  0  0  0  0  0  0  0  0  0  0  0
   -0.4806    7.6579    4.9155 N   0  0  0  0  0  0  0  0  0  0  0  0
   -0.0291    6.8543    6.0365 C   0  0  0  0  0  0  0  0  0  0  0  0
   -1.2001    6.3619    6.8785 C   0  0  0  0  0  0  0  0  0  0  0  0
   -0.6497    7.0475    3.6804 C   0  0  0  0  0  0  0  0  0  0  0  0
   -0.3827    5.8719    3.4999 O   0  0  0  0  0  0  0  0  0  0  0  0
   -1.3727    6.6327    0.5953 C   0  0  0  0  0  0  0  0  0  0  0  0
   -1.7283    6.5923   -0.7591 C   0  0  0  0  0  0  0  0  0  0  0  0
   -2.2181    7.7465   -1.5723 C   0  0  0  0  0  0  0  0  0  0  0  0
   -1.0453    8.5753   -2.1028 C   0  0  0  0  0  0  0  0  0  0  0  0
   -1.5183    5.3287   -1.3008 C   0  0  0  0  0  0  0  0  0  0  0  0
   -1.7596    4.6860   -2.9137 S   0  0  0  0  0  0  0  0  0  0  0  0
   -1.1851    3.1555   -2.3529 C   0  0  0  0  0  0  0  0  0  0  0  0
   -0.9152    1.8780   -2.8586 C   0  0  0  0  0  0  0  0  0  0  0  0
   -0.9855    1.3953   -4.1874 C   0  0  0  0  0  0  0  0  0  0  0  0
   -0.5149    0.0642   -4.4547 C   0  0  0  0  0  0  0  0  0  0  0  0
   -0.5590   -0.2987   -5.7215 N   0  0  0  0  0  0  0  0  0  0  0  0
   -1.2132    1.0373   -6.6684 Se  0  0  0  0  0  2  0  0  0  0  0  0
   -1.4005    2.0633   -5.2457 N   0  0  0  0  0  0  0  0  0  0  0  0
   -0.0986   -0.7333   -3.3618 C   0  0  0  0  0  0  0  0  0  0  0  0
    0.3112   -2.0718   -3.3315 C   0  0  0  0  0  0  0  0  0  0  0  0
    0.6161   -3.3690   -4.4314 S   0  0  0  0  0  0  0  0  0  0  0  0
    1.0146   -4.3903   -3.0613 C   0  0  0  0  0  0  0  0  0  0  0  0
    1.4204   -5.7144   -2.9731 C   0  0  0  0  0  0  0  0  0  0  0  0
    1.6483   -6.5710   -4.1751 C   0  0  0  0  0  0  0  0  0  0  0  0
    3.1220   -6.5428   -4.5906 C   0  0  0  0  0  0  0  0  0  0  0  0
    1.6421   -6.0949   -1.6372 C   0  0  0  0  0  0  0  0  0  0  0  0
    1.3165   -4.7775   -0.5079 S   0  0  0  0  0  0  0  0  0  0  0  0
    0.9057   -3.7383   -1.8202 C   0  0  0  0  0  0  0  0  0  0  0  0
    0.5056   -2.4094   -1.9865 C   0  0  0  0  0  0  0  0  0  0  0  0
    0.2529   -1.3232   -1.1919 N   0  0  0  0  0  0  0  0  0  0  0  0
   -0.1096   -0.2704   -2.0123 C   0  0  0  0  0  0  0  0  0  0  0  0
   -0.4311    1.0934   -1.7703 C   0  0  0  0  0  0  0  0  0  0  0  0
   -0.3883    1.8973   -0.6454 N   0  0  0  0  0  0  0  0  0  0  0  0
   -0.8345    3.1421   -0.9981 C   0  0  0  0  0  0  0  0  0  0  0  0
   -1.0171    4.3877   -0.3873 C   0  0  0  0  0  0  0  0  0  0  0  0
   -0.7917    5.0735    1.1782 S   0  0  0  0  0  0  0  0  0  0  0  0
    0.3043    1.7234    0.6117 C   0  0  0  0  0  0  0  0  0  0  0  0
    1.8078    1.5601    0.4020 C   0  0  0  0  0  0  0  0  0  0  0  0
    0.0619   -1.5188    0.2285 C   0  0  0  0  0  0  0  0  0  0  0  0
   -1.4118   -1.4072    0.6116 C   0  0  0  0  0  0  0  0  0  0  0  0
    2.0852   -7.3698   -1.2758 C   0  0  0  0  0  0  0  0  0  0  0  0
    2.3851   -7.9072   -0.0468 C   0  0  0  0  0  0  0  0  0  0  0  0
    2.2753   -7.2282    1.2460 C   0  0  0  0  0  0  0  0  0  0  0  0
    1.8953   -6.0892    1.4614 O   0  0  0  0  0  0  0  0  0  0  0  0
    2.7122   -8.2054    2.2597 C   0  0  0  0  0  0  0  0  0  0  0  0
    2.7953   -8.0485    3.6289 C   0  0  0  0  0  0  0  0  0  0  0  0
    3.2378   -9.1089    4.4119 C   0  0  0  0  0  0  0  0  0  0  0  0
    3.3554   -9.0133    5.8976 C   0  0  0  0  0  0  0  0  0  0  0  0
    3.5786  -10.2939    3.7572 C   0  0  0  0  0  0  0  0  0  0  0  0
    4.0081  -11.3263    4.5066 F   0  0  0  0  0  0  0  0  0  0  0  0
    3.5037  -10.4766    2.3856 C   0  0  0  0  0  0  0  0  0  0  0  0
    3.0608   -9.4082    1.6227 C   0  0  0  0  0  0  0  0  0  0  0  0
    2.8667   -9.2547    0.1815 C   0  0  0  0  0  0  0  0  0  0  0  0
    3.1118  -10.2280   -0.7534 C   0  0  0  0  0  0  0  0  0  0  0  0
    3.5802  -11.5219   -0.4413 C   0  0  0  0  0  0  0  0  0  0  0  0
    3.9602  -12.5899   -0.2608 N   0  0  0  0  0  0  0  0  0  0  0  0
    2.9427  -10.0978   -2.1472 C   0  0  0  0  0  0  0  0  0  0  0  0
    2.8317  -10.0731   -3.2909 N   0  0  0  0  0  0  0  0  0  0  0  0
   -1.8407    8.6585    0.8716 H   0  0  0  0  0  0  0  0  0  0  0  0
    0.4956    6.0009    5.5979 H   0  0  0  0  0  0  0  0  0  0  0  0
    0.6678    7.4372    6.6403 H   0  0  0  0  0  0  0  0  0  0  0  0
   -0.8250    5.7424    7.6875 H   0  0  0  0  0  0  0  0  0  0  0  0
   -1.7476    7.1949    7.3130 H   0  0  0  0  0  0  0  0  0  0  0  0
   -1.8780    5.7694    6.2680 H   0  0  0  0  0  0  0  0  0  0  0  0
   -2.8834    8.3799   -0.9834 H   0  0  0  0  0  0  0  0  0  0  0  0
   -2.7848    7.3509   -2.4173 H   0  0  0  0  0  0  0  0  0  0  0  0
   -0.4001    7.9573   -2.7222 H   0  0  0  0  0  0  0  0  0  0  0  0
   -1.4149    9.4014   -2.7045 H   0  0  0  0  0  0  0  0  0  0  0  0
   -0.4542    8.9778   -1.2832 H   0  0  0  0  0  0  0  0  0  0  0  0
    1.3449   -7.6019   -3.9877 H   0  0  0  0  0  0  0  0  0  0  0  0
    1.0408   -6.1785   -4.9930 H   0  0  0  0  0  0  0  0  0  0  0  0
    3.4311   -5.5254   -4.8188 H   0  0  0  0  0  0  0  0  0  0  0  0
    3.7545   -6.9288   -3.7947 H   0  0  0  0  0  0  0  0  0  0  0  0
    3.2664   -7.1591   -5.4731 H   0  0  0  0  0  0  0  0  0  0  0  0
   -0.1191    0.8889    1.1703 H   0  0  0  0  0  0  0  0  0  0  0  0
    0.1196    2.6282    1.1959 H   0  0  0  0  0  0  0  0  0  0  0  0
    2.2166    2.4561   -0.0591 H   0  0  0  0  0  0  0  0  0  0  0  0
    2.3003    1.4095    1.3586 H   0  0  0  0  0  0  0  0  0  0  0  0
    2.0284    0.7149   -0.2462 H   0  0  0  0  0  0  0  0  0  0  0  0
    0.6803   -0.8274    0.7998 H   0  0  0  0  0  0  0  0  0  0  0  0
    0.4165   -2.5275    0.4531 H   0  0  0  0  0  0  0  0  0  0  0  0
   -1.9867   -2.1759    0.1006 H   0  0  0  0  0  0  0  0  0  0  0  0
   -1.8209   -0.4380    0.3350 H   0  0  0  0  0  0  0  0  0  0  0  0
   -1.5266   -1.5463    1.6831 H   0  0  0  0  0  0  0  0  0  0  0  0
    2.2188   -8.0291   -2.1223 H   0  0  0  0  0  0  0  0  0  0  0  0
    2.5178   -7.1077    4.0797 H   0  0  0  0  0  0  0  0  0  0  0  0
    4.3862   -9.1877    6.2044 H   0  0  0  0  0  0  0  0  0  0  0  0
    2.7432   -9.7789    6.3730 H   0  0  0  0  0  0  0  0  0  0  0  0
    3.0400   -8.0352    6.2486 H   0  0  0  0  0  0  0  0  0  0  0  0
    3.7875  -11.4269    1.9649 H   0  0  0  0  0  0  0  0  0  0  0  0
  1  2  2  0  0  0  0
  2  3  1  0  0  0  0
  3  4  1  0  0  0  0
  4  5  2  0  0  0  0
  5  6  1  0  0  0  0
  6  7  3  0  0  0  0
  5  8  1  0  0  0  0
  8  9  3  0  0  0  0
  4 10  1  0  0  0  0
 10 11  1  0  0  0  0
 11 12  1  0  0  0  0
 10 13  1  0  0  0  0
 13 14  2  0  0  0  0
  1 15  1  0  0  0  0
 15 16  2  0  0  0  0
 16 17  1  0  0  0  0
 17 18  1  0  0  0  0
 16 19  1  0  0  0  0
 19 20  1  0  0  0  0
 20 21  1  0  0  0  0
 21 22  1  0  0  0  0
 22 23  1  0  0  0  0
 23 24  1  0  0  0  0
 24 25  2  0  0  0  0
 25 26  1  0  0  0  0
 26 27  1  0  0  0  0
 24 28  1  0  0  0  0
 28 29  1  0  0  0  0
 29 30  1  0  0  0  0
 30 31  1  0  0  0  0
 31 32  1  0  0  0  0
 32 33  1  0  0  0  0
 33 34  1  0  0  0  0
 32 35  2  0  0  0  0
 35 36  1  0  0  0  0
 36 37  1  0  0  0  0
 37 38  1  0  0  0  0
 38 39  1  0  0  0  0
 39 40  1  0  0  0  0
 40 41  1  0  0  0  0
 41 42  1  0  0  0  0
 42 43  1  0  0  0  0
 43 44  1  0  0  0  0
 44 45  1  0  0  0  0
 42 46  1  0  0  0  0
 46 47  1  0  0  0  0
 39 48  1  0  0  0  0
 48 49  1  0  0  0  0
 35 50  1  0  0  0  0
 50 51  2  0  0  0  0
 51 52  1  0  0  0  0
 52 53  2  0  0  0  0
 52 54  1  0  0  0  0
 54 55  2  0  0  0  0
 55 56  1  0  0  0  0
 56 57  1  0  0  0  0
 56 58  2  0  0  0  0
 58 59  1  0  0  0  0
 58 60  1  0  0  0  0
 60 61  2  0  0  0  0
 61 62  1  0  0  0  0
 62 63  2  0  0  0  0
 63 64  1  0  0  0  0
 64 65  3  0  0  0  0
 63 66  1  0  0  0  0
 66 67  3  0  0  0  0
 13  2  1  0  0  0  0
 45 15  1  0  0  0  0
 62 51  1  0  0  0  0
 44 19  2  0  0  0  0
 61 54  1  0  0  0  0
 43 21  2  0  0  0  0
 41 22  2  0  0  0  0
 27 23  2  0  0  0  0
 40 28  2  0  0  0  0
 38 29  2  0  0  0  0
 37 31  2  0  0  0  0
  1 68  1  0  0  0  0
 11 69  1  0  0  0  0
 11 70  1  0  0  0  0
 12 71  1  0  0  0  0
 12 72  1  0  0  0  0
 12 73  1  0  0  0  0
 17 74  1  0  0  0  0
 17 75  1  0  0  0  0
 18 76  1  0  0  0  0
 18 77  1  0  0  0  0
 18 78  1  0  0  0  0
 33 79  1  0  0  0  0
 33 80  1  0  0  0  0
 34 81  1  0  0  0  0
 34 82  1  0  0  0  0
 34 83  1  0  0  0  0
 46 84  1  0  0  0  0
 46 85  1  0  0  0  0
 47 86  1  0  0  0  0
 47 87  1  0  0  0  0
 47 88  1  0  0  0  0
 48 89  1  0  0  0  0
 48 90  1  0  0  0  0
 49 91  1  0  0  0  0
 49 92  1  0  0  0  0
 49 93  1  0  0  0  0
 50 94  1  0  0  0  0
 55 95  1  0  0  0  0
 57 96  1  0  0  0  0
 57 97  1  0  0  0  0
 57 98  1  0  0  0  0
 60 99  1  0  0  0  0
M  END
