
  xtb     02112200243D
 energy: -210.533104510669 gnorm: 0.000455603897 xtb: 6.4.1 (unknown)
116128  0     0  0            999 V2000
   -5.3403    2.1598   -4.6226 C   0  0  0  0  0  0  0  0  0  0  0  0
   -5.9396    2.3820   -5.8208 C   0  0  0  0  0  0  0  0  0  0  0  0
   -5.2250    2.6129   -7.3974 S   0  0  0  0  0  0  0  0  0  0  0  0
   -6.8091    2.7211   -8.1404 C   0  0  0  0  0  0  0  0  0  0  0  0
   -6.8993    2.9548   -9.4897 C   0  0  0  0  0  0  0  0  0  0  0  0
   -5.7092    3.1151  -10.2301 C   0  0  0  0  0  0  0  0  0  0  0  0
   -4.7431    3.2533  -10.8331 N   0  0  0  0  0  0  0  0  0  0  0  0
   -8.0763    3.0653  -10.2483 C   0  0  0  0  0  0  0  0  0  0  0  0
   -8.9999    3.1611  -10.9248 N   0  0  0  0  0  0  0  0  0  0  0  0
   -7.8055    2.5771   -7.2309 N   0  0  0  0  0  0  0  0  0  0  0  0
   -9.2235    2.5608   -7.5407 C   0  0  0  0  0  0  0  0  0  0  0  0
   -9.6683    1.1964   -8.0532 C   0  0  0  0  0  0  0  0  0  0  0  0
   -7.3996    2.3824   -5.9174 C   0  0  0  0  0  0  0  0  0  0  0  0
   -8.1737    2.2427   -4.9973 O   0  0  0  0  0  0  0  0  0  0  0  0
   -3.9794    2.0781   -4.2557 C   0  0  0  0  0  0  0  0  0  0  0  0
   -2.7977    2.4170   -4.9034 C   0  0  0  0  0  0  0  0  0  0  0  0
   -2.6441    3.1124   -6.1890 C   0  0  0  0  0  0  0  0  0  0  0  0
   -2.0360    2.4249   -7.2365 C   0  0  0  0  0  0  0  0  0  0  0  0
   -1.8540    3.0320   -8.4632 C   0  0  0  0  0  0  0  0  0  0  0  0
   -2.2547    4.3445   -8.6436 C   0  0  0  0  0  0  0  0  0  0  0  0
   -2.8200    5.0425   -7.5924 C   0  0  0  0  0  0  0  0  0  0  0  0
   -3.0279    4.4471   -6.3549 C   0  0  0  0  0  0  0  0  0  0  0  0
   -3.5899    5.2544   -5.2186 C   0  0  0  0  0  0  0  0  0  0  0  0
   -2.4700    5.7251   -4.2882 C   0  0  0  0  0  0  0  0  0  0  0  0
   -1.6760    2.0370   -4.1515 C   0  0  0  0  0  0  0  0  0  0  0  0
    0.0369    2.1764   -4.4703 S   0  0  0  0  0  0  0  0  0  0  0  0
    0.3467    1.4206   -2.9450 C   0  0  0  0  0  0  0  0  0  0  0  0
    1.4379    0.9748   -2.1872 C   0  0  0  0  0  0  0  0  0  0  0  0
    2.8152    0.9375   -2.4964 C   0  0  0  0  0  0  0  0  0  0  0  0
    3.7089    0.2890   -1.5850 C   0  0  0  0  0  0  0  0  0  0  0  0
    4.9579    0.2747   -2.0240 N   0  0  0  0  0  0  0  0  0  0  0  0
    5.0043    1.0206   -3.4593 S   0  0  0  0  0  0  0  0  0  0  0  0
    3.4327    1.3867   -3.5780 N   0  0  0  0  0  0  0  0  0  0  0  0
    3.1985   -0.1960   -0.3610 C   0  0  0  0  0  0  0  0  0  0  0  0
    3.8549   -0.7684    0.7361 C   0  0  0  0  0  0  0  0  0  0  0  0
    5.4489   -1.2513    1.1980 S   0  0  0  0  0  0  0  0  0  0  0  0
    4.8218   -1.7040    2.7661 C   0  0  0  0  0  0  0  0  0  0  0  0
    5.4333   -2.2165    3.9122 C   0  0  0  0  0  0  0  0  0  0  0  0
    6.8547   -2.5765    3.9831 C   0  0  0  0  0  0  0  0  0  0  0  0
    7.7524   -1.9312    4.8386 C   0  0  0  0  0  0  0  0  0  0  0  0
    7.3459   -0.7448    5.6637 C   0  0  0  0  0  0  0  0  0  0  0  0
    7.3108    0.5140    4.7945 C   0  0  0  0  0  0  0  0  0  0  0  0
    9.0782   -2.3455    4.8316 C   0  0  0  0  0  0  0  0  0  0  0  0
    9.5122   -3.3690    4.0092 C   0  0  0  0  0  0  0  0  0  0  0  0
    8.6200   -3.9911    3.1529 C   0  0  0  0  0  0  0  0  0  0  0  0
    7.2989   -3.5899    3.1371 C   0  0  0  0  0  0  0  0  0  0  0  0
    4.5195   -2.3810    4.9539 C   0  0  0  0  0  0  0  0  0  0  0  0
    2.8845   -1.9265    4.4714 S   0  0  0  0  0  0  0  0  0  0  0  0
    3.4426   -1.4813    2.9022 C   0  0  0  0  0  0  0  0  0  0  0  0
    2.8901   -0.9522    1.7351 C   0  0  0  0  0  0  0  0  0  0  0  0
    1.6630   -0.5428    1.2858 N   0  0  0  0  0  0  0  0  0  0  0  0
    1.8209   -0.0792   -0.0109 C   0  0  0  0  0  0  0  0  0  0  0  0
    0.9131    0.4203   -0.9831 C   0  0  0  0  0  0  0  0  0  0  0  0
   -0.4691    0.5076   -1.0359 N   0  0  0  0  0  0  0  0  0  0  0  0
   -0.8073    1.0986   -2.2224 C   0  0  0  0  0  0  0  0  0  0  0  0
   -1.9718    1.4465   -2.9162 C   0  0  0  0  0  0  0  0  0  0  0  0
   -3.6749    1.3489   -2.6728 S   0  0  0  0  0  0  0  0  0  0  0  0
   -1.4816   -0.1836   -0.2699 C   0  0  0  0  0  0  0  0  0  0  0  0
   -1.3266   -1.6987   -0.3745 C   0  0  0  0  0  0  0  0  0  0  0  0
    0.6079   -0.2960    2.2451 C   0  0  0  0  0  0  0  0  0  0  0  0
    0.3747    1.1983    2.4500 C   0  0  0  0  0  0  0  0  0  0  0  0
    4.8100   -2.9770    6.1929 C   0  0  0  0  0  0  0  0  0  0  0  0
    4.0459   -3.0608    7.3235 C   0  0  0  0  0  0  0  0  0  0  0  0
    4.3069   -4.1423    8.3029 C   0  0  0  0  0  0  0  0  0  0  0  0
    5.2815   -4.8547    8.3666 O   0  0  0  0  0  0  0  0  0  0  0  0
    3.0866   -4.1963    9.1455 C   0  0  0  0  0  0  0  0  0  0  0  0
    2.7643   -5.0974   10.1393 C   0  0  0  0  0  0  0  0  0  0  0  0
    1.5374   -4.9631   10.7795 C   0  0  0  0  0  0  0  0  0  0  0  0
    1.0742   -6.0554   12.0249 Cl  0  0  0  0  0  0  0  0  0  0  0  0
    0.6757   -3.9301   10.4040 C   0  0  0  0  0  0  0  0  0  0  0  0
   -0.5095   -3.8166   11.0159 F   0  0  0  0  0  0  0  0  0  0  0  0
    0.9972   -3.0122    9.4160 C   0  0  0  0  0  0  0  0  0  0  0  0
    2.2194   -3.1508    8.7801 C   0  0  0  0  0  0  0  0  0  0  0  0
    2.8695   -2.3423    7.7513 C   0  0  0  0  0  0  0  0  0  0  0  0
    2.5698   -1.0333    7.4688 C   0  0  0  0  0  0  0  0  0  0  0  0
    3.4417   -0.1866    6.7541 C   0  0  0  0  0  0  0  0  0  0  0  0
    4.1586    0.5438    6.2337 N   0  0  0  0  0  0  0  0  0  0  0  0
    1.4193   -0.3687    7.9337 C   0  0  0  0  0  0  0  0  0  0  0  0
    0.4793    0.2086    8.2522 N   0  0  0  0  0  0  0  0  0  0  0  0
   -6.0461    1.9701   -3.8185 H   0  0  0  0  0  0  0  0  0  0  0  0
   -9.4417    3.3415   -8.2712 H   0  0  0  0  0  0  0  0  0  0  0  0
   -9.7347    2.7879   -6.6011 H   0  0  0  0  0  0  0  0  0  0  0  0
  -10.7374    1.2154   -8.2412 H   0  0  0  0  0  0  0  0  0  0  0  0
   -9.1630    0.9430   -8.9821 H   0  0  0  0  0  0  0  0  0  0  0  0
   -9.4565    0.4296   -7.3114 H   0  0  0  0  0  0  0  0  0  0  0  0
   -1.7318    1.3995   -7.0848 H   0  0  0  0  0  0  0  0  0  0  0  0
   -1.4055    2.4832   -9.2762 H   0  0  0  0  0  0  0  0  0  0  0  0
   -2.1268    4.8223   -9.6021 H   0  0  0  0  0  0  0  0  0  0  0  0
   -3.1161    6.0723   -7.7323 H   0  0  0  0  0  0  0  0  0  0  0  0
   -4.1103    6.1261   -5.6198 H   0  0  0  0  0  0  0  0  0  0  0  0
   -4.3109    4.6675   -4.6470 H   0  0  0  0  0  0  0  0  0  0  0  0
   -1.9560    4.8751   -3.8454 H   0  0  0  0  0  0  0  0  0  0  0  0
   -2.8762    6.3391   -3.4879 H   0  0  0  0  0  0  0  0  0  0  0  0
   -1.7416    6.3120   -4.8428 H   0  0  0  0  0  0  0  0  0  0  0  0
    8.0630   -0.6037    6.4741 H   0  0  0  0  0  0  0  0  0  0  0  0
    6.3609   -0.8894    6.1076 H   0  0  0  0  0  0  0  0  0  0  0  0
    6.5970    0.3945    3.9831 H   0  0  0  0  0  0  0  0  0  0  0  0
    7.0076    1.3689    5.3920 H   0  0  0  0  0  0  0  0  0  0  0  0
    8.2910    0.7095    4.3650 H   0  0  0  0  0  0  0  0  0  0  0  0
    9.7822   -1.8509    5.4850 H   0  0  0  0  0  0  0  0  0  0  0  0
   10.5473   -3.6751    4.0299 H   0  0  0  0  0  0  0  0  0  0  0  0
    8.9505   -4.7839    2.4993 H   0  0  0  0  0  0  0  0  0  0  0  0
    6.5924   -4.0711    2.4764 H   0  0  0  0  0  0  0  0  0  0  0  0
   -2.4452    0.1090   -0.6942 H   0  0  0  0  0  0  0  0  0  0  0  0
   -1.4742    0.1532    0.7668 H   0  0  0  0  0  0  0  0  0  0  0  0
   -1.4483   -2.0138   -1.4082 H   0  0  0  0  0  0  0  0  0  0  0  0
   -2.0848   -2.1912    0.2280 H   0  0  0  0  0  0  0  0  0  0  0  0
   -0.3439   -2.0193   -0.0366 H   0  0  0  0  0  0  0  0  0  0  0  0
    0.9372   -0.7385    3.1883 H   0  0  0  0  0  0  0  0  0  0  0  0
   -0.3065   -0.8128    1.9538 H   0  0  0  0  0  0  0  0  0  0  0  0
    0.1175    1.6903    1.5148 H   0  0  0  0  0  0  0  0  0  0  0  0
   -0.4300    1.3523    3.1637 H   0  0  0  0  0  0  0  0  0  0  0  0
    1.2759    1.6638    2.8423 H   0  0  0  0  0  0  0  0  0  0  0  0
    5.7435   -3.5328    6.2234 H   0  0  0  0  0  0  0  0  0  0  0  0
    3.4489   -5.8846   10.4116 H   0  0  0  0  0  0  0  0  0  0  0  0
    0.2916   -2.2354    9.1692 H   0  0  0  0  0  0  0  0  0  0  0  0
  1  2  2  0  0  0  0
  2  3  1  0  0  0  0
  3  4  1  0  0  0  0
  4  5  2  0  0  0  0
  5  6  1  0  0  0  0
  6  7  3  0  0  0  0
  5  8  1  0  0  0  0
  8  9  3  0  0  0  0
  4 10  1  0  0  0  0
 10 11  1  0  0  0  0
 11 12  1  0  0  0  0
 10 13  1  0  0  0  0
 13 14  2  0  0  0  0
  1 15  1  0  0  0  0
 15 16  2  0  0  0  0
 16 17  1  0  0  0  0
 17 18  2  0  0  0  0
 18 19  1  0  0  0  0
 19 20  2  0  0  0  0
 20 21  1  0  0  0  0
 21 22  2  0  0  0  0
 22 23  1  0  0  0  0
 23 24  1  0  0  0  0
 16 25  1  0  0  0  0
 25 26  1  0  0  0  0
 26 27  1  0  0  0  0
 27 28  1  0  0  0  0
 28 29  1  0  0  0  0
 29 30  1  0  0  0  0
 30 31  2  0  0  0  0
 31 32  1  0  0  0  0
 32 33  1  0  0  0  0
 30 34  1  0  0  0  0
 34 35  1  0  0  0  0
 35 36  1  0  0  0  0
 36 37  1  0  0  0  0
 37 38  1  0  0  0  0
 38 39  1  0  0  0  0
 39 40  2  0  0  0  0
 40 41  1  0  0  0  0
 41 42  1  0  0  0  0
 40 43  1  0  0  0  0
 43 44  2  0  0  0  0
 44 45  1  0  0  0  0
 45 46  2  0  0  0  0
 38 47  2  0  0  0  0
 47 48  1  0  0  0  0
 48 49  1  0  0  0  0
 49 50  1  0  0  0  0
 50 51  1  0  0  0  0
 51 52  1  0  0  0  0
 52 53  1  0  0  0  0
 53 54  1  0  0  0  0
 54 55  1  0  0  0  0
 55 56  1  0  0  0  0
 56 57  1  0  0  0  0
 54 58  1  0  0  0  0
 58 59  1  0  0  0  0
 51 60  1  0  0  0  0
 60 61  1  0  0  0  0
 47 62  1  0  0  0  0
 62 63  2  0  0  0  0
 63 64  1  0  0  0  0
 64 65  2  0  0  0  0
 64 66  1  0  0  0  0
 66 67  2  0  0  0  0
 67 68  1  0  0  0  0
 68 69  1  0  0  0  0
 68 70  2  0  0  0  0
 70 71  1  0  0  0  0
 70 72  1  0  0  0  0
 72 73  2  0  0  0  0
 73 74  1  0  0  0  0
 74 75  2  0  0  0  0
 75 76  1  0  0  0  0
 76 77  3  0  0  0  0
 75 78  1  0  0  0  0
 78 79  3  0  0  0  0
 13  2  1  0  0  0  0
 57 15  1  0  0  0  0
 74 63  1  0  0  0  0
 22 17  1  0  0  0  0
 56 25  2  0  0  0  0
 73 66  1  0  0  0  0
 55 27  2  0  0  0  0
 53 28  2  0  0  0  0
 33 29  2  0  0  0  0
 52 34  2  0  0  0  0
 50 35  2  0  0  0  0
 49 37  2  0  0  0  0
 46 39  1  0  0  0  0
  1 80  1  0  0  0  0
 11 81  1  0  0  0  0
 11 82  1  0  0  0  0
 12 83  1  0  0  0  0
 12 84  1  0  0  0  0
 12 85  1  0  0  0  0
 18 86  1  0  0  0  0
 19 87  1  0  0  0  0
 20 88  1  0  0  0  0
 21 89  1  0  0  0  0
 23 90  1  0  0  0  0
 23 91  1  0  0  0  0
 24 92  1  0  0  0  0
 24 93  1  0  0  0  0
 24 94  1  0  0  0  0
 41 95  1  0  0  0  0
 41 96  1  0  0  0  0
 42 97  1  0  0  0  0
 42 98  1  0  0  0  0
 42 99  1  0  0  0  0
 43100  1  0  0  0  0
 44101  1  0  0  0  0
 45102  1  0  0  0  0
 46103  1  0  0  0  0
 58104  1  0  0  0  0
 58105  1  0  0  0  0
 59106  1  0  0  0  0
 59107  1  0  0  0  0
 59108  1  0  0  0  0
 60109  1  0  0  0  0
 60110  1  0  0  0  0
 61111  1  0  0  0  0
 61112  1  0  0  0  0
 61113  1  0  0  0  0
 62114  1  0  0  0  0
 67115  1  0  0  0  0
 72116  1  0  0  0  0
M  END
