
  xtb     02022205593D
 energy: -172.776584892904 gnorm: 0.000993118200 xtb: 6.4.1 (unknown)
 94103  0     0  0            999 V2000
   -0.8809    4.3425    5.3346 C   0  0  0  0  0  0  0  0  0  0  0  0
   -2.0626    4.9149    5.7139 C   0  0  0  0  0  0  0  0  0  0  0  0
   -2.0438    5.9915    7.1133 S   0  0  0  0  0  0  0  0  0  0  0  0
   -3.7651    6.2481    7.0115 C   0  0  0  0  0  0  0  0  0  0  0  0
   -4.3988    7.0661    7.9152 C   0  0  0  0  0  0  0  0  0  0  0  0
   -5.7714    7.3574    7.9691 C   0  0  0  0  0  0  0  0  0  0  0  0
   -6.8816    7.6340    8.0758 N   0  0  0  0  0  0  0  0  0  0  0  0
   -3.6369    7.6986    8.9190 C   0  0  0  0  0  0  0  0  0  0  0  0
   -3.0227    8.2143    9.7393 N   0  0  0  0  0  0  0  0  0  0  0  0
   -4.2968    5.5630    5.9680 N   0  0  0  0  0  0  0  0  0  0  0  0
   -5.7078    5.5435    5.6299 C   0  0  0  0  0  0  0  0  0  0  0  0
   -6.4738    4.5291    6.4708 C   0  0  0  0  0  0  0  0  0  0  0  0
   -3.4161    4.7999    5.2027 C   0  0  0  0  0  0  0  0  0  0  0  0
   -3.8085    4.1572    4.2490 O   0  0  0  0  0  0  0  0  0  0  0  0
   -0.5688    3.4512    4.2919 C   0  0  0  0  0  0  0  0  0  0  0  0
   -1.3750    2.9555    3.2501 C   0  0  0  0  0  0  0  0  0  0  0  0
   -0.5611    2.1188    2.5061 C   0  0  0  0  0  0  0  0  0  0  0  0
    0.7176    2.1061    3.0997 C   0  0  0  0  0  0  0  0  0  0  0  0
    0.7172    2.9262    4.1706 N   0  0  0  0  0  0  0  0  0  0  0  0
    1.8295    3.0938    5.0735 C   0  0  0  0  0  0  0  0  0  0  0  0
    1.6677    2.2411    6.3306 C   0  0  0  0  0  0  0  0  0  0  0  0
    1.5039    1.2038    2.3631 C   0  0  0  0  0  0  0  0  0  0  0  0
    2.8101    0.7093    2.5718 C   0  0  0  0  0  0  0  0  0  0  0  0
    3.2961   -0.3500    1.7365 C   0  0  0  0  0  0  0  0  0  0  0  0
    4.5064   -0.7572    2.0822 N   0  0  0  0  0  0  0  0  0  0  0  0
    5.0063    0.1192    3.3454 S   0  0  0  0  0  0  0  0  0  0  0  0
    3.6887    1.0562    3.5023 N   0  0  0  0  0  0  0  0  0  0  0  0
    2.5001   -0.7844    0.6549 C   0  0  0  0  0  0  0  0  0  0  0  0
    2.7572   -1.7149   -0.3578 C   0  0  0  0  0  0  0  0  0  0  0  0
    3.9722   -2.8610   -0.8057 S   0  0  0  0  0  0  0  0  0  0  0  0
    3.0190   -3.2672   -2.2222 C   0  0  0  0  0  0  0  0  0  0  0  0
    3.2178   -4.1754   -3.2498 C   0  0  0  0  0  0  0  0  0  0  0  0
    4.3905   -5.0990   -3.2942 C   0  0  0  0  0  0  0  0  0  0  0  0
    4.0427   -6.4487   -2.6597 C   0  0  0  0  0  0  0  0  0  0  0  0
    2.1558   -4.1448   -4.1759 C   0  0  0  0  0  0  0  0  0  0  0  0
    0.9293   -2.9505   -3.7374 S   0  0  0  0  0  0  0  0  0  0  0  0
    1.8234   -2.5314   -2.3264 C   0  0  0  0  0  0  0  0  0  0  0  0
    1.6791   -1.6532   -1.2509 C   0  0  0  0  0  0  0  0  0  0  0  0
    0.7575   -0.7411   -0.8110 N   0  0  0  0  0  0  0  0  0  0  0  0
    1.2258   -0.2032    0.3746 C   0  0  0  0  0  0  0  0  0  0  0  0
    0.6744    0.7157    1.3045 C   0  0  0  0  0  0  0  0  0  0  0  0
   -0.5834    1.2887    1.4141 N   0  0  0  0  0  0  0  0  0  0  0  0
   -1.8585    0.8621    0.8820 C   0  0  0  0  0  0  0  0  0  0  0  0
   -2.1566   -0.5963    1.2220 C   0  0  0  0  0  0  0  0  0  0  0  0
   -0.2453   -0.2468   -1.7302 C   0  0  0  0  0  0  0  0  0  0  0  0
    0.0204    1.2042   -2.1208 C   0  0  0  0  0  0  0  0  0  0  0  0
    2.0908   -4.9877   -5.2846 C   0  0  0  0  0  0  0  0  0  0  0  0
    1.1508   -5.0956   -6.2868 C   0  0  0  0  0  0  0  0  0  0  0  0
   -0.0261   -4.2461   -6.4541 C   0  0  0  0  0  0  0  0  0  0  0  0
   -0.4071   -3.3473   -5.7253 O   0  0  0  0  0  0  0  0  0  0  0  0
   -0.6732   -4.6889   -7.7075 C   0  0  0  0  0  0  0  0  0  0  0  0
    0.0555   -5.7628   -8.2511 C   0  0  0  0  0  0  0  0  0  0  0  0
   -0.3567   -6.3464   -9.4378 C   0  0  0  0  0  0  0  0  0  0  0  0
   -1.4904   -5.8491  -10.0649 C   0  0  0  0  0  0  0  0  0  0  0  0
   -2.2047   -4.7912   -9.5249 C   0  0  0  0  0  0  0  0  0  0  0  0
   -3.7392   -4.1578  -10.4288 Br  0  0  0  0  0  0  0  0  0  0  0  0
   -1.8057   -4.1877   -8.3270 C   0  0  0  0  0  0  0  0  0  0  0  0
   -2.6828   -2.8791   -7.6578 Cl  0  0  0  0  0  0  0  0  0  0  0  0
    1.1909   -6.0489   -7.3726 C   0  0  0  0  0  0  0  0  0  0  0  0
    2.0927   -7.0665   -7.5637 C   0  0  0  0  0  0  0  0  0  0  0  0
    3.1794   -7.3739   -6.7194 C   0  0  0  0  0  0  0  0  0  0  0  0
    4.0837   -7.6909   -6.0848 N   0  0  0  0  0  0  0  0  0  0  0  0
    2.0450   -7.9763   -8.6404 C   0  0  0  0  0  0  0  0  0  0  0  0
    2.0675   -8.7469   -9.4911 N   0  0  0  0  0  0  0  0  0  0  0  0
   -0.0419    4.6241    5.9594 H   0  0  0  0  0  0  0  0  0  0  0  0
   -6.1211    6.5454    5.7552 H   0  0  0  0  0  0  0  0  0  0  0  0
   -5.7575    5.2598    4.5748 H   0  0  0  0  0  0  0  0  0  0  0  0
   -6.0713    3.5309    6.3131 H   0  0  0  0  0  0  0  0  0  0  0  0
   -7.5190    4.5366    6.1770 H   0  0  0  0  0  0  0  0  0  0  0  0
   -6.4157    4.7738    7.5287 H   0  0  0  0  0  0  0  0  0  0  0  0
   -2.4038    3.2089    3.1062 H   0  0  0  0  0  0  0  0  0  0  0  0
    2.7256    2.7692    4.5388 H   0  0  0  0  0  0  0  0  0  0  0  0
    1.9373    4.1503    5.3347 H   0  0  0  0  0  0  0  0  0  0  0  0
    0.7571    2.4973    6.8674 H   0  0  0  0  0  0  0  0  0  0  0  0
    2.5178    2.3945    6.9889 H   0  0  0  0  0  0  0  0  0  0  0  0
    1.6264    1.1894    6.0589 H   0  0  0  0  0  0  0  0  0  0  0  0
    5.2054   -4.6407   -2.7302 H   0  0  0  0  0  0  0  0  0  0  0  0
    4.7296   -5.2568   -4.3187 H   0  0  0  0  0  0  0  0  0  0  0  0
    3.2459   -6.9411   -3.2118 H   0  0  0  0  0  0  0  0  0  0  0  0
    4.9156   -7.0946   -2.6704 H   0  0  0  0  0  0  0  0  0  0  0  0
    3.7210   -6.3109   -1.6300 H   0  0  0  0  0  0  0  0  0  0  0  0
   -1.9118    1.0434   -0.1923 H   0  0  0  0  0  0  0  0  0  0  0  0
   -2.6081    1.5007    1.3543 H   0  0  0  0  0  0  0  0  0  0  0  0
   -2.1973   -0.7232    2.3014 H   0  0  0  0  0  0  0  0  0  0  0  0
   -1.3892   -1.2604    0.8315 H   0  0  0  0  0  0  0  0  0  0  0  0
   -3.1168   -0.8855    0.8036 H   0  0  0  0  0  0  0  0  0  0  0  0
   -1.2455   -0.3746   -1.3160 H   0  0  0  0  0  0  0  0  0  0  0  0
   -0.1854   -0.8764   -2.6212 H   0  0  0  0  0  0  0  0  0  0  0  0
    0.0170    1.8567   -1.2509 H   0  0  0  0  0  0  0  0  0  0  0  0
   -0.7414    1.5424   -2.8177 H   0  0  0  0  0  0  0  0  0  0  0  0
    0.9912    1.2869   -2.6042 H   0  0  0  0  0  0  0  0  0  0  0  0
    2.9297   -5.6663   -5.3556 H   0  0  0  0  0  0  0  0  0  0  0  0
    0.1771   -7.1681   -9.8844 H   0  0  0  0  0  0  0  0  0  0  0  0
   -1.8267   -6.2894  -10.9908 H   0  0  0  0  0  0  0  0  0  0  0  0
  1  2  2  0  0  0  0
  2  3  1  0  0  0  0
  3  4  1  0  0  0  0
  4  5  2  0  0  0  0
  5  6  1  0  0  0  0
  6  7  3  0  0  0  0
  5  8  1  0  0  0  0
  8  9  3  0  0  0  0
  4 10  1  0  0  0  0
 10 11  1  0  0  0  0
 11 12  1  0  0  0  0
 10 13  1  0  0  0  0
 13 14  2  0  0  0  0
  1 15  1  0  0  0  0
 15 16  2  0  0  0  0
 16 17  1  0  0  0  0
 17 18  2  0  0  0  0
 18 19  1  0  0  0  0
 19 20  1  0  0  0  0
 20 21  1  0  0  0  0
 18 22  1  0  0  0  0
 22 23  1  0  0  0  0
 23 24  1  0  0  0  0
 24 25  2  0  0  0  0
 25 26  1  0  0  0  0
 26 27  1  0  0  0  0
 24 28  1  0  0  0  0
 28 29  1  0  0  0  0
 29 30  1  0  0  0  0
 30 31  1  0  0  0  0
 31 32  1  0  0  0  0
 32 33  1  0  0  0  0
 33 34  1  0  0  0  0
 32 35  2  0  0  0  0
 35 36  1  0  0  0  0
 36 37  1  0  0  0  0
 37 38  1  0  0  0  0
 38 39  1  0  0  0  0
 39 40  1  0  0  0  0
 40 41  1  0  0  0  0
 41 42  1  0  0  0  0
 42 43  1  0  0  0  0
 43 44  1  0  0  0  0
 39 45  1  0  0  0  0
 45 46  1  0  0  0  0
 35 47  1  0  0  0  0
 47 48  2  0  0  0  0
 48 49  1  0  0  0  0
 49 50  2  0  0  0  0
 49 51  1  0  0  0  0
 51 52  2  0  0  0  0
 52 53  1  0  0  0  0
 53 54  2  0  0  0  0
 54 55  1  0  0  0  0
 55 56  1  0  0  0  0
 55 57  2  0  0  0  0
 57 58  1  0  0  0  0
 52 59  1  0  0  0  0
 59 60  2  0  0  0  0
 60 61  1  0  0  0  0
 61 62  3  0  0  0  0
 60 63  1  0  0  0  0
 63 64  3  0  0  0  0
 13  2  1  0  0  0  0
 19 15  1  0  0  0  0
 41 22  2  0  0  0  0
 59 48  1  0  0  0  0
 42 17  1  0  0  0  0
 57 51  1  0  0  0  0
 27 23  2  0  0  0  0
 40 28  2  0  0  0  0
 38 29  2  0  0  0  0
 37 31  2  0  0  0  0
  1 65  1  0  0  0  0
 11 66  1  0  0  0  0
 11 67  1  0  0  0  0
 12 68  1  0  0  0  0
 12 69  1  0  0  0  0
 12 70  1  0  0  0  0
 16 71  1  0  0  0  0
 20 72  1  0  0  0  0
 20 73  1  0  0  0  0
 21 74  1  0  0  0  0
 21 75  1  0  0  0  0
 21 76  1  0  0  0  0
 33 77  1  0  0  0  0
 33 78  1  0  0  0  0
 34 79  1  0  0  0  0
 34 80  1  0  0  0  0
 34 81  1  0  0  0  0
 43 82  1  0  0  0  0
 43 83  1  0  0  0  0
 44 84  1  0  0  0  0
 44 85  1  0  0  0  0
 44 86  1  0  0  0  0
 45 87  1  0  0  0  0
 45 88  1  0  0  0  0
 46 89  1  0  0  0  0
 46 90  1  0  0  0  0
 46 91  1  0  0  0  0
 47 92  1  0  0  0  0
 53 93  1  0  0  0  0
 54 94  1  0  0  0  0
M  END
