
  xtb     02022206263D
 energy: -220.293598649554 gnorm: 0.000701849985 xtb: 6.4.1 (unknown)
129144  0     0  0            999 V2000
    2.6282    2.8978   -7.8620 C   0  0  0  0  0  0  0  0  0  0  0  0
    2.5570    1.6907   -8.4805 C   0  0  0  0  0  0  0  0  0  0  0  0
    1.9868    0.1869   -7.7926 S   0  0  0  0  0  0  0  0  0  0  0  0
    2.2472   -0.6454   -9.3138 C   0  0  0  0  0  0  0  0  0  0  0  0
    1.9442   -1.9806   -9.4136 C   0  0  0  0  0  0  0  0  0  0  0  0
    1.4307   -2.6506   -8.2840 C   0  0  0  0  0  0  0  0  0  0  0  0
    1.0119   -3.1987   -7.3671 N   0  0  0  0  0  0  0  0  0  0  0  0
    2.0900   -2.7935  -10.5498 C   0  0  0  0  0  0  0  0  0  0  0  0
    2.1878   -3.5143  -11.4389 N   0  0  0  0  0  0  0  0  0  0  0  0
    2.7305    0.1902  -10.2668 N   0  0  0  0  0  0  0  0  0  0  0  0
    3.0804   -0.1995  -11.6201 C   0  0  0  0  0  0  0  0  0  0  0  0
    4.4676   -0.8271  -11.6833 C   0  0  0  0  0  0  0  0  0  0  0  0
    2.9322    1.5100   -9.8743 C   0  0  0  0  0  0  0  0  0  0  0  0
    3.3400    2.3708  -10.6231 O   0  0  0  0  0  0  0  0  0  0  0  0
    2.2427    3.2248   -6.5524 C   0  0  0  0  0  0  0  0  0  0  0  0
    2.2403    4.5097   -6.0112 C   0  0  0  0  0  0  0  0  0  0  0  0
    2.6436    5.7273   -6.7297 C   0  0  0  0  0  0  0  0  0  0  0  0
    3.7752    6.3942   -6.2641 C   0  0  0  0  0  0  0  0  0  0  0  0
    4.2167    7.5486   -6.8780 C   0  0  0  0  0  0  0  0  0  0  0  0
    3.5131    8.0593   -7.9560 C   0  0  0  0  0  0  0  0  0  0  0  0
    2.3758    7.4150   -8.4030 C   0  0  0  0  0  0  0  0  0  0  0  0
    1.9224    6.2414   -7.8104 C   0  0  0  0  0  0  0  0  0  0  0  0
    0.6467    5.6141   -8.3058 C   0  0  0  0  0  0  0  0  0  0  0  0
    0.7169    5.1947   -9.7753 C   0  0  0  0  0  0  0  0  0  0  0  0
    1.8383    4.4972   -4.6727 C   0  0  0  0  0  0  0  0  0  0  0  0
    1.6244    5.7666   -3.4900 S   0  0  0  0  0  0  0  0  0  0  0  0
    1.1127    4.5755   -2.3434 C   0  0  0  0  0  0  0  0  0  0  0  0
    0.6651    4.5060   -1.0133 C   0  0  0  0  0  0  0  0  0  0  0  0
    0.3113    5.4895   -0.0603 C   0  0  0  0  0  0  0  0  0  0  0  0
   -0.2885    5.0785    1.1829 C   0  0  0  0  0  0  0  0  0  0  0  0
   -0.6396    6.1082    1.9353 N   0  0  0  0  0  0  0  0  0  0  0  0
   -0.2452    7.4738    1.1609 S   0  0  0  0  0  0  0  0  0  0  0  0
    0.3874    6.8057   -0.1706 N   0  0  0  0  0  0  0  0  0  0  0  0
   -0.3621    3.6998    1.4910 C   0  0  0  0  0  0  0  0  0  0  0  0
   -0.7303    2.9934    2.6476 C   0  0  0  0  0  0  0  0  0  0  0  0
   -1.4127    3.3030    4.2081 S   0  0  0  0  0  0  0  0  0  0  0  0
   -1.2526    1.5972    4.5782 C   0  0  0  0  0  0  0  0  0  0  0  0
   -1.5408    0.8505    5.7134 C   0  0  0  0  0  0  0  0  0  0  0  0
   -2.1549    1.4031    6.9306 C   0  0  0  0  0  0  0  0  0  0  0  0
   -1.4361    1.5478    8.1196 C   0  0  0  0  0  0  0  0  0  0  0  0
    0.0333    1.2406    8.1925 C   0  0  0  0  0  0  0  0  0  0  0  0
    0.8458    2.4335    7.6835 C   0  0  0  0  0  0  0  0  0  0  0  0
   -2.0897    2.0672    9.2283 C   0  0  0  0  0  0  0  0  0  0  0  0
   -3.4210    2.4344    9.1710 C   0  0  0  0  0  0  0  0  0  0  0  0
   -4.1225    2.3035    7.9854 C   0  0  0  0  0  0  0  0  0  0  0  0
   -3.4889    1.7932    6.8692 C   0  0  0  0  0  0  0  0  0  0  0  0
   -1.2051   -0.5030    5.5427 C   0  0  0  0  0  0  0  0  0  0  0  0
   -0.5136   -0.8243    3.9551 S   0  0  0  0  0  0  0  0  0  0  0  0
   -0.6918    0.8400    3.5353 C   0  0  0  0  0  0  0  0  0  0  0  0
   -0.4069    1.6457    2.4298 C   0  0  0  0  0  0  0  0  0  0  0  0
    0.1164    1.4849    1.1708 N   0  0  0  0  0  0  0  0  0  0  0  0
    0.1196    2.7285    0.5722 C   0  0  0  0  0  0  0  0  0  0  0  0
    0.4639    3.1281   -0.7367 C   0  0  0  0  0  0  0  0  0  0  0  0
    0.7070    2.3857   -1.8767 N   0  0  0  0  0  0  0  0  0  0  0  0
    1.1104    3.2674   -2.8492 C   0  0  0  0  0  0  0  0  0  0  0  0
    1.5164    3.2212   -4.1844 C   0  0  0  0  0  0  0  0  0  0  0  0
    1.7213    2.0061   -5.3917 S   0  0  0  0  0  0  0  0  0  0  0  0
    0.0731    1.1317   -2.2360 C   0  0  0  0  0  0  0  0  0  0  0  0
   -1.1462    1.3630   -3.1276 C   0  0  0  0  0  0  0  0  0  0  0  0
    1.0152    0.3834    0.8868 C   0  0  0  0  0  0  0  0  0  0  0  0
    2.2238    0.4036    1.8218 C   0  0  0  0  0  0  0  0  0  0  0  0
   -1.4311   -1.4453    6.5547 C   0  0  0  0  0  0  0  0  0  0  0  0
   -1.1269   -2.7806    6.6115 C   0  0  0  0  0  0  0  0  0  0  0  0
   -0.4847   -3.5614    5.5509 C   0  0  0  0  0  0  0  0  0  0  0  0
   -0.1319   -3.1688    4.4501 O   0  0  0  0  0  0  0  0  0  0  0  0
   -0.3430   -4.9305    6.0704 C   0  0  0  0  0  0  0  0  0  0  0  0
    0.2260   -6.0202    5.4160 C   0  0  0  0  0  0  0  0  0  0  0  0
    0.2278   -7.1776    6.1565 C   0  0  0  0  0  0  0  0  0  0  0  0
   -0.2948   -7.2442    7.4548 C   0  0  0  0  0  0  0  0  0  0  0  0
   -0.8582   -6.1758    8.1115 C   0  0  0  0  0  0  0  0  0  0  0  0
   -0.8750   -4.9883    7.3747 C   0  0  0  0  0  0  0  0  0  0  0  0
   -1.3734   -3.6613    7.7359 C   0  0  0  0  0  0  0  0  0  0  0  0
   -1.9520   -3.3312    8.9349 C   0  0  0  0  0  0  0  0  0  0  0  0
   -2.4031   -2.0502    9.3174 C   0  0  0  0  0  0  0  0  0  0  0  0
   -2.7875   -1.0467    9.7243 N   0  0  0  0  0  0  0  0  0  0  0  0
   -2.1805   -4.2424    9.9876 C   0  0  0  0  0  0  0  0  0  0  0  0
   -2.4042   -4.9228   10.8852 N   0  0  0  0  0  0  0  0  0  0  0  0
    0.0336   -8.7091    7.5975 C   0  0  0  0  0  0  0  0  0  0  0  0
   -1.1261   -9.7249    7.4523 C   0  0  0  0  0  0  0  0  0  0  0  0
   -2.1635   -9.0681    6.5758 C   0  0  0  0  0  0  0  0  0  0  0  0
   -1.6724   -9.0046    5.3454 C   0  0  0  0  0  0  0  0  0  0  0  0
   -0.2940   -9.6176    5.3676 C   0  0  0  0  0  0  0  0  0  0  0  0
   -0.4950  -10.6973    6.4430 C   0  0  0  0  0  0  0  0  0  0  0  0
    0.6132   -8.6354    6.1496 C   0  0  0  0  0  0  0  0  0  0  0  0
    3.0199    3.7124   -8.4598 H   0  0  0  0  0  0  0  0  0  0  0  0
    2.3239   -0.8853  -12.0052 H   0  0  0  0  0  0  0  0  0  0  0  0
    3.0660    0.7242  -12.2057 H   0  0  0  0  0  0  0  0  0  0  0  0
    4.7032   -1.0714  -12.7146 H   0  0  0  0  0  0  0  0  0  0  0  0
    4.5114   -1.7422  -11.0974 H   0  0  0  0  0  0  0  0  0  0  0  0
    5.2126   -0.1280  -11.3098 H   0  0  0  0  0  0  0  0  0  0  0  0
    4.3119    5.9881   -5.4191 H   0  0  0  0  0  0  0  0  0  0  0  0
    5.1002    8.0503   -6.5136 H   0  0  0  0  0  0  0  0  0  0  0  0
    3.8441    8.9662   -8.4395 H   0  0  0  0  0  0  0  0  0  0  0  0
    1.8162    7.8359   -9.2252 H   0  0  0  0  0  0  0  0  0  0  0  0
   -0.1584    6.3465   -8.1925 H   0  0  0  0  0  0  0  0  0  0  0  0
    0.3909    4.7482   -7.6936 H   0  0  0  0  0  0  0  0  0  0  0  0
    0.9083    6.0519  -10.4151 H   0  0  0  0  0  0  0  0  0  0  0  0
    1.5067    4.4667   -9.9426 H   0  0  0  0  0  0  0  0  0  0  0  0
   -0.2284    4.7491  -10.0771 H   0  0  0  0  0  0  0  0  0  0  0  0
    0.2779    0.3604    7.5955 H   0  0  0  0  0  0  0  0  0  0  0  0
    0.3072    1.0314    9.2281 H   0  0  0  0  0  0  0  0  0  0  0  0
    0.6306    3.3180    8.2783 H   0  0  0  0  0  0  0  0  0  0  0  0
    1.9109    2.2222    7.7456 H   0  0  0  0  0  0  0  0  0  0  0  0
    0.5947    2.6511    6.6477 H   0  0  0  0  0  0  0  0  0  0  0  0
   -1.5429    2.1774   10.1531 H   0  0  0  0  0  0  0  0  0  0  0  0
   -3.9104    2.8242   10.0506 H   0  0  0  0  0  0  0  0  0  0  0  0
   -5.1608    2.5937    7.9291 H   0  0  0  0  0  0  0  0  0  0  0  0
   -4.0278    1.6788    5.9396 H   0  0  0  0  0  0  0  0  0  0  0  0
   -0.2572    0.6277   -1.3298 H   0  0  0  0  0  0  0  0  0  0  0  0
    0.8026    0.5062   -2.7599 H   0  0  0  0  0  0  0  0  0  0  0  0
   -0.8618    1.8200   -4.0710 H   0  0  0  0  0  0  0  0  0  0  0  0
   -1.8613    2.0116   -2.6258 H   0  0  0  0  0  0  0  0  0  0  0  0
   -1.6244    0.4109   -3.3385 H   0  0  0  0  0  0  0  0  0  0  0  0
    1.3723    0.4663   -0.1378 H   0  0  0  0  0  0  0  0  0  0  0  0
    0.4671   -0.5552    1.0131 H   0  0  0  0  0  0  0  0  0  0  0  0
    1.9193    0.2643    2.8548 H   0  0  0  0  0  0  0  0  0  0  0  0
    2.9010   -0.4019    1.5528 H   0  0  0  0  0  0  0  0  0  0  0  0
    2.7521    1.3508    1.7346 H   0  0  0  0  0  0  0  0  0  0  0  0
   -1.9123   -1.0139    7.4248 H   0  0  0  0  0  0  0  0  0  0  0  0
    0.6209   -5.9220    4.4168 H   0  0  0  0  0  0  0  0  0  0  0  0
   -1.2530   -6.2466    9.1110 H   0  0  0  0  0  0  0  0  0  0  0  0
    0.7138   -8.9682    8.4065 H   0  0  0  0  0  0  0  0  0  0  0  0
   -1.4835  -10.1387    8.3914 H   0  0  0  0  0  0  0  0  0  0  0  0
   -3.0951   -8.6772    6.9412 H   0  0  0  0  0  0  0  0  0  0  0  0
   -2.1119   -8.5500    4.4769 H   0  0  0  0  0  0  0  0  0  0  0  0
    0.1059   -9.9349    4.4080 H   0  0  0  0  0  0  0  0  0  0  0  0
   -1.1812  -11.4822    6.1286 H   0  0  0  0  0  0  0  0  0  0  0  0
    0.4365  -11.1408    6.7920 H   0  0  0  0  0  0  0  0  0  0  0  0
    1.6715   -8.8494    6.0122 H   0  0  0  0  0  0  0  0  0  0  0  0
  1  2  2  0  0  0  0
  2  3  1  0  0  0  0
  3  4  1  0  0  0  0
  4  5  2  0  0  0  0
  5  6  1  0  0  0  0
  6  7  3  0  0  0  0
  5  8  1  0  0  0  0
  8  9  3  0  0  0  0
  4 10  1  0  0  0  0
 10 11  1  0  0  0  0
 11 12  1  0  0  0  0
 10 13  1  0  0  0  0
 13 14  2  0  0  0  0
  1 15  1  0  0  0  0
 15 16  2  0  0  0  0
 16 17  1  0  0  0  0
 17 18  2  0  0  0  0
 18 19  1  0  0  0  0
 19 20  2  0  0  0  0
 20 21  1  0  0  0  0
 21 22  2  0  0  0  0
 22 23  1  0  0  0  0
 23 24  1  0  0  0  0
 16 25  1  0  0  0  0
 25 26  1  0  0  0  0
 26 27  1  0  0  0  0
 27 28  1  0  0  0  0
 28 29  1  0  0  0  0
 29 30  1  0  0  0  0
 30 31  2  0  0  0  0
 31 32  1  0  0  0  0
 32 33  1  0  0  0  0
 30 34  1  0  0  0  0
 34 35  1  0  0  0  0
 35 36  1  0  0  0  0
 36 37  1  0  0  0  0
 37 38  1  0  0  0  0
 38 39  1  0  0  0  0
 39 40  2  0  0  0  0
 40 41  1  0  0  0  0
 41 42  1  0  0  0  0
 40 43  1  0  0  0  0
 43 44  2  0  0  0  0
 44 45  1  0  0  0  0
 45 46  2  0  0  0  0
 38 47  2  0  0  0  0
 47 48  1  0  0  0  0
 48 49  1  0  0  0  0
 49 50  1  0  0  0  0
 50 51  1  0  0  0  0
 51 52  1  0  0  0  0
 52 53  1  0  0  0  0
 53 54  1  0  0  0  0
 54 55  1  0  0  0  0
 55 56  1  0  0  0  0
 56 57  1  0  0  0  0
 54 58  1  0  0  0  0
 58 59  1  0  0  0  0
 51 60  1  0  0  0  0
 60 61  1  0  0  0  0
 47 62  1  0  0  0  0
 62 63  2  0  0  0  0
 63 64  1  0  0  0  0
 64 65  2  0  0  0  0
 64 66  1  0  0  0  0
 66 67  2  0  0  0  0
 67 68  1  0  0  0  0
 68 69  2  0  0  0  0
 69 70  1  0  0  0  0
 70 71  2  0  0  0  0
 71 72  1  0  0  0  0
 72 73  2  0  0  0  0
 73 74  1  0  0  0  0
 74 75  3  0  0  0  0
 73 76  1  0  0  0  0
 76 77  3  0  0  0  0
 69 78  1  0  0  0  0
 78 79  1  0  0  0  0
 79 80  1  0  0  0  0
 80 81  2  0  0  0  0
 81 82  1  0  0  0  0
 82 83  1  0  0  0  0
 82 84  1  0  0  0  0
 13  2  1  0  0  0  0
 57 15  1  0  0  0  0
 72 63  1  0  0  0  0
 84 78  1  0  0  0  0
 22 17  1  0  0  0  0
 56 25  2  0  0  0  0
 71 66  1  0  0  0  0
 83 79  1  0  0  0  0
 55 27  2  0  0  0  0
 84 68  1  0  0  0  0
 53 28  2  0  0  0  0
 33 29  2  0  0  0  0
 52 34  2  0  0  0  0
 50 35  2  0  0  0  0
 49 37  2  0  0  0  0
 46 39  1  0  0  0  0
  1 85  1  0  0  0  0
 11 86  1  0  0  0  0
 11 87  1  0  0  0  0
 12 88  1  0  0  0  0
 12 89  1  0  0  0  0
 12 90  1  0  0  0  0
 18 91  1  0  0  0  0
 19 92  1  0  0  0  0
 20 93  1  0  0  0  0
 21 94  1  0  0  0  0
 23 95  1  0  0  0  0
 23 96  1  0  0  0  0
 24 97  1  0  0  0  0
 24 98  1  0  0  0  0
 24 99  1  0  0  0  0
 41100  1  0  0  0  0
 41101  1  0  0  0  0
 42102  1  0  0  0  0
 42103  1  0  0  0  0
 42104  1  0  0  0  0
 43105  1  0  0  0  0
 44106  1  0  0  0  0
 45107  1  0  0  0  0
 46108  1  0  0  0  0
 58109  1  0  0  0  0
 58110  1  0  0  0  0
 59111  1  0  0  0  0
 59112  1  0  0  0  0
 59113  1  0  0  0  0
 60114  1  0  0  0  0
 60115  1  0  0  0  0
 61116  1  0  0  0  0
 61117  1  0  0  0  0
 61118  1  0  0  0  0
 62119  1  0  0  0  0
 67120  1  0  0  0  0
 70121  1  0  0  0  0
 78122  1  0  0  0  0
 79123  1  0  0  0  0
 80124  1  0  0  0  0
 81125  1  0  0  0  0
 82126  1  0  0  0  0
 83127  1  0  0  0  0
 83128  1  0  0  0  0
 84129  1  0  0  0  0
M  END
