91

C          3.94830       -2.62800        6.73320
C          5.12410       -3.25830        6.44580
S          5.52120       -4.74280        7.31030
C          6.88190       -5.05160        6.26130
C          7.62770       -6.19490        6.40810
C          7.28540       -7.11660        7.41980
N          7.01460       -7.87450        8.23700
C          8.72790       -6.58760        5.62800
N          9.62450       -6.97470        5.02280
N          7.04670       -4.04270        5.36700
C          8.06620       -4.01060        4.33430
C          7.63300       -4.79110        3.09880
C          6.12510       -3.00260        5.42220
O          6.20970       -2.04460        4.67870
C          3.33200       -1.51570        6.12640
S          1.59540       -1.31660        6.44080
C          1.53230       -0.04880        5.29370
C          0.59770        0.72290        4.59300
C         -0.81360        0.66060        4.56700
C         -1.50850        1.30210        3.48840
N         -2.81210        1.07710        3.52530
S         -3.13920        0.15140        4.81000
N         -1.62690       -0.01100        5.36630
C         -0.77300        2.08330        2.57020
C         -1.16700        2.76310        1.40690
C         -0.03790        3.45590        0.93680
N          1.03890        3.21160        1.75630
C          2.15080        4.13910        1.79000
C          2.29180        4.80590        3.15540
C          0.62290        2.31420        2.73180
C          1.33350        1.51950        3.66580
N          2.67890        1.23240        3.81540
C          2.79890        0.24970        4.76370
C          3.81630       -0.57730        5.23030
C          3.79070        1.53660        2.94440
C          3.61030        0.92160        1.55870
C         -0.26370        4.11340       -0.26220
C         -1.54480        3.85420       -0.75450
S         -2.50470        2.86260        0.34320
C         -1.91820        4.25360       -2.05260
C         -2.93510        3.79850       -2.84380
C         -3.91670        2.76370       -2.47960
O         -4.21880        2.39020       -1.36250
C         -4.45560        2.25390       -3.75180
C         -5.28070        1.14510       -3.92550
C         -5.53420        0.84080       -5.24130
C         -5.01780        1.59120       -6.30660
C         -4.22490        2.70340       -6.14810
C         -3.94330        3.02340       -4.81630
C         -3.08620        4.06910       -4.26250
C         -2.55170        5.12110       -4.95770
C         -1.76020        6.14080       -4.38870
N         -1.11230        7.00290       -3.99320
C         -2.75430        5.34670       -6.33520
N         -2.87750        5.58470       -7.45150
C         -5.62260        0.67940       -7.34540
C         -4.65670       -0.31800       -8.02120
C         -5.57160       -1.37170       -8.60280
C         -6.06480       -2.07920       -7.59440
C         -5.49160       -1.51540       -6.31440
C         -4.10540       -1.08740       -6.81360
C         -6.20200       -0.15350       -6.15730
H          3.34630       -3.10430        7.49920
H          8.19730       -2.95590        4.07680
H          9.00030       -4.40350        4.73720
H          8.40570       -4.71960        2.33930
H          7.48120       -5.84200        3.33300
H          6.70910       -4.37820        2.69950
H          1.93420        4.90470        1.04200
H          3.07960        3.64910        1.48830
H          3.12150        5.50780        3.13880
H          2.46830        4.07400        3.93970
H          1.38230        5.35030        3.39880
H          4.84730       -0.54950        4.93610
H          3.94150        2.61480        2.88810
H          4.67860        1.10840        3.41310
H          2.70000        1.27790        1.08290
H          4.45900        1.17380        0.92860
H          3.55140       -0.16110        1.64120
H          0.45120        4.70030       -0.81080
H         -1.20720        4.93100       -2.51230
H         -5.65000        0.59050       -3.07720
H         -3.83180        3.26930       -6.97640
H         -6.31430        1.14310       -8.04560
H         -3.93730        0.13350       -8.69880
H         -5.80010       -1.45640       -9.64890
H         -6.78770       -2.87290       -7.62940
H         -5.53260       -2.15430       -5.43630
H         -3.49530       -1.93840       -7.11220
H         -3.54940       -0.47160       -6.10890
H         -7.28200       -0.24420       -6.06130
