116

C         -5.34030        2.15980       -4.62260
C         -5.93960        2.38200       -5.82080
S         -5.22500        2.61290       -7.39740
C         -6.80910        2.72110       -8.14040
C         -6.89930        2.95480       -9.48970
C         -5.70920        3.11510      -10.23010
N         -4.74310        3.25330      -10.83310
C         -8.07630        3.06530      -10.24830
N         -8.99990        3.16110      -10.92480
N         -7.80550        2.57710       -7.23090
C         -9.22350        2.56080       -7.54070
C         -9.66830        1.19640       -8.05320
C         -7.39960        2.38240       -5.91740
O         -8.17370        2.24270       -4.99730
C         -3.97940        2.07810       -4.25570
C         -2.79770        2.41700       -4.90340
C         -2.64410        3.11240       -6.18900
C         -2.03600        2.42490       -7.23650
C         -1.85400        3.03200       -8.46320
C         -2.25470        4.34450       -8.64360
C         -2.82000        5.04250       -7.59240
C         -3.02790        4.44710       -6.35490
C         -3.58990        5.25440       -5.21860
C         -2.47000        5.72510       -4.28820
C         -1.67600        2.03700       -4.15150
S          0.03690        2.17640       -4.47030
C          0.34670        1.42060       -2.94500
C          1.43790        0.97480       -2.18720
C          2.81520        0.93750       -2.49640
C          3.70890        0.28900       -1.58500
N          4.95790        0.27470       -2.02400
S          5.00430        1.02060       -3.45930
N          3.43270        1.38670       -3.57800
C          3.19850       -0.19600       -0.36100
C          3.85490       -0.76840        0.73610
S          5.44890       -1.25130        1.19800
C          4.82180       -1.70400        2.76610
C          5.43330       -2.21650        3.91220
C          6.85470       -2.57650        3.98310
C          7.75240       -1.93120        4.83860
C          7.34590       -0.74480        5.66370
C          7.31080        0.51400        4.79450
C          9.07820       -2.34550        4.83160
C          9.51220       -3.36900        4.00920
C          8.62000       -3.99110        3.15290
C          7.29890       -3.58990        3.13710
C          4.51950       -2.38100        4.95390
S          2.88450       -1.92650        4.47140
C          3.44260       -1.48130        2.90220
C          2.89010       -0.95220        1.73510
N          1.66300       -0.54280        1.28580
C          1.82090       -0.07920       -0.01090
C          0.91310        0.42030       -0.98310
N         -0.46910        0.50760       -1.03590
C         -0.80730        1.09860       -2.22240
C         -1.97180        1.44650       -2.91620
S         -3.67490        1.34890       -2.67280
C         -1.48160       -0.18360       -0.26990
C         -1.32660       -1.69870       -0.37450
C          0.60790       -0.29600        2.24510
C          0.37470        1.19830        2.45000
C          4.81000       -2.97700        6.19290
C          4.04590       -3.06080        7.32350
C          4.30690       -4.14230        8.30290
O          5.28150       -4.85470        8.36660
C          3.08660       -4.19630        9.14550
C          2.76430       -5.09740       10.13930
C          1.53740       -4.96310       10.77950
Cl         1.07420       -6.05540       12.02490
C          0.67570       -3.93010       10.40400
F         -0.50950       -3.81660       11.01590
C          0.99720       -3.01220        9.41600
C          2.21940       -3.15080        8.78010
C          2.86950       -2.34230        7.75130
C          2.56980       -1.03330        7.46880
C          3.44170       -0.18660        6.75410
N          4.15860        0.54380        6.23370
C          1.41930       -0.36870        7.93370
N          0.47930        0.20860        8.25220
H         -6.04610        1.97010       -3.81850
H         -9.44170        3.34150       -8.27120
H         -9.73470        2.78790       -6.60110
H        -10.73740        1.21540       -8.24120
H         -9.16300        0.94300       -8.98210
H         -9.45650        0.42960       -7.31140
H         -1.73180        1.39950       -7.08480
H         -1.40550        2.48320       -9.27620
H         -2.12680        4.82230       -9.60210
H         -3.11610        6.07230       -7.73230
H         -4.11030        6.12610       -5.61980
H         -4.31090        4.66750       -4.64700
H         -1.95600        4.87510       -3.84540
H         -2.87620        6.33910       -3.48790
H         -1.74160        6.31200       -4.84280
H          8.06300       -0.60370        6.47410
H          6.36090       -0.88940        6.10760
H          6.59700        0.39450        3.98310
H          7.00760        1.36890        5.39200
H          8.29100        0.70950        4.36500
H          9.78220       -1.85090        5.48500
H         10.54730       -3.67510        4.02990
H          8.95050       -4.78390        2.49930
H          6.59240       -4.07110        2.47640
H         -2.44520        0.10900       -0.69420
H         -1.47420        0.15320        0.76680
H         -1.44830       -2.01380       -1.40820
H         -2.08480       -2.19120        0.22800
H         -0.34390       -2.01930       -0.03660
H          0.93720       -0.73850        3.18830
H         -0.30650       -0.81280        1.95380
H          0.11750        1.69030        1.51480
H         -0.43000        1.35230        3.16370
H          1.27590        1.66380        2.84230
H          5.74350       -3.53280        6.22340
H          3.44890       -5.88460       10.41160
H          0.29160       -2.23540        9.16920
