
  xtb     01212212503D
 energy: -238.000568212926 gnorm: 0.000333777892 xtb: 6.4.1 (unknown)
141152  0     0  0            999 V2000
   -3.1528    4.8215    3.4823 C   0  0  0  0  0  0  0  0  0  0  0  0
   -2.4230    5.7598    4.1410 C   0  0  0  0  0  0  0  0  0  0  0  0
   -0.6989    5.7037    4.4443 S   0  0  0  0  0  0  0  0  0  0  0  0
   -0.7126    7.3443    5.0556 C   0  0  0  0  0  0  0  0  0  0  0  0
    0.4747    7.9333    5.4161 C   0  0  0  0  0  0  0  0  0  0  0  0
    0.6486    9.2231    5.9449 C   0  0  0  0  0  0  0  0  0  0  0  0
    0.8577   10.2622    6.3875 N   0  0  0  0  0  0  0  0  0  0  0  0
    1.6691    7.2063    5.2382 C   0  0  0  0  0  0  0  0  0  0  0  0
    2.6407    6.6150    5.0834 N   0  0  0  0  0  0  0  0  0  0  0  0
   -1.9674    7.8562    5.0854 N   0  0  0  0  0  0  0  0  0  0  0  0
   -2.3197    9.1645    5.6055 C   0  0  0  0  0  0  0  0  0  0  0  0
   -2.4271    9.1523    7.1256 C   0  0  0  0  0  0  0  0  0  0  0  0
   -2.9769    7.0298    4.5938 C   0  0  0  0  0  0  0  0  0  0  0  0
   -4.1382    7.3649    4.5429 O   0  0  0  0  0  0  0  0  0  0  0  0
   -2.6446    3.6105    2.9659 C   0  0  0  0  0  0  0  0  0  0  0  0
   -1.4472    2.9820    3.2775 C   0  0  0  0  0  0  0  0  0  0  0  0
   -1.1957    1.8944    2.4584 C   0  0  0  0  0  0  0  0  0  0  0  0
   -0.0300    0.9696    2.2377 C   0  0  0  0  0  0  0  0  0  0  0  0
    0.1767   -0.0404    3.3506 C   0  0  0  0  0  0  0  0  0  0  0  0
   -0.8619   -0.4037    4.1915 C   0  0  0  0  0  0  0  0  0  0  0  0
   -0.6879   -1.3617    5.1760 C   0  0  0  0  0  0  0  0  0  0  0  0
    0.5450   -1.9856    5.3310 C   0  0  0  0  0  0  0  0  0  0  0  0
    0.8519   -2.9221    6.2669 O   0  0  0  0  0  0  0  0  0  0  0  0
   -0.1558   -3.4272    7.1194 C   0  0  0  0  0  0  0  0  0  0  0  0
   -1.0675   -4.4330    6.4222 C   0  0  0  0  0  0  0  0  0  0  0  0
    1.5908   -1.6250    4.4775 C   0  0  0  0  0  0  0  0  0  0  0  0
    1.4077   -0.6703    3.5026 C   0  0  0  0  0  0  0  0  0  0  0  0
    1.1782    1.8689    2.0469 C   0  0  0  0  0  0  0  0  0  0  0  0
    1.7458    2.4632    3.1663 C   0  0  0  0  0  0  0  0  0  0  0  0
    2.7533    3.4015    3.0534 C   0  0  0  0  0  0  0  0  0  0  0  0
    3.2234    3.7658    1.7939 C   0  0  0  0  0  0  0  0  0  0  0  0
    4.1784    4.6937    1.5444 O   0  0  0  0  0  0  0  0  0  0  0  0
    4.8381    5.3366    2.6234 C   0  0  0  0  0  0  0  0  0  0  0  0
    5.9046    4.4535    3.2641 C   0  0  0  0  0  0  0  0  0  0  0  0
    2.6656    3.1541    0.6686 C   0  0  0  0  0  0  0  0  0  0  0  0
    1.6498    2.2294    0.7922 C   0  0  0  0  0  0  0  0  0  0  0  0
   -0.4969    0.2171    1.0044 C   0  0  0  0  0  0  0  0  0  0  0  0
   -1.7985    0.6273    0.6182 C   0  0  0  0  0  0  0  0  0  0  0  0
   -2.1861    1.6757    1.5092 C   0  0  0  0  0  0  0  0  0  0  0  0
   -3.4854    2.7854    1.6586 S   0  0  0  0  0  0  0  0  0  0  0  0
   -2.4618    0.0504   -0.4622 C   0  0  0  0  0  0  0  0  0  0  0  0
   -1.7994   -0.9376   -1.1525 C   0  0  0  0  0  0  0  0  0  0  0  0
   -2.2787   -1.7148   -2.3676 C   0  0  0  0  0  0  0  0  0  0  0  0
   -2.6352   -0.7299   -3.4643 C   0  0  0  0  0  0  0  0  0  0  0  0
   -1.6791   -0.2849   -4.3700 C   0  0  0  0  0  0  0  0  0  0  0  0
   -2.0040    0.6416   -5.3364 C   0  0  0  0  0  0  0  0  0  0  0  0
   -3.2967    1.1623   -5.4225 C   0  0  0  0  0  0  0  0  0  0  0  0
   -3.4918    2.0803   -6.4055 O   0  0  0  0  0  0  0  0  0  0  0  0
   -4.7861    2.5949   -6.6465 C   0  0  0  0  0  0  0  0  0  0  0  0
   -5.6798    1.6095   -7.3942 C   0  0  0  0  0  0  0  0  0  0  0  0
   -4.2512    0.7309   -4.5071 C   0  0  0  0  0  0  0  0  0  0  0  0
   -3.9145   -0.2005   -3.5407 C   0  0  0  0  0  0  0  0  0  0  0  0
   -3.4209   -2.6698   -2.0680 C   0  0  0  0  0  0  0  0  0  0  0  0
   -4.0753   -3.2921   -3.1214 C   0  0  0  0  0  0  0  0  0  0  0  0
   -5.0833   -4.2127   -2.8994 C   0  0  0  0  0  0  0  0  0  0  0  0
   -5.4545   -4.5353   -1.5976 C   0  0  0  0  0  0  0  0  0  0  0  0
   -6.4254   -5.4198   -1.2562 O   0  0  0  0  0  0  0  0  0  0  0  0
   -7.1245   -6.1028   -2.2790 C   0  0  0  0  0  0  0  0  0  0  0  0
   -8.1282   -7.0296   -1.6118 C   0  0  0  0  0  0  0  0  0  0  0  0
   -4.7918   -3.9165   -0.5366 C   0  0  0  0  0  0  0  0  0  0  0  0
   -3.7862   -3.0025   -0.7695 C   0  0  0  0  0  0  0  0  0  0  0  0
   -1.0590   -2.5498   -2.6681 C   0  0  0  0  0  0  0  0  0  0  0  0
   -0.0593   -2.3176   -1.7190 C   0  0  0  0  0  0  0  0  0  0  0  0
   -0.4894   -1.3276   -0.7842 C   0  0  0  0  0  0  0  0  0  0  0  0
    0.1673   -0.7641    0.3081 C   0  0  0  0  0  0  0  0  0  0  0  0
    1.3542   -3.2391   -1.9764 S   0  0  0  0  0  0  0  0  0  0  0  0
    0.6082   -3.9819   -3.3857 C   0  0  0  0  0  0  0  0  0  0  0  0
   -0.6914   -3.4939   -3.5987 C   0  0  0  0  0  0  0  0  0  0  0  0
    1.1798   -4.9416   -4.2287 C   0  0  0  0  0  0  0  0  0  0  0  0
    2.4323   -5.5060   -4.2250 C   0  0  0  0  0  0  0  0  0  0  0  0
    3.5236   -5.1674   -3.3042 C   0  0  0  0  0  0  0  0  0  0  0  0
    3.4880   -4.4040   -2.3574 O   0  0  0  0  0  0  0  0  0  0  0  0
    4.6962   -5.9413   -3.7608 C   0  0  0  0  0  0  0  0  0  0  0  0
    5.9765   -5.9513   -3.2532 C   0  0  0  0  0  0  0  0  0  0  0  0
    6.9255   -6.7671   -3.8721 C   0  0  0  0  0  0  0  0  0  0  0  0
    8.3076   -6.7704   -3.3239 C   0  0  0  0  0  0  0  0  0  0  0  0
    8.6547   -6.1290   -2.3642 O   0  0  0  0  0  0  0  0  0  0  0  0
    9.1335   -7.5657   -4.0168 O   0  0  0  0  0  0  0  0  0  0  0  0
   10.4744   -7.6174   -3.5521 C   0  0  0  0  0  0  0  0  0  0  0  0
    6.5708   -7.5467   -4.9717 C   0  0  0  0  0  0  0  0  0  0  0  0
    5.2793   -7.5357   -5.4780 C   0  0  0  0  0  0  0  0  0  0  0  0
    4.3313   -6.7264   -4.8699 C   0  0  0  0  0  0  0  0  0  0  0  0
    2.9162   -6.4949   -5.1659 C   0  0  0  0  0  0  0  0  0  0  0  0
    2.2026   -7.1359   -6.1463 C   0  0  0  0  0  0  0  0  0  0  0  0
    0.8316   -6.9536   -6.4237 C   0  0  0  0  0  0  0  0  0  0  0  0
   -0.2773   -6.8752   -6.7144 N   0  0  0  0  0  0  0  0  0  0  0  0
    2.7451   -8.0995   -7.0225 C   0  0  0  0  0  0  0  0  0  0  0  0
    3.1141   -8.8895   -7.7694 N   0  0  0  0  0  0  0  0  0  0  0  0
   -4.1890    5.0706    3.2913 H   0  0  0  0  0  0  0  0  0  0  0  0
   -1.5808    9.8958    5.2729 H   0  0  0  0  0  0  0  0  0  0  0  0
   -3.2924    9.4051    5.1673 H   0  0  0  0  0  0  0  0  0  0  0  0
   -3.1746    8.4290    7.4435 H   0  0  0  0  0  0  0  0  0  0  0  0
   -1.4728    8.9040    7.5843 H   0  0  0  0  0  0  0  0  0  0  0  0
   -2.7246   10.1376    7.4711 H   0  0  0  0  0  0  0  0  0  0  0  0
   -0.8049    3.2911    4.0799 H   0  0  0  0  0  0  0  0  0  0  0  0
   -1.8299    0.0653    4.0869 H   0  0  0  0  0  0  0  0  0  0  0  0
   -1.5243   -1.6041    5.8125 H   0  0  0  0  0  0  0  0  0  0  0  0
   -0.7395   -2.6081    7.5578 H   0  0  0  0  0  0  0  0  0  0  0  0
    0.3951   -3.9231    7.9235 H   0  0  0  0  0  0  0  0  0  0  0  0
   -1.6024   -3.9680    5.5976 H   0  0  0  0  0  0  0  0  0  0  0  0
   -0.4744   -5.2531    6.0258 H   0  0  0  0  0  0  0  0  0  0  0  0
   -1.7877   -4.8287    7.1331 H   0  0  0  0  0  0  0  0  0  0  0  0
    2.5440   -2.1130    4.6045 H   0  0  0  0  0  0  0  0  0  0  0  0
    2.2308   -0.3993    2.8585 H   0  0  0  0  0  0  0  0  0  0  0  0
    1.3965    2.1860    4.1506 H   0  0  0  0  0  0  0  0  0  0  0  0
    3.1440    3.8540    3.9501 H   0  0  0  0  0  0  0  0  0  0  0  0
    4.1160    5.6856    3.3694 H   0  0  0  0  0  0  0  0  0  0  0  0
    5.3096    6.2103    2.1647 H   0  0  0  0  0  0  0  0  0  0  0  0
    6.6368    4.1540    2.5179 H   0  0  0  0  0  0  0  0  0  0  0  0
    5.4628    3.5563    3.6904 H   0  0  0  0  0  0  0  0  0  0  0  0
    6.4072    5.0067    4.0523 H   0  0  0  0  0  0  0  0  0  0  0  0
    3.0379    3.4373   -0.3033 H   0  0  0  0  0  0  0  0  0  0  0  0
    1.2203    1.7888   -0.0957 H   0  0  0  0  0  0  0  0  0  0  0  0
   -3.4539    0.3722   -0.7390 H   0  0  0  0  0  0  0  0  0  0  0  0
   -0.6710   -0.6690   -4.3228 H   0  0  0  0  0  0  0  0  0  0  0  0
   -1.2671    0.9860   -6.0444 H   0  0  0  0  0  0  0  0  0  0  0  0
   -4.6131    3.4802   -7.2647 H   0  0  0  0  0  0  0  0  0  0  0  0
   -5.2565    2.9172   -5.7094 H   0  0  0  0  0  0  0  0  0  0  0  0
   -6.6408    2.0716   -7.6029 H   0  0  0  0  0  0  0  0  0  0  0  0
   -5.8403    0.7077   -6.8083 H   0  0  0  0  0  0  0  0  0  0  0  0
   -5.2110    1.3287   -8.3339 H   0  0  0  0  0  0  0  0  0  0  0  0
   -5.2604    1.1110   -4.5275 H   0  0  0  0  0  0  0  0  0  0  0  0
   -4.6721   -0.5289   -2.8439 H   0  0  0  0  0  0  0  0  0  0  0  0
   -3.8011   -3.0480   -4.1373 H   0  0  0  0  0  0  0  0  0  0  0  0
   -5.5666   -4.6721   -3.7469 H   0  0  0  0  0  0  0  0  0  0  0  0
   -6.4219   -6.6831   -2.8929 H   0  0  0  0  0  0  0  0  0  0  0  0
   -7.6450   -5.3824   -2.9257 H   0  0  0  0  0  0  0  0  0  0  0  0
   -7.6096   -7.7384   -0.9721 H   0  0  0  0  0  0  0  0  0  0  0  0
   -8.8171   -6.4525   -1.0012 H   0  0  0  0  0  0  0  0  0  0  0  0
   -8.6885   -7.5732   -2.3669 H   0  0  0  0  0  0  0  0  0  0  0  0
   -5.0831   -4.1753    0.4690 H   0  0  0  0  0  0  0  0  0  0  0  0
   -3.2828   -2.5451    0.0692 H   0  0  0  0  0  0  0  0  0  0  0  0
    1.1604   -1.0848    0.5807 H   0  0  0  0  0  0  0  0  0  0  0  0
   -1.3003   -3.8370   -4.4158 H   0  0  0  0  0  0  0  0  0  0  0  0
    0.5067   -5.2640   -5.0143 H   0  0  0  0  0  0  0  0  0  0  0  0
    6.2499   -5.3468   -2.4019 H   0  0  0  0  0  0  0  0  0  0  0  0
   11.0056   -8.2806   -4.2297 H   0  0  0  0  0  0  0  0  0  0  0  0
   10.5069   -8.0037   -2.5313 H   0  0  0  0  0  0  0  0  0  0  0  0
   10.9179   -6.6197   -3.5628 H   0  0  0  0  0  0  0  0  0  0  0  0
    7.3199   -8.1690   -5.4352 H   0  0  0  0  0  0  0  0  0  0  0  0
    5.0362   -8.1478   -6.3308 H   0  0  0  0  0  0  0  0  0  0  0  0
  1  2  2  0  0  0  0
  2  3  1  0  0  0  0
  3  4  1  0  0  0  0
  4  5  2  0  0  0  0
  5  6  1  0  0  0  0
  6  7  3  0  0  0  0
  5  8  1  0  0  0  0
  8  9  3  0  0  0  0
  4 10  1  0  0  0  0
 10 11  1  0  0  0  0
 11 12  1  0  0  0  0
 10 13  1  0  0  0  0
 13 14  2  0  0  0  0
  1 15  1  0  0  0  0
 15 16  2  0  0  0  0
 16 17  1  0  0  0  0
 17 18  1  0  0  0  0
 18 19  1  0  0  0  0
 19 20  2  0  0  0  0
 20 21  1  0  0  0  0
 21 22  2  0  0  0  0
 22 23  1  0  0  0  0
 23 24  1  0  0  0  0
 24 25  1  0  0  0  0
 22 26  1  0  0  0  0
 26 27  2  0  0  0  0
 18 28  1  0  0  0  0
 28 29  2  0  0  0  0
 29 30  1  0  0  0  0
 30 31  2  0  0  0  0
 31 32  1  0  0  0  0
 32 33  1  0  0  0  0
 33 34  1  0  0  0  0
 31 35  1  0  0  0  0
 35 36  2  0  0  0  0
 18 37  1  0  0  0  0
 37 38  2  0  0  0  0
 38 39  1  0  0  0  0
 39 40  1  0  0  0  0
 38 41  1  0  0  0  0
 41 42  2  0  0  0  0
 42 43  1  0  0  0  0
 43 44  1  0  0  0  0
 44 45  2  0  0  0  0
 45 46  1  0  0  0  0
 46 47  2  0  0  0  0
 47 48  1  0  0  0  0
 48 49  1  0  0  0  0
 49 50  1  0  0  0  0
 47 51  1  0  0  0  0
 51 52  2  0  0  0  0
 43 53  1  0  0  0  0
 53 54  2  0  0  0  0
 54 55  1  0  0  0  0
 55 56  2  0  0  0  0
 56 57  1  0  0  0  0
 57 58  1  0  0  0  0
 58 59  1  0  0  0  0
 56 60  1  0  0  0  0
 60 61  2  0  0  0  0
 43 62  1  0  0  0  0
 62 63  2  0  0  0  0
 63 64  1  0  0  0  0
 64 65  2  0  0  0  0
 63 66  1  0  0  0  0
 66 67  1  0  0  0  0
 67 68  2  0  0  0  0
 67 69  1  0  0  0  0
 69 70  2  0  0  0  0
 70 71  1  0  0  0  0
 71 72  2  0  0  0  0
 71 73  1  0  0  0  0
 73 74  2  0  0  0  0
 74 75  1  0  0  0  0
 75 76  1  0  0  0  0
 76 77  2  0  0  0  0
 76 78  1  0  0  0  0
 78 79  1  0  0  0  0
 75 80  2  0  0  0  0
 80 81  1  0  0  0  0
 81 82  2  0  0  0  0
 82 83  1  0  0  0  0
 83 84  2  0  0  0  0
 84 85  1  0  0  0  0
 85 86  3  0  0  0  0
 84 87  1  0  0  0  0
 87 88  3  0  0  0  0
 13  2  1  0  0  0  0
 40 15  1  0  0  0  0
 64 42  1  0  0  0  0
 83 70  1  0  0  0  0
 39 17  2  0  0  0  0
 52 44  1  0  0  0  0
 61 53  1  0  0  0  0
 68 62  1  0  0  0  0
 82 73  1  0  0  0  0
 27 19  1  0  0  0  0
 36 28  1  0  0  0  0
 65 37  1  0  0  0  0
  1 89  1  0  0  0  0
 11 90  1  0  0  0  0
 11 91  1  0  0  0  0
 12 92  1  0  0  0  0
 12 93  1  0  0  0  0
 12 94  1  0  0  0  0
 16 95  1  0  0  0  0
 20 96  1  0  0  0  0
 21 97  1  0  0  0  0
 24 98  1  0  0  0  0
 24 99  1  0  0  0  0
 25100  1  0  0  0  0
 25101  1  0  0  0  0
 25102  1  0  0  0  0
 26103  1  0  0  0  0
 27104  1  0  0  0  0
 29105  1  0  0  0  0
 30106  1  0  0  0  0
 33107  1  0  0  0  0
 33108  1  0  0  0  0
 34109  1  0  0  0  0
 34110  1  0  0  0  0
 34111  1  0  0  0  0
 35112  1  0  0  0  0
 36113  1  0  0  0  0
 41114  1  0  0  0  0
 45115  1  0  0  0  0
 46116  1  0  0  0  0
 49117  1  0  0  0  0
 49118  1  0  0  0  0
 50119  1  0  0  0  0
 50120  1  0  0  0  0
 50121  1  0  0  0  0
 51122  1  0  0  0  0
 52123  1  0  0  0  0
 54124  1  0  0  0  0
 55125  1  0  0  0  0
 58126  1  0  0  0  0
 58127  1  0  0  0  0
 59128  1  0  0  0  0
 59129  1  0  0  0  0
 59130  1  0  0  0  0
 60131  1  0  0  0  0
 61132  1  0  0  0  0
 65133  1  0  0  0  0
 68134  1  0  0  0  0
 69135  1  0  0  0  0
 74136  1  0  0  0  0
 79137  1  0  0  0  0
 79138  1  0  0  0  0
 79139  1  0  0  0  0
 80140  1  0  0  0  0
 81141  1  0  0  0  0
M  END
