
  xtb     02012214463D
 energy: -210.246657349406 gnorm: 0.000425205551 xtb: 6.4.1 (unknown)
122135  0     0  0            999 V2000
   -2.2882   -3.0947   -8.5810 C   0  0  0  0  0  0  0  0  0  0  0  0
   -2.3433   -2.4036   -9.7482 C   0  0  0  0  0  0  0  0  0  0  0  0
   -2.3983   -0.6696   -9.9647 S   0  0  0  0  0  0  0  0  0  0  0  0
   -2.3245   -0.8437  -11.7085 C   0  0  0  0  0  0  0  0  0  0  0  0
   -2.2976    0.2755  -12.5009 C   0  0  0  0  0  0  0  0  0  0  0  0
   -2.3302    1.5482  -11.8929 C   0  0  0  0  0  0  0  0  0  0  0  0
   -2.3550    2.5847  -11.4020 N   0  0  0  0  0  0  0  0  0  0  0  0
   -2.2341    0.3105  -13.9044 C   0  0  0  0  0  0  0  0  0  0  0  0
   -2.1838    0.4121  -15.0474 N   0  0  0  0  0  0  0  0  0  0  0  0
   -2.2854   -2.1485  -12.0774 N   0  0  0  0  0  0  0  0  0  0  0  0
   -2.2679   -2.6272  -13.4477 C   0  0  0  0  0  0  0  0  0  0  0  0
   -3.6654   -2.6421  -14.0548 C   0  0  0  0  0  0  0  0  0  0  0  0
   -2.3036   -3.0775  -11.0421 C   0  0  0  0  0  0  0  0  0  0  0  0
   -2.2690   -4.2731  -11.2241 O   0  0  0  0  0  0  0  0  0  0  0  0
   -2.2545   -2.5825   -7.2682 C   0  0  0  0  0  0  0  0  0  0  0  0
   -2.3860   -1.2808   -6.8144 C   0  0  0  0  0  0  0  0  0  0  0  0
   -2.2092   -1.1900   -5.4387 C   0  0  0  0  0  0  0  0  0  0  0  0
   -2.1790    0.1457   -4.3235 S   0  0  0  0  0  0  0  0  0  0  0  0
   -1.7597   -0.9519   -3.0523 C   0  0  0  0  0  0  0  0  0  0  0  0
   -1.3771   -0.8144   -1.6817 C   0  0  0  0  0  0  0  0  0  0  0  0
   -1.2211    0.3192   -0.8882 C   0  0  0  0  0  0  0  0  0  0  0  0
   -0.6805    0.1392    0.3625 C   0  0  0  0  0  0  0  0  0  0  0  0
   -0.3361    1.1971    1.4080 C   0  0  0  0  0  0  0  0  0  0  0  0
   -1.6560    1.6709    1.9968 C   0  0  0  0  0  0  0  0  0  0  0  0
   -2.4957    2.4883    1.2466 C   0  0  0  0  0  0  0  0  0  0  0  0
   -3.7173    2.8966    1.7488 C   0  0  0  0  0  0  0  0  0  0  0  0
   -4.1265    2.4883    3.0071 C   0  0  0  0  0  0  0  0  0  0  0  0
   -3.3066    1.6619    3.7533 C   0  0  0  0  0  0  0  0  0  0  0  0
   -2.0822    1.2530    3.2509 C   0  0  0  0  0  0  0  0  0  0  0  0
    0.5126    2.3019    0.8088 C   0  0  0  0  0  0  0  0  0  0  0  0
    1.5698    1.9439   -0.0214 C   0  0  0  0  0  0  0  0  0  0  0  0
    2.3877    2.9098   -0.5773 C   0  0  0  0  0  0  0  0  0  0  0  0
    2.1640    4.2499   -0.3087 C   0  0  0  0  0  0  0  0  0  0  0  0
    1.1230    4.6140    0.5262 C   0  0  0  0  0  0  0  0  0  0  0  0
    0.3040    3.6471    1.0868 C   0  0  0  0  0  0  0  0  0  0  0  0
    0.4648    0.3713    2.3920 C   0  0  0  0  0  0  0  0  0  0  0  0
    0.3963   -0.9689    2.0440 C   0  0  0  0  0  0  0  0  0  0  0  0
   -0.2963   -1.1454    0.8072 C   0  0  0  0  0  0  0  0  0  0  0  0
   -0.5036   -2.2862    0.0367 C   0  0  0  0  0  0  0  0  0  0  0  0
   -1.0521   -2.1080   -1.2116 C   0  0  0  0  0  0  0  0  0  0  0  0
   -1.2895   -3.1530   -2.2892 C   0  0  0  0  0  0  0  0  0  0  0  0
   -0.0122   -3.9409   -2.5039 C   0  0  0  0  0  0  0  0  0  0  0  0
    0.9497   -3.5074   -3.4058 C   0  0  0  0  0  0  0  0  0  0  0  0
    2.1291   -4.2134   -3.5648 C   0  0  0  0  0  0  0  0  0  0  0  0
    2.3652   -5.3528   -2.8160 C   0  0  0  0  0  0  0  0  0  0  0  0
    1.4165   -5.7810   -1.9031 C   0  0  0  0  0  0  0  0  0  0  0  0
    0.2354   -5.0790   -1.7461 C   0  0  0  0  0  0  0  0  0  0  0  0
   -2.4748   -4.0631   -2.0124 C   0  0  0  0  0  0  0  0  0  0  0  0
   -3.3784   -3.8022   -0.9929 C   0  0  0  0  0  0  0  0  0  0  0  0
   -4.4735   -4.6288   -0.8050 C   0  0  0  0  0  0  0  0  0  0  0  0
   -4.6805   -5.7145   -1.6371 C   0  0  0  0  0  0  0  0  0  0  0  0
   -3.7864   -5.9723   -2.6631 C   0  0  0  0  0  0  0  0  0  0  0  0
   -2.6910   -5.1508   -2.8510 C   0  0  0  0  0  0  0  0  0  0  0  0
   -1.6705   -2.2745   -3.4514 C   0  0  0  0  0  0  0  0  0  0  0  0
   -1.9361   -2.4208   -4.8107 C   0  0  0  0  0  0  0  0  0  0  0  0
   -1.9341   -3.7090   -5.9506 S   0  0  0  0  0  0  0  0  0  0  0  0
    1.2587   -2.0507    3.0847 S   0  0  0  0  0  0  0  0  0  0  0  0
    1.7659   -0.6808    4.0162 C   0  0  0  0  0  0  0  0  0  0  0  0
    2.5856   -0.3885    5.0999 C   0  0  0  0  0  0  0  0  0  0  0  0
    2.5681    1.0219    5.2477 C   0  0  0  0  0  0  0  0  0  0  0  0
    1.7607    1.5793    4.2907 N   0  0  0  0  0  0  0  0  0  0  0  0
    1.4960    2.9916    4.1766 C   0  0  0  0  0  0  0  0  0  0  0  0
    0.2637    3.4059    4.9770 C   0  0  0  0  0  0  0  0  0  0  0  0
    1.2615    0.5573    3.5290 C   0  0  0  0  0  0  0  0  0  0  0  0
    3.3977    1.4934    6.2567 C   0  0  0  0  0  0  0  0  0  0  0  0
    4.0643    0.4609    6.8985 C   0  0  0  0  0  0  0  0  0  0  0  0
    3.6217   -1.1314    6.2490 S   0  0  0  0  0  0  0  0  0  0  0  0
    5.0364    0.4603    7.9141 C   0  0  0  0  0  0  0  0  0  0  0  0
    5.6966    1.4845    8.5319 C   0  0  0  0  0  0  0  0  0  0  0  0
    6.9322    1.0842    9.7241 S   0  0  0  0  0  0  0  0  0  0  0  0
    7.3552    2.7643    9.9290 C   0  0  0  0  0  0  0  0  0  0  0  0
    8.3763    3.1249   10.7739 C   0  0  0  0  0  0  0  0  0  0  0  0
    8.8348    4.4266   11.0339 C   0  0  0  0  0  0  0  0  0  0  0  0
    9.2575    5.4623   11.2963 N   0  0  0  0  0  0  0  0  0  0  0  0
    9.0784    2.1210   11.4729 C   0  0  0  0  0  0  0  0  0  0  0  0
    9.6552    1.3132   12.0480 N   0  0  0  0  0  0  0  0  0  0  0  0
    6.5729    3.5613    9.1566 N   0  0  0  0  0  0  0  0  0  0  0  0
    6.6371    5.0111    9.1407 C   0  0  0  0  0  0  0  0  0  0  0  0
    5.8766    5.6199   10.3126 C   0  0  0  0  0  0  0  0  0  0  0  0
    5.6203    2.9251    8.3659 C   0  0  0  0  0  0  0  0  0  0  0  0
    4.8690    3.5590    7.6501 O   0  0  0  0  0  0  0  0  0  0  0  0
   -2.2252   -4.1713   -8.6894 H   0  0  0  0  0  0  0  0  0  0  0  0
   -1.8752   -3.6467  -13.3989 H   0  0  0  0  0  0  0  0  0  0  0  0
   -1.5920   -2.0061  -14.0378 H   0  0  0  0  0  0  0  0  0  0  0  0
   -3.6120   -3.0361  -15.0651 H   0  0  0  0  0  0  0  0  0  0  0  0
   -4.3235   -3.2767  -13.4655 H   0  0  0  0  0  0  0  0  0  0  0  0
   -4.0841   -1.6395  -14.1015 H   0  0  0  0  0  0  0  0  0  0  0  0
   -2.5987   -0.4406   -7.4488 H   0  0  0  0  0  0  0  0  0  0  0  0
   -1.4716    1.2937   -1.2768 H   0  0  0  0  0  0  0  0  0  0  0  0
   -2.1902    2.8163    0.2648 H   0  0  0  0  0  0  0  0  0  0  0  0
   -4.3528    3.5349    1.1531 H   0  0  0  0  0  0  0  0  0  0  0  0
   -5.0799    2.8079    3.3999 H   0  0  0  0  0  0  0  0  0  0  0  0
   -3.6173    1.3295    4.7328 H   0  0  0  0  0  0  0  0  0  0  0  0
   -1.4628    0.5967    3.8443 H   0  0  0  0  0  0  0  0  0  0  0  0
    1.7480    0.8994   -0.2343 H   0  0  0  0  0  0  0  0  0  0  0  0
    3.2008    2.6149   -1.2235 H   0  0  0  0  0  0  0  0  0  0  0  0
    2.7988    5.0054   -0.7462 H   0  0  0  0  0  0  0  0  0  0  0  0
    0.9436    5.6556    0.7477 H   0  0  0  0  0  0  0  0  0  0  0  0
   -0.5028    3.9496    1.7386 H   0  0  0  0  0  0  0  0  0  0  0  0
   -0.2056   -3.2586    0.3972 H   0  0  0  0  0  0  0  0  0  0  0  0
    0.7797   -2.6136   -3.9885 H   0  0  0  0  0  0  0  0  0  0  0  0
    2.8657   -3.8697   -4.2759 H   0  0  0  0  0  0  0  0  0  0  0  0
    3.2852   -5.9038   -2.9414 H   0  0  0  0  0  0  0  0  0  0  0  0
    1.5953   -6.6661   -1.3106 H   0  0  0  0  0  0  0  0  0  0  0  0
   -0.5050   -5.4230   -1.0383 H   0  0  0  0  0  0  0  0  0  0  0  0
   -3.2287   -2.9540   -0.3410 H   0  0  0  0  0  0  0  0  0  0  0  0
   -5.1677   -4.4193   -0.0046 H   0  0  0  0  0  0  0  0  0  0  0  0
   -5.5358   -6.3566   -1.4888 H   0  0  0  0  0  0  0  0  0  0  0  0
   -3.9422   -6.8148   -3.3202 H   0  0  0  0  0  0  0  0  0  0  0  0
   -1.9925   -5.3561   -3.6496 H   0  0  0  0  0  0  0  0  0  0  0  0
    1.3622    3.2359    3.1209 H   0  0  0  0  0  0  0  0  0  0  0  0
    2.3761    3.5214    4.5496 H   0  0  0  0  0  0  0  0  0  0  0  0
    0.1213    4.4801    4.8997 H   0  0  0  0  0  0  0  0  0  0  0  0
    0.3894    3.1465    6.0257 H   0  0  0  0  0  0  0  0  0  0  0  0
   -0.6255    2.9084    4.5961 H   0  0  0  0  0  0  0  0  0  0  0  0
    3.5418    2.5219    6.5276 H   0  0  0  0  0  0  0  0  0  0  0  0
    5.3378   -0.5317    8.2331 H   0  0  0  0  0  0  0  0  0  0  0  0
    6.1733    5.3189    8.1994 H   0  0  0  0  0  0  0  0  0  0  0  0
    7.6820    5.3249    9.1484 H   0  0  0  0  0  0  0  0  0  0  0  0
    4.8332    5.3137   10.2825 H   0  0  0  0  0  0  0  0  0  0  0  0
    5.9263    6.7026   10.2483 H   0  0  0  0  0  0  0  0  0  0  0  0
    6.3100    5.3147   11.2620 H   0  0  0  0  0  0  0  0  0  0  0  0
  1  2  2  0  0  0  0
  2  3  1  0  0  0  0
  3  4  1  0  0  0  0
  4  5  2  0  0  0  0
  5  6  1  0  0  0  0
  6  7  3  0  0  0  0
  5  8  1  0  0  0  0
  8  9  3  0  0  0  0
  4 10  1  0  0  0  0
 10 11  1  0  0  0  0
 11 12  1  0  0  0  0
 10 13  1  0  0  0  0
 13 14  2  0  0  0  0
  1 15  1  0  0  0  0
 15 16  2  0  0  0  0
 16 17  1  0  0  0  0
 17 18  1  0  0  0  0
 18 19  1  0  0  0  0
 19 20  1  0  0  0  0
 20 21  2  0  0  0  0
 21 22  1  0  0  0  0
 22 23  1  0  0  0  0
 23 24  1  0  0  0  0
 24 25  2  0  0  0  0
 25 26  1  0  0  0  0
 26 27  2  0  0  0  0
 27 28  1  0  0  0  0
 28 29  2  0  0  0  0
 23 30  1  0  0  0  0
 30 31  2  0  0  0  0
 31 32  1  0  0  0  0
 32 33  2  0  0  0  0
 33 34  1  0  0  0  0
 34 35  2  0  0  0  0
 23 36  1  0  0  0  0
 36 37  2  0  0  0  0
 37 38  1  0  0  0  0
 38 39  1  0  0  0  0
 39 40  2  0  0  0  0
 40 41  1  0  0  0  0
 41 42  1  0  0  0  0
 42 43  2  0  0  0  0
 43 44  1  0  0  0  0
 44 45  2  0  0  0  0
 45 46  1  0  0  0  0
 46 47  2  0  0  0  0
 41 48  1  0  0  0  0
 48 49  2  0  0  0  0
 49 50  1  0  0  0  0
 50 51  2  0  0  0  0
 51 52  1  0  0  0  0
 52 53  2  0  0  0  0
 41 54  1  0  0  0  0
 54 55  1  0  0  0  0
 55 56  1  0  0  0  0
 37 57  1  0  0  0  0
 57 58  1  0  0  0  0
 58 59  1  0  0  0  0
 59 60  2  0  0  0  0
 60 61  1  0  0  0  0
 61 62  1  0  0  0  0
 62 63  1  0  0  0  0
 61 64  1  0  0  0  0
 60 65  1  0  0  0  0
 65 66  2  0  0  0  0
 66 67  1  0  0  0  0
 66 68  1  0  0  0  0
 68 69  2  0  0  0  0
 69 70  1  0  0  0  0
 70 71  1  0  0  0  0
 71 72  2  0  0  0  0
 72 73  1  0  0  0  0
 73 74  3  0  0  0  0
 72 75  1  0  0  0  0
 75 76  3  0  0  0  0
 71 77  1  0  0  0  0
 77 78  1  0  0  0  0
 78 79  1  0  0  0  0
 77 80  1  0  0  0  0
 80 81  2  0  0  0  0
 13  2  1  0  0  0  0
 56 15  1  0  0  0  0
 64 58  2  0  0  0  0
 80 69  1  0  0  0  0
 55 17  2  0  0  0  0
 67 59  1  0  0  0  0
 54 19  2  0  0  0  0
 40 20  1  0  0  0  0
 47 42  1  0  0  0  0
 53 48  1  0  0  0  0
 38 22  2  0  0  0  0
 29 24  1  0  0  0  0
 35 30  1  0  0  0  0
 64 36  1  0  0  0  0
  1 82  1  0  0  0  0
 11 83  1  0  0  0  0
 11 84  1  0  0  0  0
 12 85  1  0  0  0  0
 12 86  1  0  0  0  0
 12 87  1  0  0  0  0
 16 88  1  0  0  0  0
 21 89  1  0  0  0  0
 25 90  1  0  0  0  0
 26 91  1  0  0  0  0
 27 92  1  0  0  0  0
 28 93  1  0  0  0  0
 29 94  1  0  0  0  0
 31 95  1  0  0  0  0
 32 96  1  0  0  0  0
 33 97  1  0  0  0  0
 34 98  1  0  0  0  0
 35 99  1  0  0  0  0
 39100  1  0  0  0  0
 43101  1  0  0  0  0
 44102  1  0  0  0  0
 45103  1  0  0  0  0
 46104  1  0  0  0  0
 47105  1  0  0  0  0
 49106  1  0  0  0  0
 50107  1  0  0  0  0
 51108  1  0  0  0  0
 52109  1  0  0  0  0
 53110  1  0  0  0  0
 62111  1  0  0  0  0
 62112  1  0  0  0  0
 63113  1  0  0  0  0
 63114  1  0  0  0  0
 63115  1  0  0  0  0
 65116  1  0  0  0  0
 68117  1  0  0  0  0
 78118  1  0  0  0  0
 78119  1  0  0  0  0
 79120  1  0  0  0  0
 79121  1  0  0  0  0
 79122  1  0  0  0  0
M  END
