122

C         -2.28820       -3.09470       -8.58100
C         -2.34330       -2.40360       -9.74820
S         -2.39830       -0.66960       -9.96470
C         -2.32450       -0.84370      -11.70850
C         -2.29760        0.27550      -12.50090
C         -2.33020        1.54820      -11.89290
N         -2.35500        2.58470      -11.40200
C         -2.23410        0.31050      -13.90440
N         -2.18380        0.41210      -15.04740
N         -2.28540       -2.14850      -12.07740
C         -2.26790       -2.62720      -13.44770
C         -3.66540       -2.64210      -14.05480
C         -2.30360       -3.07750      -11.04210
O         -2.26900       -4.27310      -11.22410
C         -2.25450       -2.58250       -7.26820
C         -2.38600       -1.28080       -6.81440
C         -2.20920       -1.19000       -5.43870
S         -2.17900        0.14570       -4.32350
C         -1.75970       -0.95190       -3.05230
C         -1.37710       -0.81440       -1.68170
C         -1.22110        0.31920       -0.88820
C         -0.68050        0.13920        0.36250
C         -0.33610        1.19710        1.40800
C         -1.65600        1.67090        1.99680
C         -2.49570        2.48830        1.24660
C         -3.71730        2.89660        1.74880
C         -4.12650        2.48830        3.00710
C         -3.30660        1.66190        3.75330
C         -2.08220        1.25300        3.25090
C          0.51260        2.30190        0.80880
C          1.56980        1.94390       -0.02140
C          2.38770        2.90980       -0.57730
C          2.16400        4.24990       -0.30870
C          1.12300        4.61400        0.52620
C          0.30400        3.64710        1.08680
C          0.46480        0.37130        2.39200
C          0.39630       -0.96890        2.04400
C         -0.29630       -1.14540        0.80720
C         -0.50360       -2.28620        0.03670
C         -1.05210       -2.10800       -1.21160
C         -1.28950       -3.15300       -2.28920
C         -0.01220       -3.94090       -2.50390
C          0.94970       -3.50740       -3.40580
C          2.12910       -4.21340       -3.56480
C          2.36520       -5.35280       -2.81600
C          1.41650       -5.78100       -1.90310
C          0.23540       -5.07900       -1.74610
C         -2.47480       -4.06310       -2.01240
C         -3.37840       -3.80220       -0.99290
C         -4.47350       -4.62880       -0.80500
C         -4.68050       -5.71450       -1.63710
C         -3.78640       -5.97230       -2.66310
C         -2.69100       -5.15080       -2.85100
C         -1.67050       -2.27450       -3.45140
C         -1.93610       -2.42080       -4.81070
S         -1.93410       -3.70900       -5.95060
S          1.25870       -2.05070        3.08470
C          1.76590       -0.68080        4.01620
C          2.58560       -0.38850        5.09990
C          2.56810        1.02190        5.24770
N          1.76070        1.57930        4.29070
C          1.49600        2.99160        4.17660
C          0.26370        3.40590        4.97700
C          1.26150        0.55730        3.52900
C          3.39770        1.49340        6.25670
C          4.06430        0.46090        6.89850
S          3.62170       -1.13140        6.24900
C          5.03640        0.46030        7.91410
C          5.69660        1.48450        8.53190
S          6.93220        1.08420        9.72410
C          7.35520        2.76430        9.92900
C          8.37630        3.12490       10.77390
C          8.83480        4.42660       11.03390
N          9.25750        5.46230       11.29630
C          9.07840        2.12100       11.47290
N          9.65520        1.31320       12.04800
N          6.57290        3.56130        9.15660
C          6.63710        5.01110        9.14070
C          5.87660        5.61990       10.31260
C          5.62030        2.92510        8.36590
O          4.86900        3.55900        7.65010
H         -2.22520       -4.17130       -8.68940
H         -1.87520       -3.64670      -13.39890
H         -1.59200       -2.00610      -14.03780
H         -3.61200       -3.03610      -15.06510
H         -4.32350       -3.27670      -13.46550
H         -4.08410       -1.63950      -14.10150
H         -2.59870       -0.44060       -7.44880
H         -1.47160        1.29370       -1.27680
H         -2.19020        2.81630        0.26480
H         -4.35280        3.53490        1.15310
H         -5.07990        2.80790        3.39990
H         -3.61730        1.32950        4.73280
H         -1.46280        0.59670        3.84430
H          1.74800        0.89940       -0.23430
H          3.20080        2.61490       -1.22350
H          2.79880        5.00540       -0.74620
H          0.94360        5.65560        0.74770
H         -0.50280        3.94960        1.73860
H         -0.20560       -3.25860        0.39720
H          0.77970       -2.61360       -3.98850
H          2.86570       -3.86970       -4.27590
H          3.28520       -5.90380       -2.94140
H          1.59530       -6.66610       -1.31060
H         -0.50500       -5.42300       -1.03830
H         -3.22870       -2.95400       -0.34100
H         -5.16770       -4.41930       -0.00460
H         -5.53580       -6.35660       -1.48880
H         -3.94220       -6.81480       -3.32020
H         -1.99250       -5.35610       -3.64960
H          1.36220        3.23590        3.12090
H          2.37610        3.52140        4.54960
H          0.12130        4.48010        4.89970
H          0.38940        3.14650        6.02570
H         -0.62550        2.90840        4.59610
H          3.54180        2.52190        6.52760
H          5.33780       -0.53170        8.23310
H          6.17330        5.31890        8.19940
H          7.68200        5.32490        9.14840
H          4.83320        5.31370       10.28250
H          5.92630        6.70260       10.24830
H          6.31000        5.31470       11.26200
