
  xtb     02012217133D
 energy: -176.710103352683 gnorm: 0.000312626387 xtb: 6.4.1 (unknown)
 96106  0     0  0            999 V2000
   -1.9249    6.0895    4.5355 C   0  0  0  0  0  0  0  0  0  0  0  0
   -1.9999    5.4197    5.7151 C   0  0  0  0  0  0  0  0  0  0  0  0
   -1.7586    3.7079    5.9771 S   0  0  0  0  0  0  0  0  0  0  0  0
   -2.0251    3.8995    7.7005 C   0  0  0  0  0  0  0  0  0  0  0  0
   -1.9612    2.7998    8.5190 C   0  0  0  0  0  0  0  0  0  0  0  0
   -1.6807    1.5410    7.9481 C   0  0  0  0  0  0  0  0  0  0  0  0
   -1.4500    0.5179    7.4830 N   0  0  0  0  0  0  0  0  0  0  0  0
   -2.1457    2.7764    9.9115 C   0  0  0  0  0  0  0  0  0  0  0  0
   -2.2806    2.6875   11.0488 N   0  0  0  0  0  0  0  0  0  0  0  0
   -2.2891    5.1892    8.0267 N   0  0  0  0  0  0  0  0  0  0  0  0
   -2.4997    5.6836    9.3750 C   0  0  0  0  0  0  0  0  0  0  0  0
   -1.1781    5.9236   10.0951 C   0  0  0  0  0  0  0  0  0  0  0  0
   -2.2920    6.0963    6.9716 C   0  0  0  0  0  0  0  0  0  0  0  0
   -2.5156    7.2780    7.1127 O   0  0  0  0  0  0  0  0  0  0  0  0
   -1.6316    5.5702    3.2628 C   0  0  0  0  0  0  0  0  0  0  0  0
   -1.5387    6.2913    2.0741 C   0  0  0  0  0  0  0  0  0  0  0  0
   -1.8013    7.7542    1.9291 C   0  0  0  0  0  0  0  0  0  0  0  0
   -3.3017    8.0242    1.7898 C   0  0  0  0  0  0  0  0  0  0  0  0
   -1.2116    5.4583    1.0023 C   0  0  0  0  0  0  0  0  0  0  0  0
   -0.9347    5.7729   -0.6966 S   0  0  0  0  0  0  0  0  0  0  0  0
   -0.5925    4.0937   -0.9286 C   0  0  0  0  0  0  0  0  0  0  0  0
   -0.2362    3.2160   -1.9661 C   0  0  0  0  0  0  0  0  0  0  0  0
   -0.1188    3.3727   -3.3665 C   0  0  0  0  0  0  0  0  0  0  0  0
    0.1333    2.2147   -4.1835 C   0  0  0  0  0  0  0  0  0  0  0  0
    0.1446    2.5041   -5.4748 N   0  0  0  0  0  0  0  0  0  0  0  0
   -0.1279    4.0888   -5.6524 S   0  0  0  0  0  0  0  0  0  0  0  0
   -0.2747    4.4717   -4.0871 N   0  0  0  0  0  0  0  0  0  0  0  0
    0.4024    0.9752   -3.5583 C   0  0  0  0  0  0  0  0  0  0  0  0
    0.8165   -0.2751   -4.0474 C   0  0  0  0  0  0  0  0  0  0  0  0
    1.0974   -1.0604   -5.5593 S   0  0  0  0  0  0  0  0  0  0  0  0
    1.5895   -2.5068   -4.7040 C   0  0  0  0  0  0  0  0  0  0  0  0
    1.9788   -3.7834   -5.1320 C   0  0  0  0  0  0  0  0  0  0  0  0
    2.2548   -4.1493   -6.5506 C   0  0  0  0  0  0  0  0  0  0  0  0
    3.0966   -3.1024   -7.2774 C   0  0  0  0  0  0  0  0  0  0  0  0
    2.2002   -4.6248   -4.0436 C   0  0  0  0  0  0  0  0  0  0  0  0
    2.0144   -3.7923   -2.4970 S   0  0  0  0  0  0  0  0  0  0  0  0
    1.5371   -2.3535   -3.3098 C   0  0  0  0  0  0  0  0  0  0  0  0
    1.0963   -1.0824   -2.9364 C   0  0  0  0  0  0  0  0  0  0  0  0
    0.8534   -0.3893   -1.7755 N   0  0  0  0  0  0  0  0  0  0  0  0
    0.3953    0.8619   -2.1428 C   0  0  0  0  0  0  0  0  0  0  0  0
   -0.0827    1.9382   -1.3655 C   0  0  0  0  0  0  0  0  0  0  0  0
   -0.4033    2.0155   -0.0235 N   0  0  0  0  0  0  0  0  0  0  0  0
   -0.6963    3.3300    0.2425 C   0  0  0  0  0  0  0  0  0  0  0  0
   -1.0505    4.1080    1.3469 C   0  0  0  0  0  0  0  0  0  0  0  0
   -1.3070    3.8519    3.0312 S   0  0  0  0  0  0  0  0  0  0  0  0
   -0.9663    0.9555    0.7911 C   0  0  0  0  0  0  0  0  0  0  0  0
   -2.4889    1.0618    0.8649 C   0  0  0  0  0  0  0  0  0  0  0  0
    1.5722   -0.7210   -0.5603 C   0  0  0  0  0  0  0  0  0  0  0  0
    3.0839   -0.6658   -0.7786 C   0  0  0  0  0  0  0  0  0  0  0  0
    2.5890   -5.9769   -3.9786 C   0  0  0  0  0  0  0  0  0  0  0  0
    2.2368   -6.9773   -4.8467 C   0  0  0  0  0  0  0  0  0  0  0  0
    1.0541   -6.9410   -5.7328 C   0  0  0  0  0  0  0  0  0  0  0  0
    0.2936   -6.0169   -5.9292 O   0  0  0  0  0  0  0  0  0  0  0  0
    0.9073   -8.3228   -6.2442 C   0  0  0  0  0  0  0  0  0  0  0  0
   -0.0567   -8.8171   -7.0985 C   0  0  0  0  0  0  0  0  0  0  0  0
    0.0233  -10.1644   -7.4185 C   0  0  0  0  0  0  0  0  0  0  0  0
   -0.8891  -10.6895   -8.2531 F   0  0  0  0  0  0  0  0  0  0  0  0
    1.0115  -10.9929   -6.9080 C   0  0  0  0  0  0  0  0  0  0  0  0
    1.9717  -10.4837   -6.0467 C   0  0  0  0  0  0  0  0  0  0  0  0
    1.9219   -9.1379   -5.7129 C   0  0  0  0  0  0  0  0  0  0  0  0
    2.7774   -8.3206   -4.8562 C   0  0  0  0  0  0  0  0  0  0  0  0
    3.9322   -8.7328   -4.2441 C   0  0  0  0  0  0  0  0  0  0  0  0
    4.7951   -7.8895   -3.5125 C   0  0  0  0  0  0  0  0  0  0  0  0
    5.5542   -7.2558   -2.9289 N   0  0  0  0  0  0  0  0  0  0  0  0
    4.4264  -10.0527   -4.2930 C   0  0  0  0  0  0  0  0  0  0  0  0
    4.8731  -11.1101   -4.2911 N   0  0  0  0  0  0  0  0  0  0  0  0
   -2.1090    7.1548    4.6035 H   0  0  0  0  0  0  0  0  0  0  0  0
   -3.0360    6.6300    9.2622 H   0  0  0  0  0  0  0  0  0  0  0  0
   -3.1221    4.9768    9.9259 H   0  0  0  0  0  0  0  0  0  0  0  0
   -0.6194    4.9975   10.2087 H   0  0  0  0  0  0  0  0  0  0  0  0
   -1.3767    6.3252   11.0841 H   0  0  0  0  0  0  0  0  0  0  0  0
   -0.5742    6.6391    9.5414 H   0  0  0  0  0  0  0  0  0  0  0  0
   -1.4092    8.2970    2.7905 H   0  0  0  0  0  0  0  0  0  0  0  0
   -1.2875    8.1095    1.0338 H   0  0  0  0  0  0  0  0  0  0  0  0
   -3.4779    9.0894    1.6671 H   0  0  0  0  0  0  0  0  0  0  0  0
   -3.8368    7.6821    2.6727 H   0  0  0  0  0  0  0  0  0  0  0  0
   -3.6991    7.5049    0.9210 H   0  0  0  0  0  0  0  0  0  0  0  0
    2.7737   -5.1095   -6.5748 H   0  0  0  0  0  0  0  0  0  0  0  0
    1.2990   -4.2796   -7.0668 H   0  0  0  0  0  0  0  0  0  0  0  0
    2.5574   -2.1661   -7.3865 H   0  0  0  0  0  0  0  0  0  0  0  0
    4.0199   -2.9124   -6.7341 H   0  0  0  0  0  0  0  0  0  0  0  0
    3.3500   -3.4669   -8.2696 H   0  0  0  0  0  0  0  0  0  0  0  0
   -0.7135   -0.0053    0.3469 H   0  0  0  0  0  0  0  0  0  0  0  0
   -0.5411    1.0201    1.7977 H   0  0  0  0  0  0  0  0  0  0  0  0
   -2.8804    0.2250    1.4363 H   0  0  0  0  0  0  0  0  0  0  0  0
   -2.9172    1.0345   -0.1349 H   0  0  0  0  0  0  0  0  0  0  0  0
   -2.7957    1.9827    1.3523 H   0  0  0  0  0  0  0  0  0  0  0  0
    1.3132   -0.0032    0.2151 H   0  0  0  0  0  0  0  0  0  0  0  0
    1.2785   -1.7266   -0.2435 H   0  0  0  0  0  0  0  0  0  0  0  0
    3.5914   -0.8630    0.1613 H   0  0  0  0  0  0  0  0  0  0  0  0
    3.3763    0.3201   -1.1340 H   0  0  0  0  0  0  0  0  0  0  0  0
    3.4039   -1.4083   -1.5038 H   0  0  0  0  0  0  0  0  0  0  0  0
    3.1731   -6.2446   -3.1052 H   0  0  0  0  0  0  0  0  0  0  0  0
   -0.8331   -8.1860   -7.5004 H   0  0  0  0  0  0  0  0  0  0  0  0
    1.0204  -12.0344   -7.1882 H   0  0  0  0  0  0  0  0  0  0  0  0
    2.7313  -11.1366   -5.6497 H   0  0  0  0  0  0  0  0  0  0  0  0
  1  2  2  0  0  0  0
  2  3  1  0  0  0  0
  3  4  1  0  0  0  0
  4  5  2  0  0  0  0
  5  6  1  0  0  0  0
  6  7  3  0  0  0  0
  5  8  1  0  0  0  0
  8  9  3  0  0  0  0
  4 10  1  0  0  0  0
 10 11  1  0  0  0  0
 11 12  1  0  0  0  0
 10 13  1  0  0  0  0
 13 14  2  0  0  0  0
  1 15  1  0  0  0  0
 15 16  2  0  0  0  0
 16 17  1  0  0  0  0
 17 18  1  0  0  0  0
 16 19  1  0  0  0  0
 19 20  1  0  0  0  0
 20 21  1  0  0  0  0
 21 22  1  0  0  0  0
 22 23  1  0  0  0  0
 23 24  1  0  0  0  0
 24 25  2  0  0  0  0
 25 26  1  0  0  0  0
 26 27  1  0  0  0  0
 24 28  1  0  0  0  0
 28 29  1  0  0  0  0
 29 30  1  0  0  0  0
 30 31  1  0  0  0  0
 31 32  1  0  0  0  0
 32 33  1  0  0  0  0
 33 34  1  0  0  0  0
 32 35  2  0  0  0  0
 35 36  1  0  0  0  0
 36 37  1  0  0  0  0
 37 38  1  0  0  0  0
 38 39  1  0  0  0  0
 39 40  1  0  0  0  0
 40 41  1  0  0  0  0
 41 42  1  0  0  0  0
 42 43  1  0  0  0  0
 43 44  1  0  0  0  0
 44 45  1  0  0  0  0
 42 46  1  0  0  0  0
 46 47  1  0  0  0  0
 39 48  1  0  0  0  0
 48 49  1  0  0  0  0
 35 50  1  0  0  0  0
 50 51  2  0  0  0  0
 51 52  1  0  0  0  0
 52 53  2  0  0  0  0
 52 54  1  0  0  0  0
 54 55  2  0  0  0  0
 55 56  1  0  0  0  0
 56 57  1  0  0  0  0
 56 58  2  0  0  0  0
 58 59  1  0  0  0  0
 59 60  2  0  0  0  0
 60 61  1  0  0  0  0
 61 62  2  0  0  0  0
 62 63  1  0  0  0  0
 63 64  3  0  0  0  0
 62 65  1  0  0  0  0
 65 66  3  0  0  0  0
 13  2  1  0  0  0  0
 45 15  1  0  0  0  0
 61 51  1  0  0  0  0
 44 19  2  0  0  0  0
 60 54  1  0  0  0  0
 43 21  2  0  0  0  0
 41 22  2  0  0  0  0
 27 23  2  0  0  0  0
 40 28  2  0  0  0  0
 38 29  2  0  0  0  0
 37 31  2  0  0  0  0
  1 67  1  0  0  0  0
 11 68  1  0  0  0  0
 11 69  1  0  0  0  0
 12 70  1  0  0  0  0
 12 71  1  0  0  0  0
 12 72  1  0  0  0  0
 17 73  1  0  0  0  0
 17 74  1  0  0  0  0
 18 75  1  0  0  0  0
 18 76  1  0  0  0  0
 18 77  1  0  0  0  0
 33 78  1  0  0  0  0
 33 79  1  0  0  0  0
 34 80  1  0  0  0  0
 34 81  1  0  0  0  0
 34 82  1  0  0  0  0
 46 83  1  0  0  0  0
 46 84  1  0  0  0  0
 47 85  1  0  0  0  0
 47 86  1  0  0  0  0
 47 87  1  0  0  0  0
 48 88  1  0  0  0  0
 48 89  1  0  0  0  0
 49 90  1  0  0  0  0
 49 91  1  0  0  0  0
 49 92  1  0  0  0  0
 50 93  1  0  0  0  0
 55 94  1  0  0  0  0
 58 95  1  0  0  0  0
 59 96  1  0  0  0  0
M  END
