
  xtb     02022213343D
 energy: -192.566698460537 gnorm: 0.000925666058 xtb: 6.4.1 (unknown)
112125  0     0  0            999 V2000
   -8.8215   -2.0003   -0.7470 C   0  0  0  0  0  0  0  0  0  0  0  0
   -8.8091   -1.6260   -2.0533 C   0  0  0  0  0  0  0  0  0  0  0  0
   -7.4372   -1.0574   -2.9772 S   0  0  0  0  0  0  0  0  0  0  0  0
   -8.4259   -0.9090   -4.4181 C   0  0  0  0  0  0  0  0  0  0  0  0
   -7.8556   -0.4672   -5.5860 C   0  0  0  0  0  0  0  0  0  0  0  0
   -6.4822   -0.1474   -5.5965 C   0  0  0  0  0  0  0  0  0  0  0  0
   -5.3642    0.1100   -5.6070 N   0  0  0  0  0  0  0  0  0  0  0  0
   -8.4991   -0.2920   -6.8222 C   0  0  0  0  0  0  0  0  0  0  0  0
   -8.9604   -0.1340   -7.8626 N   0  0  0  0  0  0  0  0  0  0  0  0
   -9.7142   -1.2599   -4.1805 N   0  0  0  0  0  0  0  0  0  0  0  0
  -10.7703   -1.2860   -5.1755 C   0  0  0  0  0  0  0  0  0  0  0  0
  -10.7356   -2.5697   -5.9961 C   0  0  0  0  0  0  0  0  0  0  0  0
  -10.0032   -1.6769   -2.8844 C   0  0  0  0  0  0  0  0  0  0  0  0
  -11.1089   -2.0214   -2.5299 O   0  0  0  0  0  0  0  0  0  0  0  0
   -7.7496   -2.0082    0.1614 C   0  0  0  0  0  0  0  0  0  0  0  0
   -7.7814   -2.4647    1.4777 C   0  0  0  0  0  0  0  0  0  0  0  0
   -8.9702   -3.0646    2.1539 C   0  0  0  0  0  0  0  0  0  0  0  0
   -9.0998   -4.5500    1.8077 C   0  0  0  0  0  0  0  0  0  0  0  0
   -6.5299   -2.3468    2.0848 C   0  0  0  0  0  0  0  0  0  0  0  0
   -5.9464   -2.7596    3.6822 S   0  0  0  0  0  0  0  0  0  0  0  0
   -4.3812   -2.1805    3.2351 C   0  0  0  0  0  0  0  0  0  0  0  0
   -3.1061   -2.0224    3.8064 C   0  0  0  0  0  0  0  0  0  0  0  0
   -2.6428   -2.2210    5.1346 C   0  0  0  0  0  0  0  0  0  0  0  0
   -1.3136   -1.8265    5.4505 C   0  0  0  0  0  0  0  0  0  0  0  0
   -0.8537   -1.9064    6.7038 N   0  0  0  0  0  0  0  0  0  0  0  0
   -1.6761   -2.3835    7.6125 C   0  0  0  0  0  0  0  0  0  0  0  0
   -2.9730   -2.8025    7.2949 C   0  0  0  0  0  0  0  0  0  0  0  0
   -3.4548   -2.7183    6.0738 N   0  0  0  0  0  0  0  0  0  0  0  0
   -0.4690   -1.3951    4.3928 C   0  0  0  0  0  0  0  0  0  0  0  0
    0.8982   -1.0693    4.3688 C   0  0  0  0  0  0  0  0  0  0  0  0
    2.2148   -0.8836    5.4728 S   0  0  0  0  0  0  0  0  0  0  0  0
    3.2609   -0.5073    4.1161 C   0  0  0  0  0  0  0  0  0  0  0  0
    4.6101   -0.1869    4.0323 C   0  0  0  0  0  0  0  0  0  0  0  0
    5.4908   -0.0699    5.2334 C   0  0  0  0  0  0  0  0  0  0  0  0
    5.5900    1.3863    5.6961 C   0  0  0  0  0  0  0  0  0  0  0  0
    4.9945    0.0620    2.7040 C   0  0  0  0  0  0  0  0  0  0  0  0
    3.6529   -0.1229    1.5729 S   0  0  0  0  0  0  0  0  0  0  0  0
    2.6027   -0.5345    2.8752 C   0  0  0  0  0  0  0  0  0  0  0  0
    1.2521   -0.8574    3.0293 C   0  0  0  0  0  0  0  0  0  0  0  0
    0.1540   -1.0232    2.2204 N   0  0  0  0  0  0  0  0  0  0  0  0
   -0.9117   -1.3175    3.0451 C   0  0  0  0  0  0  0  0  0  0  0  0
   -2.2853   -1.4801    2.7837 C   0  0  0  0  0  0  0  0  0  0  0  0
   -3.0399   -1.2529    1.6493 N   0  0  0  0  0  0  0  0  0  0  0  0
   -4.3126   -1.6925    1.9234 C   0  0  0  0  0  0  0  0  0  0  0  0
   -5.5388   -1.7884    1.2627 C   0  0  0  0  0  0  0  0  0  0  0  0
   -6.1540   -1.4158   -0.3032 S   0  0  0  0  0  0  0  0  0  0  0  0
   -2.8188   -0.2240    0.6518 C   0  0  0  0  0  0  0  0  0  0  0  0
   -3.6427    1.0272    0.9541 C   0  0  0  0  0  0  0  0  0  0  0  0
    0.3191   -1.4160    0.8346 C   0  0  0  0  0  0  0  0  0  0  0  0
    1.1349   -2.7031    0.7192 C   0  0  0  0  0  0  0  0  0  0  0  0
    6.3029    0.4095    2.3458 C   0  0  0  0  0  0  0  0  0  0  0  0
    6.8437    0.7447    1.1309 C   0  0  0  0  0  0  0  0  0  0  0  0
    6.1202    0.8711   -0.1375 C   0  0  0  0  0  0  0  0  0  0  0  0
    4.9484    0.6088   -0.3534 O   0  0  0  0  0  0  0  0  0  0  0  0
    7.0891    1.3864   -1.1184 C   0  0  0  0  0  0  0  0  0  0  0  0
    6.8423    1.7113   -2.4498 C   0  0  0  0  0  0  0  0  0  0  0  0
    7.9426    2.1865   -3.1221 C   0  0  0  0  0  0  0  0  0  0  0  0
    9.1964    2.3303   -2.5134 C   0  0  0  0  0  0  0  0  0  0  0  0
    9.4526    2.0138   -1.2002 C   0  0  0  0  0  0  0  0  0  0  0  0
    8.3475    1.5249   -0.4981 C   0  0  0  0  0  0  0  0  0  0  0  0
    8.2303    1.0969    0.8952 C   0  0  0  0  0  0  0  0  0  0  0  0
    9.2674    1.0189    1.7902 C   0  0  0  0  0  0  0  0  0  0  0  0
    9.1705    0.5809    3.1271 C   0  0  0  0  0  0  0  0  0  0  0  0
    9.1810    0.2325    4.2226 N   0  0  0  0  0  0  0  0  0  0  0  0
   10.6059    1.3510    1.4938 C   0  0  0  0  0  0  0  0  0  0  0  0
   11.7149    1.6010    1.3306 N   0  0  0  0  0  0  0  0  0  0  0  0
    9.8360    2.8587   -3.7728 C   0  0  0  0  0  0  0  0  0  0  0  0
   10.7278    1.8920   -4.5906 C   0  0  0  0  0  0  0  0  0  0  0  0
   10.2311    0.4980   -4.2971 C   0  0  0  0  0  0  0  0  0  0  0  0
    9.0444    0.3613   -4.8735 C   0  0  0  0  0  0  0  0  0  0  0  0
    8.7170    1.6606   -5.5670 C   0  0  0  0  0  0  0  0  0  0  0  0
   10.1265    2.1052   -5.9892 C   0  0  0  0  0  0  0  0  0  0  0  0
    8.4388    2.6980   -4.4511 C   0  0  0  0  0  0  0  0  0  0  0  0
   -9.7825   -2.3387   -0.3792 H   0  0  0  0  0  0  0  0  0  0  0  0
  -10.6820   -0.4088   -5.8185 H   0  0  0  0  0  0  0  0  0  0  0  0
  -11.7071   -1.2325   -4.6137 H   0  0  0  0  0  0  0  0  0  0  0  0
  -10.8409   -3.4339   -5.3440 H   0  0  0  0  0  0  0  0  0  0  0  0
  -11.5578   -2.5642   -6.7051 H   0  0  0  0  0  0  0  0  0  0  0  0
   -9.8052   -2.6540   -6.5529 H   0  0  0  0  0  0  0  0  0  0  0  0
   -8.8429   -2.9572    3.2327 H   0  0  0  0  0  0  0  0  0  0  0  0
   -9.8793   -2.5384    1.8590 H   0  0  0  0  0  0  0  0  0  0  0  0
   -9.9569   -4.9780    2.3205 H   0  0  0  0  0  0  0  0  0  0  0  0
   -9.2320   -4.6840    0.7366 H   0  0  0  0  0  0  0  0  0  0  0  0
   -8.2067   -5.0878    2.1167 H   0  0  0  0  0  0  0  0  0  0  0  0
   -1.2934   -2.4397    8.6222 H   0  0  0  0  0  0  0  0  0  0  0  0
   -3.6373   -3.2097    8.0446 H   0  0  0  0  0  0  0  0  0  0  0  0
    6.4908   -0.4542    5.0261 H   0  0  0  0  0  0  0  0  0  0  0  0
    5.0542   -0.6686    6.0352 H   0  0  0  0  0  0  0  0  0  0  0  0
    6.2250    1.4514    6.5751 H   0  0  0  0  0  0  0  0  0  0  0  0
    4.6042    1.7707    5.9477 H   0  0  0  0  0  0  0  0  0  0  0  0
    6.0166    2.0111    4.9147 H   0  0  0  0  0  0  0  0  0  0  0  0
   -1.7668    0.0533    0.6523 H   0  0  0  0  0  0  0  0  0  0  0  0
   -3.0941   -0.6219   -0.3300 H   0  0  0  0  0  0  0  0  0  0  0  0
   -3.4147    1.7945    0.2199 H   0  0  0  0  0  0  0  0  0  0  0  0
   -3.4006    1.4066    1.9447 H   0  0  0  0  0  0  0  0  0  0  0  0
   -4.7075    0.8166    0.9110 H   0  0  0  0  0  0  0  0  0  0  0  0
    0.8274   -0.6081    0.2993 H   0  0  0  0  0  0  0  0  0  0  0  0
   -0.6602   -1.5922    0.3939 H   0  0  0  0  0  0  0  0  0  0  0  0
    2.1462   -2.5586    1.0875 H   0  0  0  0  0  0  0  0  0  0  0  0
    1.1892   -3.0026   -0.3234 H   0  0  0  0  0  0  0  0  0  0  0  0
    0.6631   -3.5010    1.2893 H   0  0  0  0  0  0  0  0  0  0  0  0
    6.9824    0.4283    3.1867 H   0  0  0  0  0  0  0  0  0  0  0  0
    5.8592    1.5897   -2.8770 H   0  0  0  0  0  0  0  0  0  0  0  0
   10.4220    2.1370   -0.7472 H   0  0  0  0  0  0  0  0  0  0  0  0
   10.2595    3.8590   -3.7081 H   0  0  0  0  0  0  0  0  0  0  0  0
   11.7957    2.0556   -4.4737 H   0  0  0  0  0  0  0  0  0  0  0  0
   10.7519   -0.2035   -3.6720 H   0  0  0  0  0  0  0  0  0  0  0  0
    8.3750   -0.4777   -4.8263 H   0  0  0  0  0  0  0  0  0  0  0  0
    7.9542    1.6136   -6.3399 H   0  0  0  0  0  0  0  0  0  0  0  0
   10.5667    1.4519   -6.7409 H   0  0  0  0  0  0  0  0  0  0  0  0
   10.1721    3.1394   -6.3281 H   0  0  0  0  0  0  0  0  0  0  0  0
    7.9502    3.5938   -4.8298 H   0  0  0  0  0  0  0  0  0  0  0  0
  1  2  2  0  0  0  0
  2  3  1  0  0  0  0
  3  4  1  0  0  0  0
  4  5  2  0  0  0  0
  5  6  1  0  0  0  0
  6  7  3  0  0  0  0
  5  8  1  0  0  0  0
  8  9  3  0  0  0  0
  4 10  1  0  0  0  0
 10 11  1  0  0  0  0
 11 12  1  0  0  0  0
 10 13  1  0  0  0  0
 13 14  2  0  0  0  0
  1 15  1  0  0  0  0
 15 16  2  0  0  0  0
 16 17  1  0  0  0  0
 17 18  1  0  0  0  0
 16 19  1  0  0  0  0
 19 20  1  0  0  0  0
 20 21  1  0  0  0  0
 21 22  1  0  0  0  0
 22 23  2  0  0  0  0
 23 24  1  0  0  0  0
 24 25  1  0  0  0  0
 25 26  2  0  0  0  0
 26 27  1  0  0  0  0
 27 28  2  0  0  0  0
 24 29  2  0  0  0  0
 29 30  1  0  0  0  0
 30 31  1  0  0  0  0
 31 32  1  0  0  0  0
 32 33  1  0  0  0  0
 33 34  1  0  0  0  0
 34 35  1  0  0  0  0
 33 36  2  0  0  0  0
 36 37  1  0  0  0  0
 37 38  1  0  0  0  0
 38 39  1  0  0  0  0
 39 40  1  0  0  0  0
 40 41  1  0  0  0  0
 41 42  2  0  0  0  0
 42 43  1  0  0  0  0
 43 44  1  0  0  0  0
 44 45  1  0  0  0  0
 45 46  1  0  0  0  0
 43 47  1  0  0  0  0
 47 48  1  0  0  0  0
 40 49  1  0  0  0  0
 49 50  1  0  0  0  0
 36 51  1  0  0  0  0
 51 52  2  0  0  0  0
 52 53  1  0  0  0  0
 53 54  2  0  0  0  0
 53 55  1  0  0  0  0
 55 56  2  0  0  0  0
 56 57  1  0  0  0  0
 57 58  2  0  0  0  0
 58 59  1  0  0  0  0
 59 60  2  0  0  0  0
 60 61  1  0  0  0  0
 61 62  2  0  0  0  0
 62 63  1  0  0  0  0
 63 64  3  0  0  0  0
 62 65  1  0  0  0  0
 65 66  3  0  0  0  0
 58 67  1  0  0  0  0
 67 68  1  0  0  0  0
 68 69  1  0  0  0  0
 69 70  2  0  0  0  0
 70 71  1  0  0  0  0
 71 72  1  0  0  0  0
 71 73  1  0  0  0  0
 13  2  1  0  0  0  0
 46 15  1  0  0  0  0
 61 52  1  0  0  0  0
 73 67  1  0  0  0  0
 45 19  2  0  0  0  0
 60 55  1  0  0  0  0
 72 68  1  0  0  0  0
 44 21  2  0  0  0  0
 73 57  1  0  0  0  0
 42 22  1  0  0  0  0
 28 23  1  0  0  0  0
 41 29  1  0  0  0  0
 39 30  2  0  0  0  0
 38 32  2  0  0  0  0
  1 74  1  0  0  0  0
 11 75  1  0  0  0  0
 11 76  1  0  0  0  0
 12 77  1  0  0  0  0
 12 78  1  0  0  0  0
 12 79  1  0  0  0  0
 17 80  1  0  0  0  0
 17 81  1  0  0  0  0
 18 82  1  0  0  0  0
 18 83  1  0  0  0  0
 18 84  1  0  0  0  0
 26 85  1  0  0  0  0
 27 86  1  0  0  0  0
 34 87  1  0  0  0  0
 34 88  1  0  0  0  0
 35 89  1  0  0  0  0
 35 90  1  0  0  0  0
 35 91  1  0  0  0  0
 47 92  1  0  0  0  0
 47 93  1  0  0  0  0
 48 94  1  0  0  0  0
 48 95  1  0  0  0  0
 48 96  1  0  0  0  0
 49 97  1  0  0  0  0
 49 98  1  0  0  0  0
 50 99  1  0  0  0  0
 50100  1  0  0  0  0
 50101  1  0  0  0  0
 51102  1  0  0  0  0
 56103  1  0  0  0  0
 59104  1  0  0  0  0
 67105  1  0  0  0  0
 68106  1  0  0  0  0
 69107  1  0  0  0  0
 70108  1  0  0  0  0
 71109  1  0  0  0  0
 72110  1  0  0  0  0
 72111  1  0  0  0  0
 73112  1  0  0  0  0
M  END
