
  xtb     02022220193D
 energy: -199.853211811863 gnorm: 0.000705236802 xtb: 6.4.1 (unknown)
116130  0     0  0            999 V2000
    8.7197   -0.3498    5.5726 C   0  0  0  0  0  0  0  0  0  0  0  0
    9.9826    0.0791    5.9497 C   0  0  0  0  0  0  0  0  0  0  0  0
   10.6519    1.1651    5.2427 C   0  0  0  0  0  0  0  0  0  0  0  0
   10.1351    1.7720    4.3095 O   0  0  0  0  0  0  0  0  0  0  0  0
   11.9162    1.5186    5.6459 N   0  0  0  0  0  0  0  0  0  0  0  0
   12.5793    2.5904    4.9099 C   0  0  0  0  0  0  0  0  0  0  0  0
   13.2737    2.0519    3.6659 C   0  0  0  0  0  0  0  0  0  0  0  0
   12.6333    0.9182    6.6740 C   0  0  0  0  0  0  0  0  0  0  0  0
   13.7607    1.2784    6.9408 O   0  0  0  0  0  0  0  0  0  0  0  0
   11.9206   -0.1429    7.3824 C   0  0  0  0  0  0  0  0  0  0  0  0
   10.6600   -0.5511    7.0427 C   0  0  0  0  0  0  0  0  0  0  0  0
   10.0065   -1.6529    7.8213 C   0  0  0  0  0  0  0  0  0  0  0  0
   12.6236   -0.7350    8.4526 C   0  0  0  0  0  0  0  0  0  0  0  0
   13.1857   -1.2216    9.3266 N   0  0  0  0  0  0  0  0  0  0  0  0
    7.8205    0.0511    4.5818 C   0  0  0  0  0  0  0  0  0  0  0  0
    8.0133    1.3646    3.4196 S   0  0  0  0  0  0  0  0  0  0  0  0
    6.4618    1.0106    2.7669 C   0  0  0  0  0  0  0  0  0  0  0  0
    5.5668    1.4377    1.7911 C   0  0  0  0  0  0  0  0  0  0  0  0
    5.5106    2.7080    0.6092 S   0  0  0  0  0  0  0  0  0  0  0  0
    3.9324    2.1591    0.1918 C   0  0  0  0  0  0  0  0  0  0  0  0
    2.9110    2.6015   -0.6552 C   0  0  0  0  0  0  0  0  0  0  0  0
    2.8179    3.7772   -1.4312 C   0  0  0  0  0  0  0  0  0  0  0  0
    1.5567    4.1064   -2.0236 C   0  0  0  0  0  0  0  0  0  0  0  0
    1.5811    5.2707   -2.6536 N   0  0  0  0  0  0  0  0  0  0  0  0
    3.0691    5.8939   -2.5178 S   0  0  0  0  0  0  0  0  0  0  0  0
    3.7371    4.7048   -1.6465 N   0  0  0  0  0  0  0  0  0  0  0  0
    0.4961    3.1803   -1.9214 C   0  0  0  0  0  0  0  0  0  0  0  0
   -0.7884    3.2080   -2.4808 C   0  0  0  0  0  0  0  0  0  0  0  0
   -1.7834    4.2642   -3.4203 S   0  0  0  0  0  0  0  0  0  0  0  0
   -3.0279    3.0267   -3.4301 C   0  0  0  0  0  0  0  0  0  0  0  0
   -4.2917    2.9765   -4.0028 C   0  0  0  0  0  0  0  0  0  0  0  0
   -4.8856    4.1278   -4.7465 C   0  0  0  0  0  0  0  0  0  0  0  0
   -5.7461    4.9890   -3.8180 C   0  0  0  0  0  0  0  0  0  0  0  0
   -4.9254    1.7496   -3.7400 C   0  0  0  0  0  0  0  0  0  0  0  0
   -3.9118    0.6702   -2.7796 S   0  0  0  0  0  0  0  0  0  0  0  0
   -2.6674    1.8621   -2.7312 C   0  0  0  0  0  0  0  0  0  0  0  0
   -1.3875    1.9810   -2.1834 C   0  0  0  0  0  0  0  0  0  0  0  0
   -0.5376    1.2056   -1.4326 N   0  0  0  0  0  0  0  0  0  0  0  0
    0.6329    1.9317   -1.2433 C   0  0  0  0  0  0  0  0  0  0  0  0
    1.8219    1.7045   -0.4952 C   0  0  0  0  0  0  0  0  0  0  0  0
    2.1786    0.7691    0.4620 N   0  0  0  0  0  0  0  0  0  0  0  0
    3.4613    1.0399    0.8991 C   0  0  0  0  0  0  0  0  0  0  0  0
    4.4133    0.6097    1.8499 C   0  0  0  0  0  0  0  0  0  0  0  0
    4.5905   -0.3135    2.8653 N   0  0  0  0  0  0  0  0  0  0  0  0
    5.8305   -0.0794    3.4139 C   0  0  0  0  0  0  0  0  0  0  0  0
    6.5907   -0.6128    4.4328 C   0  0  0  0  0  0  0  0  0  0  0  0
    3.8390   -1.4798    3.2567 C   0  0  0  0  0  0  0  0  0  0  0  0
    4.4425   -2.7574    2.6710 C   0  0  0  0  0  0  0  0  0  0  0  0
    1.3111   -0.1665    1.1287 C   0  0  0  0  0  0  0  0  0  0  0  0
    1.5495   -1.6007    0.6534 C   0  0  0  0  0  0  0  0  0  0  0  0
   -0.7485   -0.2270   -1.4907 C   0  0  0  0  0  0  0  0  0  0  0  0
    0.0307   -0.8431   -2.6513 C   0  0  0  0  0  0  0  0  0  0  0  0
   -6.2126    1.4441   -4.1940 C   0  0  0  0  0  0  0  0  0  0  0  0
   -6.9773    0.3139   -4.0409 C   0  0  0  0  0  0  0  0  0  0  0  0
   -6.5840   -0.9122   -3.3433 C   0  0  0  0  0  0  0  0  0  0  0  0
   -5.5326   -1.1349   -2.7638 O   0  0  0  0  0  0  0  0  0  0  0  0
   -7.7097   -1.8499   -3.4814 C   0  0  0  0  0  0  0  0  0  0  0  0
   -7.7824   -3.1502   -2.9885 C   0  0  0  0  0  0  0  0  0  0  0  0
   -8.9626   -3.7919   -3.2769 C   0  0  0  0  0  0  0  0  0  0  0  0
   -9.9933   -3.1853   -4.0065 C   0  0  0  0  0  0  0  0  0  0  0  0
   -9.9324   -1.9034   -4.5003 C   0  0  0  0  0  0  0  0  0  0  0  0
   -8.7416   -1.2302   -4.2145 C   0  0  0  0  0  0  0  0  0  0  0  0
   -8.3143    0.1240   -4.5672 C   0  0  0  0  0  0  0  0  0  0  0  0
   -9.0688    1.0331   -5.2657 C   0  0  0  0  0  0  0  0  0  0  0  0
  -10.3719    0.7890   -5.7473 C   0  0  0  0  0  0  0  0  0  0  0  0
  -11.4334    0.6704   -6.1693 N   0  0  0  0  0  0  0  0  0  0  0  0
   -8.6775    2.3437   -5.6085 C   0  0  0  0  0  0  0  0  0  0  0  0
   -8.4426    3.4228   -5.9280 N   0  0  0  0  0  0  0  0  0  0  0  0
  -10.8811   -4.4011   -3.9153 C   0  0  0  0  0  0  0  0  0  0  0  0
  -12.0490   -4.3667   -2.8990 C   0  0  0  0  0  0  0  0  0  0  0  0
  -11.6383   -3.4115   -1.8060 C   0  0  0  0  0  0  0  0  0  0  0  0
  -10.6629   -3.9841   -1.1133 C   0  0  0  0  0  0  0  0  0  0  0  0
  -10.3964   -5.3371   -1.7256 C   0  0  0  0  0  0  0  0  0  0  0  0
  -11.8144   -5.7090   -2.1877 C   0  0  0  0  0  0  0  0  0  0  0  0
   -9.7330   -5.0763   -3.1006 C   0  0  0  0  0  0  0  0  0  0  0  0
    8.3267   -1.1749    6.1545 H   0  0  0  0  0  0  0  0  0  0  0  0
   13.3072    3.0395    5.5876 H   0  0  0  0  0  0  0  0  0  0  0  0
   11.8174    3.3214    4.6331 H   0  0  0  0  0  0  0  0  0  0  0  0
   14.0212    1.3123    3.9440 H   0  0  0  0  0  0  0  0  0  0  0  0
   12.5465    1.5944    2.9989 H   0  0  0  0  0  0  0  0  0  0  0  0
   13.7655    2.8661    3.1413 H   0  0  0  0  0  0  0  0  0  0  0  0
    9.0710   -1.3095    8.2616 H   0  0  0  0  0  0  0  0  0  0  0  0
    9.7949   -2.5058    7.1768 H   0  0  0  0  0  0  0  0  0  0  0  0
   10.6611   -1.9856    8.6227 H   0  0  0  0  0  0  0  0  0  0  0  0
   -4.0686    4.7360   -5.1401 H   0  0  0  0  0  0  0  0  0  0  0  0
   -5.4917    3.7845   -5.5859 H   0  0  0  0  0  0  0  0  0  0  0  0
   -5.1487    5.3677   -2.9919 H   0  0  0  0  0  0  0  0  0  0  0  0
   -6.5736    4.4107   -3.4139 H   0  0  0  0  0  0  0  0  0  0  0  0
   -6.1534    5.8307   -4.3705 H   0  0  0  0  0  0  0  0  0  0  0  0
    6.3080   -1.4370    5.0637 H   0  0  0  0  0  0  0  0  0  0  0  0
    3.8638   -1.5347    4.3502 H   0  0  0  0  0  0  0  0  0  0  0  0
    2.8009   -1.3754    2.9525 H   0  0  0  0  0  0  0  0  0  0  0  0
    3.8374   -3.6166    2.9468 H   0  0  0  0  0  0  0  0  0  0  0  0
    4.4956   -2.6983    1.5861 H   0  0  0  0  0  0  0  0  0  0  0  0
    5.4516   -2.9040    3.0468 H   0  0  0  0  0  0  0  0  0  0  0  0
    1.5011   -0.0888    2.2049 H   0  0  0  0  0  0  0  0  0  0  0  0
    0.2781    0.1480    0.9732 H   0  0  0  0  0  0  0  0  0  0  0  0
    2.5884   -1.8759    0.8040 H   0  0  0  0  0  0  0  0  0  0  0  0
    1.3407   -1.7056   -0.4065 H   0  0  0  0  0  0  0  0  0  0  0  0
    0.9180   -2.2917    1.2064 H   0  0  0  0  0  0  0  0  0  0  0  0
   -1.8191   -0.3765   -1.6511 H   0  0  0  0  0  0  0  0  0  0  0  0
   -0.4898   -0.7106   -0.5541 H   0  0  0  0  0  0  0  0  0  0  0  0
   -0.1427   -1.9151   -2.6886 H   0  0  0  0  0  0  0  0  0  0  0  0
   -0.2961   -0.4080   -3.5929 H   0  0  0  0  0  0  0  0  0  0  0  0
    1.0980   -0.6571   -2.5426 H   0  0  0  0  0  0  0  0  0  0  0  0
   -6.6647    2.2467   -4.7601 H   0  0  0  0  0  0  0  0  0  0  0  0
   -6.9622   -3.5789   -2.4339 H   0  0  0  0  0  0  0  0  0  0  0  0
  -10.7344   -1.4550   -5.0620 H   0  0  0  0  0  0  0  0  0  0  0  0
  -11.1684   -4.8536   -4.8623 H   0  0  0  0  0  0  0  0  0  0  0  0
  -13.0271   -4.1979   -3.3413 H   0  0  0  0  0  0  0  0  0  0  0  0
  -12.0472   -2.4251   -1.6886 H   0  0  0  0  0  0  0  0  0  0  0  0
  -10.0934   -3.5715   -0.3011 H   0  0  0  0  0  0  0  0  0  0  0  0
   -9.8704   -6.0526   -1.0987 H   0  0  0  0  0  0  0  0  0  0  0  0
  -11.8413   -6.5664   -2.8588 H   0  0  0  0  0  0  0  0  0  0  0  0
  -12.4993   -5.8706   -1.3567 H   0  0  0  0  0  0  0  0  0  0  0  0
   -9.2719   -5.9708   -3.5152 H   0  0  0  0  0  0  0  0  0  0  0  0
  1  2  2  0  0  0  0
  2  3  1  0  0  0  0
  3  4  2  0  0  0  0
  3  5  1  0  0  0  0
  5  6  1  0  0  0  0
  6  7  1  0  0  0  0
  5  8  1  0  0  0  0
  8  9  2  0  0  0  0
  8 10  1  0  0  0  0
 10 11  2  0  0  0  0
 11 12  1  0  0  0  0
 10 13  1  0  0  0  0
 13 14  3  0  0  0  0
  1 15  1  0  0  0  0
 15 16  1  0  0  0  0
 16 17  1  0  0  0  0
 17 18  1  0  0  0  0
 18 19  1  0  0  0  0
 19 20  1  0  0  0  0
 20 21  1  0  0  0  0
 21 22  1  0  0  0  0
 22 23  1  0  0  0  0
 23 24  2  0  0  0  0
 24 25  1  0  0  0  0
 25 26  1  0  0  0  0
 23 27  1  0  0  0  0
 27 28  1  0  0  0  0
 28 29  1  0  0  0  0
 29 30  1  0  0  0  0
 30 31  1  0  0  0  0
 31 32  1  0  0  0  0
 32 33  1  0  0  0  0
 31 34  2  0  0  0  0
 34 35  1  0  0  0  0
 35 36  1  0  0  0  0
 36 37  1  0  0  0  0
 37 38  1  0  0  0  0
 38 39  1  0  0  0  0
 39 40  1  0  0  0  0
 40 41  1  0  0  0  0
 41 42  1  0  0  0  0
 42 43  1  0  0  0  0
 43 44  1  0  0  0  0
 44 45  1  0  0  0  0
 45 46  1  0  0  0  0
 44 47  1  0  0  0  0
 47 48  1  0  0  0  0
 41 49  1  0  0  0  0
 49 50  1  0  0  0  0
 38 51  1  0  0  0  0
 51 52  1  0  0  0  0
 34 53  1  0  0  0  0
 53 54  2  0  0  0  0
 54 55  1  0  0  0  0
 55 56  2  0  0  0  0
 55 57  1  0  0  0  0
 57 58  2  0  0  0  0
 58 59  1  0  0  0  0
 59 60  2  0  0  0  0
 60 61  1  0  0  0  0
 61 62  2  0  0  0  0
 62 63  1  0  0  0  0
 63 64  2  0  0  0  0
 64 65  1  0  0  0  0
 65 66  3  0  0  0  0
 64 67  1  0  0  0  0
 67 68  3  0  0  0  0
 60 69  1  0  0  0  0
 69 70  1  0  0  0  0
 70 71  1  0  0  0  0
 71 72  2  0  0  0  0
 72 73  1  0  0  0  0
 73 74  1  0  0  0  0
 73 75  1  0  0  0  0
 11  2  1  0  0  0  0
 46 15  2  0  0  0  0
 63 54  1  0  0  0  0
 75 69  1  0  0  0  0
 45 17  2  0  0  0  0
 62 57  1  0  0  0  0
 74 70  1  0  0  0  0
 43 18  2  0  0  0  0
 75 59  1  0  0  0  0
 42 20  2  0  0  0  0
 40 21  2  0  0  0  0
 26 22  2  0  0  0  0
 39 27  2  0  0  0  0
 37 28  2  0  0  0  0
 36 30  2  0  0  0  0
  1 76  1  0  0  0  0
  6 77  1  0  0  0  0
  6 78  1  0  0  0  0
  7 79  1  0  0  0  0
  7 80  1  0  0  0  0
  7 81  1  0  0  0  0
 12 82  1  0  0  0  0
 12 83  1  0  0  0  0
 12 84  1  0  0  0  0
 32 85  1  0  0  0  0
 32 86  1  0  0  0  0
 33 87  1  0  0  0  0
 33 88  1  0  0  0  0
 33 89  1  0  0  0  0
 46 90  1  0  0  0  0
 47 91  1  0  0  0  0
 47 92  1  0  0  0  0
 48 93  1  0  0  0  0
 48 94  1  0  0  0  0
 48 95  1  0  0  0  0
 49 96  1  0  0  0  0
 49 97  1  0  0  0  0
 50 98  1  0  0  0  0
 50 99  1  0  0  0  0
 50100  1  0  0  0  0
 51101  1  0  0  0  0
 51102  1  0  0  0  0
 52103  1  0  0  0  0
 52104  1  0  0  0  0
 52105  1  0  0  0  0
 53106  1  0  0  0  0
 58107  1  0  0  0  0
 61108  1  0  0  0  0
 69109  1  0  0  0  0
 70110  1  0  0  0  0
 71111  1  0  0  0  0
 72112  1  0  0  0  0
 73113  1  0  0  0  0
 74114  1  0  0  0  0
 74115  1  0  0  0  0
 75116  1  0  0  0  0
M  END
