116

C          8.71970       -0.34980        5.57260
C          9.98260        0.07910        5.94970
C         10.65190        1.16510        5.24270
O         10.13510        1.77200        4.30950
N         11.91620        1.51860        5.64590
C         12.57930        2.59040        4.90990
C         13.27370        2.05190        3.66590
C         12.63330        0.91820        6.67400
O         13.76070        1.27840        6.94080
C         11.92060       -0.14290        7.38240
C         10.66000       -0.55110        7.04270
C         10.00650       -1.65290        7.82130
C         12.62360       -0.73500        8.45260
N         13.18570       -1.22160        9.32660
C          7.82050        0.05110        4.58180
S          8.01330        1.36460        3.41960
C          6.46180        1.01060        2.76690
C          5.56680        1.43770        1.79110
S          5.51060        2.70800        0.60920
C          3.93240        2.15910        0.19180
C          2.91100        2.60150       -0.65520
C          2.81790        3.77720       -1.43120
C          1.55670        4.10640       -2.02360
N          1.58110        5.27070       -2.65360
S          3.06910        5.89390       -2.51780
N          3.73710        4.70480       -1.64650
C          0.49610        3.18030       -1.92140
C         -0.78840        3.20800       -2.48080
S         -1.78340        4.26420       -3.42030
C         -3.02790        3.02670       -3.43010
C         -4.29170        2.97650       -4.00280
C         -4.88560        4.12780       -4.74650
C         -5.74610        4.98900       -3.81800
C         -4.92540        1.74960       -3.74000
S         -3.91180        0.67020       -2.77960
C         -2.66740        1.86210       -2.73120
C         -1.38750        1.98100       -2.18340
N         -0.53760        1.20560       -1.43260
C          0.63290        1.93170       -1.24330
C          1.82190        1.70450       -0.49520
N          2.17860        0.76910        0.46200
C          3.46130        1.03990        0.89910
C          4.41330        0.60970        1.84990
N          4.59050       -0.31350        2.86530
C          5.83050       -0.07940        3.41390
C          6.59070       -0.61280        4.43280
C          3.83900       -1.47980        3.25670
C          4.44250       -2.75740        2.67100
C          1.31110       -0.16650        1.12870
C          1.54950       -1.60070        0.65340
C         -0.74850       -0.22700       -1.49070
C          0.03070       -0.84310       -2.65130
C         -6.21260        1.44410       -4.19400
C         -6.97730        0.31390       -4.04090
C         -6.58400       -0.91220       -3.34330
O         -5.53260       -1.13490       -2.76380
C         -7.70970       -1.84990       -3.48140
C         -7.78240       -3.15020       -2.98850
C         -8.96260       -3.79190       -3.27690
C         -9.99330       -3.18530       -4.00650
C         -9.93240       -1.90340       -4.50030
C         -8.74160       -1.23020       -4.21450
C         -8.31430        0.12400       -4.56720
C         -9.06880        1.03310       -5.26570
C        -10.37190        0.78900       -5.74730
N        -11.43340        0.67040       -6.16930
C         -8.67750        2.34370       -5.60850
N         -8.44260        3.42280       -5.92800
C        -10.88110       -4.40110       -3.91530
C        -12.04900       -4.36670       -2.89900
C        -11.63830       -3.41150       -1.80600
C        -10.66290       -3.98410       -1.11330
C        -10.39640       -5.33710       -1.72560
C        -11.81440       -5.70900       -2.18770
C         -9.73300       -5.07630       -3.10060
H          8.32670       -1.17490        6.15450
H         13.30720        3.03950        5.58760
H         11.81740        3.32140        4.63310
H         14.02120        1.31230        3.94400
H         12.54650        1.59440        2.99890
H         13.76550        2.86610        3.14130
H          9.07100       -1.30950        8.26160
H          9.79490       -2.50580        7.17680
H         10.66110       -1.98560        8.62270
H         -4.06860        4.73600       -5.14010
H         -5.49170        3.78450       -5.58590
H         -5.14870        5.36770       -2.99190
H         -6.57360        4.41070       -3.41390
H         -6.15340        5.83070       -4.37050
H          6.30800       -1.43700        5.06370
H          3.86380       -1.53470        4.35020
H          2.80090       -1.37540        2.95250
H          3.83740       -3.61660        2.94680
H          4.49560       -2.69830        1.58610
H          5.45160       -2.90400        3.04680
H          1.50110       -0.08880        2.20490
H          0.27810        0.14800        0.97320
H          2.58840       -1.87590        0.80400
H          1.34070       -1.70560       -0.40650
H          0.91800       -2.29170        1.20640
H         -1.81910       -0.37650       -1.65110
H         -0.48980       -0.71060       -0.55410
H         -0.14270       -1.91510       -2.68860
H         -0.29610       -0.40800       -3.59290
H          1.09800       -0.65710       -2.54260
H         -6.66470        2.24670       -4.76010
H         -6.96220       -3.57890       -2.43390
H        -10.73440       -1.45500       -5.06200
H        -11.16840       -4.85360       -4.86230
H        -13.02710       -4.19790       -3.34130
H        -12.04720       -2.42510       -1.68860
H        -10.09340       -3.57150       -0.30110
H         -9.87040       -6.05260       -1.09870
H        -11.84130       -6.56640       -2.85880
H        -12.49930       -5.87060       -1.35670
H         -9.27190       -5.97080       -3.51520
