
  xtb     02112206103D
 energy: -200.516136603590 gnorm: 0.000241074950 xtb: 6.4.1 (unknown)
121134  0     0  0            999 V2000
    8.5164    0.9393   -4.1819 C   0  0  0  0  0  0  0  0  0  0  0  0
    8.3220    1.0627   -5.5370 C   0  0  0  0  0  0  0  0  0  0  0  0
    9.5184    1.5584   -6.2627 C   0  0  0  0  0  0  0  0  0  0  0  0
   10.6211    1.5997   -5.7493 O   0  0  0  0  0  0  0  0  0  0  0  0
    9.3142    2.0294   -7.5399 N   0  0  0  0  0  0  0  0  0  0  0  0
   10.4441    2.6532   -8.2211 C   0  0  0  0  0  0  0  0  0  0  0  0
   10.4845    4.1521   -7.9536 C   0  0  0  0  0  0  0  0  0  0  0  0
    8.1085    1.9912   -8.2285 C   0  0  0  0  0  0  0  0  0  0  0  0
    7.9881    2.5302   -9.3080 O   0  0  0  0  0  0  0  0  0  0  0  0
    7.0626    1.1935   -7.5847 C   0  0  0  0  0  0  0  0  0  0  0  0
    7.1605    0.7329   -6.3006 C   0  0  0  0  0  0  0  0  0  0  0  0
    6.1188   -0.2142   -5.7904 C   0  0  0  0  0  0  0  0  0  0  0  0
    5.9351    0.8825   -8.3702 C   0  0  0  0  0  0  0  0  0  0  0  0
    5.0024    0.6171   -8.9836 N   0  0  0  0  0  0  0  0  0  0  0  0
    7.6133    0.8537   -3.1090 C   0  0  0  0  0  0  0  0  0  0  0  0
    7.9329    0.4362   -1.8157 C   0  0  0  0  0  0  0  0  0  0  0  0
    9.2494   -0.1431   -1.4186 C   0  0  0  0  0  0  0  0  0  0  0  0
    9.4043   -1.5722   -1.9439 C   0  0  0  0  0  0  0  0  0  0  0  0
    6.8368    0.5334   -0.9582 C   0  0  0  0  0  0  0  0  0  0  0  0
    5.6859    1.0745   -1.5532 C   0  0  0  0  0  0  0  0  0  0  0  0
    5.9523    1.4422   -3.2146 S   0  0  0  0  0  0  0  0  0  0  0  0
    4.6176    1.1296   -0.6574 C   0  0  0  0  0  0  0  0  0  0  0  0
    4.9546    0.6103    0.5967 C   0  0  0  0  0  0  0  0  0  0  0  0
    6.5965    0.0857    0.7182 S   0  0  0  0  0  0  0  0  0  0  0  0
    3.7831    0.6112    1.3687 C   0  0  0  0  0  0  0  0  0  0  0  0
    3.5538    0.0514    2.6521 C   0  0  0  0  0  0  0  0  0  0  0  0
    4.5590   -0.4690    3.3663 N   0  0  0  0  0  0  0  0  0  0  0  0
    4.2668   -1.0349    4.5185 C   0  0  0  0  0  0  0  0  0  0  0  0
    5.4027   -1.6049    5.3014 C   0  0  0  0  0  0  0  0  0  0  0  0
    2.9304   -1.0998    4.9876 C   0  0  0  0  0  0  0  0  0  0  0  0
    2.5852   -1.7506    6.2859 C   0  0  0  0  0  0  0  0  0  0  0  0
    1.9373   -0.5824    4.2959 N   0  0  0  0  0  0  0  0  0  0  0  0
    2.2260    0.0040    3.1276 C   0  0  0  0  0  0  0  0  0  0  0  0
    1.2162    0.6314    2.3539 C   0  0  0  0  0  0  0  0  0  0  0  0
   -0.1494    0.7972    2.6283 C   0  0  0  0  0  0  0  0  0  0  0  0
   -1.3212    0.2888    3.7914 S   0  0  0  0  0  0  0  0  0  0  0  0
   -2.5480    1.1712    2.9121 C   0  0  0  0  0  0  0  0  0  0  0  0
   -3.9443    1.2402    3.0395 C   0  0  0  0  0  0  0  0  0  0  0  0
   -4.7026    0.6164    4.1665 C   0  0  0  0  0  0  0  0  0  0  0  0
   -4.2127    1.1288    5.5211 C   0  0  0  0  0  0  0  0  0  0  0  0
   -4.4985    2.0168    2.0347 C   0  0  0  0  0  0  0  0  0  0  0  0
   -3.2800    2.7197    0.9774 S   0  0  0  0  0  0  0  0  0  0  0  0
   -2.0399    1.8568    1.8019 C   0  0  0  0  0  0  0  0  0  0  0  0
   -0.6750    1.6123    1.6221 C   0  0  0  0  0  0  0  0  0  0  0  0
    0.3033    1.9298    0.7203 N   0  0  0  0  0  0  0  0  0  0  0  0
    0.0625    2.9569   -0.2662 C   0  0  0  0  0  0  0  0  0  0  0  0
   -0.7237    2.4296   -1.4659 C   0  0  0  0  0  0  0  0  0  0  0  0
    1.4686    1.3076    1.1251 C   0  0  0  0  0  0  0  0  0  0  0  0
    2.7598    1.1827    0.5602 C   0  0  0  0  0  0  0  0  0  0  0  0
    3.2977    1.5021   -0.6773 N   0  0  0  0  0  0  0  0  0  0  0  0
    2.6534    1.6346   -1.9658 C   0  0  0  0  0  0  0  0  0  0  0  0
    2.1999    0.2744   -2.4927 C   0  0  0  0  0  0  0  0  0  0  0  0
   -5.8533    2.2981    1.7202 C   0  0  0  0  0  0  0  0  0  0  0  0
   -6.9240    1.4652    1.7959 C   0  0  0  0  0  0  0  0  0  0  0  0
   -8.3048    2.0144    1.7309 C   0  0  0  0  0  0  0  0  0  0  0  0
   -8.6163    3.1516    1.4563 O   0  0  0  0  0  0  0  0  0  0  0  0
   -9.1908    0.8979    2.1107 C   0  0  0  0  0  0  0  0  0  0  0  0
  -10.5764    0.9345    2.2574 C   0  0  0  0  0  0  0  0  0  0  0  0
  -11.1347   -0.2698    2.6126 C   0  0  0  0  0  0  0  0  0  0  0  0
  -10.3710   -1.4250    2.8305 C   0  0  0  0  0  0  0  0  0  0  0  0
   -9.0049   -1.4770    2.6926 C   0  0  0  0  0  0  0  0  0  0  0  0
   -8.4195   -0.2677    2.3059 C   0  0  0  0  0  0  0  0  0  0  0  0
   -7.0285    0.0318    1.9760 C   0  0  0  0  0  0  0  0  0  0  0  0
   -6.0810   -0.9023    1.6445 C   0  0  0  0  0  0  0  0  0  0  0  0
   -6.2563   -2.2943    1.7827 C   0  0  0  0  0  0  0  0  0  0  0  0
   -6.3244   -3.4352    1.8936 N   0  0  0  0  0  0  0  0  0  0  0  0
   -4.8556   -0.6135    1.0103 C   0  0  0  0  0  0  0  0  0  0  0  0
   -3.8784   -0.4771    0.4224 N   0  0  0  0  0  0  0  0  0  0  0  0
  -11.5830   -2.2644    3.1466 C   0  0  0  0  0  0  0  0  0  0  0  0
  -12.0616   -3.2164    2.0297 C   0  0  0  0  0  0  0  0  0  0  0  0
  -13.4902   -3.5315    2.4101 C   0  0  0  0  0  0  0  0  0  0  0  0
  -14.2143   -2.4401    2.1976 C   0  0  0  0  0  0  0  0  0  0  0  0
  -13.2873   -1.3689    1.6697 C   0  0  0  0  0  0  0  0  0  0  0  0
  -12.3069   -2.2391    0.8726 C   0  0  0  0  0  0  0  0  0  0  0  0
  -12.4354   -0.9789    2.8971 C   0  0  0  0  0  0  0  0  0  0  0  0
    9.5611    1.0033   -3.8862 H   0  0  0  0  0  0  0  0  0  0  0  0
   11.3511    2.1730   -7.8499 H   0  0  0  0  0  0  0  0  0  0  0  0
   10.3258    2.4636   -9.2895 H   0  0  0  0  0  0  0  0  0  0  0  0
    9.5727    4.6205   -8.3167 H   0  0  0  0  0  0  0  0  0  0  0  0
   11.3333    4.5926   -8.4688 H   0  0  0  0  0  0  0  0  0  0  0  0
   10.5845    4.3410   -6.8870 H   0  0  0  0  0  0  0  0  0  0  0  0
    5.1934    0.3121   -5.5596 H   0  0  0  0  0  0  0  0  0  0  0  0
    6.4606   -0.7411   -4.9041 H   0  0  0  0  0  0  0  0  0  0  0  0
    5.8851   -0.9420   -6.5669 H   0  0  0  0  0  0  0  0  0  0  0  0
   10.0612    0.4738   -1.8103 H   0  0  0  0  0  0  0  0  0  0  0  0
    9.3100   -0.1477   -0.3288 H   0  0  0  0  0  0  0  0  0  0  0  0
    9.3727   -1.5846   -3.0310 H   0  0  0  0  0  0  0  0  0  0  0  0
   10.3551   -1.9864   -1.6198 H   0  0  0  0  0  0  0  0  0  0  0  0
    8.6041   -2.2035   -1.5642 H   0  0  0  0  0  0  0  0  0  0  0  0
    6.3284   -1.4418    4.7569 H   0  0  0  0  0  0  0  0  0  0  0  0
    5.2590   -2.6731    5.4577 H   0  0  0  0  0  0  0  0  0  0  0  0
    5.4690   -1.1282    6.2783 H   0  0  0  0  0  0  0  0  0  0  0  0
    1.5123   -1.6853    6.4425 H   0  0  0  0  0  0  0  0  0  0  0  0
    2.8864   -2.7971    6.2787 H   0  0  0  0  0  0  0  0  0  0  0  0
    3.1015   -1.2576    7.1084 H   0  0  0  0  0  0  0  0  0  0  0  0
   -5.7664    0.8366    4.0648 H   0  0  0  0  0  0  0  0  0  0  0  0
   -4.5703   -0.4696    4.1238 H   0  0  0  0  0  0  0  0  0  0  0  0
   -3.1667    0.8786    5.6748 H   0  0  0  0  0  0  0  0  0  0  0  0
   -4.3254    2.2092    5.5783 H   0  0  0  0  0  0  0  0  0  0  0  0
   -4.7970    0.6771    6.3186 H   0  0  0  0  0  0  0  0  0  0  0  0
   -0.5290    3.7421    0.2186 H   0  0  0  0  0  0  0  0  0  0  0  0
    1.0162    3.4018   -0.5553 H   0  0  0  0  0  0  0  0  0  0  0  0
   -0.8330    3.2152   -2.2086 H   0  0  0  0  0  0  0  0  0  0  0  0
   -1.7146    2.1153   -1.1505 H   0  0  0  0  0  0  0  0  0  0  0  0
   -0.2332    1.5753   -1.9226 H   0  0  0  0  0  0  0  0  0  0  0  0
    3.3936    2.0652   -2.6459 H   0  0  0  0  0  0  0  0  0  0  0  0
    1.8132    2.3179   -1.9130 H   0  0  0  0  0  0  0  0  0  0  0  0
    3.0525   -0.3919   -2.6019 H   0  0  0  0  0  0  0  0  0  0  0  0
    1.7257    0.3910   -3.4633 H   0  0  0  0  0  0  0  0  0  0  0  0
    1.4925   -0.1851   -1.8052 H   0  0  0  0  0  0  0  0  0  0  0  0
   -6.0696    3.3034    1.3702 H   0  0  0  0  0  0  0  0  0  0  0  0
  -11.1267    1.8468    2.0884 H   0  0  0  0  0  0  0  0  0  0  0  0
   -8.4277   -2.3691    2.8705 H   0  0  0  0  0  0  0  0  0  0  0  0
  -11.6036   -2.7208    4.1343 H   0  0  0  0  0  0  0  0  0  0  0  0
  -11.4058   -4.0618    1.8413 H   0  0  0  0  0  0  0  0  0  0  0  0
  -13.8061   -4.4676    2.8318 H   0  0  0  0  0  0  0  0  0  0  0  0
  -15.2561   -2.2821    2.4064 H   0  0  0  0  0  0  0  0  0  0  0  0
  -13.7500   -0.5327    1.1526 H   0  0  0  0  0  0  0  0  0  0  0  0
  -11.4147   -1.7129    0.5383 H   0  0  0  0  0  0  0  0  0  0  0  0
  -12.7842   -2.7216    0.0214 H   0  0  0  0  0  0  0  0  0  0  0  0
  -13.0286   -0.5779    3.7167 H   0  0  0  0  0  0  0  0  0  0  0  0
  1  2  2  0  0  0  0
  2  3  1  0  0  0  0
  3  4  2  0  0  0  0
  3  5  1  0  0  0  0
  5  6  1  0  0  0  0
  6  7  1  0  0  0  0
  5  8  1  0  0  0  0
  8  9  2  0  0  0  0
  8 10  1  0  0  0  0
 10 11  2  0  0  0  0
 11 12  1  0  0  0  0
 10 13  1  0  0  0  0
 13 14  3  0  0  0  0
  1 15  1  0  0  0  0
 15 16  2  0  0  0  0
 16 17  1  0  0  0  0
 17 18  1  0  0  0  0
 16 19  1  0  0  0  0
 19 20  2  0  0  0  0
 20 21  1  0  0  0  0
 20 22  1  0  0  0  0
 22 23  2  0  0  0  0
 23 24  1  0  0  0  0
 23 25  1  0  0  0  0
 25 26  2  0  0  0  0
 26 27  1  0  0  0  0
 27 28  2  0  0  0  0
 28 29  1  0  0  0  0
 28 30  1  0  0  0  0
 30 31  1  0  0  0  0
 30 32  2  0  0  0  0
 32 33  1  0  0  0  0
 33 34  2  0  0  0  0
 34 35  1  0  0  0  0
 35 36  1  0  0  0  0
 36 37  1  0  0  0  0
 37 38  1  0  0  0  0
 38 39  1  0  0  0  0
 39 40  1  0  0  0  0
 38 41  2  0  0  0  0
 41 42  1  0  0  0  0
 42 43  1  0  0  0  0
 43 44  1  0  0  0  0
 44 45  1  0  0  0  0
 45 46  1  0  0  0  0
 46 47  1  0  0  0  0
 45 48  1  0  0  0  0
 48 49  2  0  0  0  0
 49 50  1  0  0  0  0
 50 51  1  0  0  0  0
 51 52  1  0  0  0  0
 41 53  1  0  0  0  0
 53 54  2  0  0  0  0
 54 55  1  0  0  0  0
 55 56  2  0  0  0  0
 55 57  1  0  0  0  0
 57 58  2  0  0  0  0
 58 59  1  0  0  0  0
 59 60  2  0  0  0  0
 60 61  1  0  0  0  0
 61 62  2  0  0  0  0
 62 63  1  0  0  0  0
 63 64  2  0  0  0  0
 64 65  1  0  0  0  0
 65 66  3  0  0  0  0
 64 67  1  0  0  0  0
 67 68  3  0  0  0  0
 60 69  1  0  0  0  0
 69 70  1  0  0  0  0
 70 71  1  0  0  0  0
 71 72  2  0  0  0  0
 72 73  1  0  0  0  0
 73 74  1  0  0  0  0
 73 75  1  0  0  0  0
 11  2  1  0  0  0  0
 21 15  1  0  0  0  0
 50 22  1  0  0  0  0
 63 54  1  0  0  0  0
 75 69  1  0  0  0  0
 24 19  1  0  0  0  0
 49 25  1  0  0  0  0
 62 57  1  0  0  0  0
 74 70  1  0  0  0  0
 33 26  1  0  0  0  0
 48 34  1  0  0  0  0
 75 59  1  0  0  0  0
 44 35  2  0  0  0  0
 43 37  2  0  0  0  0
  1 76  1  0  0  0  0
  6 77  1  0  0  0  0
  6 78  1  0  0  0  0
  7 79  1  0  0  0  0
  7 80  1  0  0  0  0
  7 81  1  0  0  0  0
 12 82  1  0  0  0  0
 12 83  1  0  0  0  0
 12 84  1  0  0  0  0
 17 85  1  0  0  0  0
 17 86  1  0  0  0  0
 18 87  1  0  0  0  0
 18 88  1  0  0  0  0
 18 89  1  0  0  0  0
 29 90  1  0  0  0  0
 29 91  1  0  0  0  0
 29 92  1  0  0  0  0
 31 93  1  0  0  0  0
 31 94  1  0  0  0  0
 31 95  1  0  0  0  0
 39 96  1  0  0  0  0
 39 97  1  0  0  0  0
 40 98  1  0  0  0  0
 40 99  1  0  0  0  0
 40100  1  0  0  0  0
 46101  1  0  0  0  0
 46102  1  0  0  0  0
 47103  1  0  0  0  0
 47104  1  0  0  0  0
 47105  1  0  0  0  0
 51106  1  0  0  0  0
 51107  1  0  0  0  0
 52108  1  0  0  0  0
 52109  1  0  0  0  0
 52110  1  0  0  0  0
 53111  1  0  0  0  0
 58112  1  0  0  0  0
 61113  1  0  0  0  0
 69114  1  0  0  0  0
 70115  1  0  0  0  0
 71116  1  0  0  0  0
 72117  1  0  0  0  0
 73118  1  0  0  0  0
 74119  1  0  0  0  0
 74120  1  0  0  0  0
 75121  1  0  0  0  0
M  END
