134

C         -6.87890        3.81930       -3.99740
C         -6.45130        5.04560       -4.40860
C         -5.09420        5.52070       -4.25710
O         -4.22050        4.92640       -3.64080
N         -4.77890        6.75910       -4.82340
C         -3.47670        7.32830       -4.48360
C         -2.39350        6.84410       -5.43840
C         -5.51610        7.42280       -5.77440
O         -5.15800        8.47140       -6.24740
C         -6.78580        6.69330       -6.20700
C         -7.70490        7.59930       -6.85620
N         -8.46580        8.29150       -7.35190
C         -7.44840        6.00470       -5.00390
C         -7.90710        7.03140       -3.96330
C         -6.22220        2.71780       -3.40870
C         -6.88480        1.50880       -3.17020
C         -8.32250        1.29860       -3.40750
C         -9.23210        1.93980       -2.57170
C        -10.59190        1.75990       -2.73960
C        -11.05230        0.93640       -3.75240
C        -10.15070        0.30290       -4.58830
C         -8.78070        0.46760       -4.43240
C         -7.83010       -0.17920       -5.39940
C         -7.37730        0.82080       -6.46580
C         -6.02870        0.54520       -2.64040
S         -6.27270       -1.12180       -2.15580
C         -4.60150       -1.19880       -1.70930
C         -3.67290       -2.13840       -1.23980
C         -3.77670       -3.53310       -1.03990
C         -2.59140       -4.27750       -0.72310
N         -2.81930       -5.57820       -0.63740
S         -4.39030       -5.84450       -0.92360
N         -4.84090       -4.30860       -1.17130
C         -1.38830       -3.57690       -0.48180
C         -0.14060       -4.01620       -0.01650
S          0.66170       -5.49820        0.37760
C          2.06050       -4.56480        0.87300
C          3.29140       -4.92930        1.40190
C          3.71880       -6.32160        1.60870
C          3.85290       -6.87250        2.88520
C          3.47190       -6.10210        4.11800
C          1.96370       -6.20370        4.35640
C          4.27020       -8.19150        2.99560
C          4.55240       -8.95200        1.87650
C          4.40220       -8.40470        0.61430
C          3.98280       -7.09530        0.48290
C          4.09330       -3.80790        1.67390
S          3.27860       -2.29700        1.27750
C          1.89420       -3.17510        0.73750
C          0.63500       -2.87310        0.21170
N         -0.06780       -1.74770       -0.13730
C         -1.31510       -2.15740       -0.57850
C         -2.43120       -1.45290       -1.09980
N         -2.59970       -0.15300       -1.53290
C         -3.90980        0.00250       -1.89930
C         -4.71760        1.00540       -2.44930
S         -4.52910        2.64630       -2.94960
C         -1.61790        0.82680       -1.93950
C         -1.60770        2.05240       -1.02740
C          0.31620       -0.48530        0.45920
C         -0.44640       -0.24620        1.76040
C          5.39190       -3.93950        2.17920
C          6.31130       -2.98530        2.53470
C          6.12960       -1.53550        2.43580
O          5.14250       -0.93490        2.04120
C          7.38490       -0.92630        2.90510
C          7.67710        0.43240        2.99250
C          8.93650        0.70360        3.47040
C          9.84270       -0.30390        3.82580
C          9.56690       -1.64820        3.74240
C          8.28660       -1.94690        3.26900
C          7.63390       -3.24070        3.06720
C          8.18550       -4.46050        3.36720
C          7.55570       -5.71560        3.23180
N          7.12780       -6.78060        3.17170
C          9.48440       -4.64290        3.88620
N         10.52700       -4.87490        4.30860
C         10.90670        0.68510        4.23090
C         11.12310        0.92840        5.74490
C          9.81060        0.61690        6.42020
C          8.94910        1.56940        6.08910
C          9.66370        2.54240        5.18410
C         11.08250        2.46470        5.77000
C          9.89480        1.80800        3.83990
H         -7.93320        3.61700       -4.16700
H         -3.57490        8.41390       -4.53950
H         -3.24450        7.02380       -3.46180
H         -2.31060        5.76080       -5.39190
H         -2.62890        7.14410       -6.45700
H         -1.43900        7.28070       -5.15890
H         -6.48590        5.93560       -6.94560
H         -8.32670        5.45090       -5.35340
H         -8.61920        7.72410       -4.40680
H         -7.06450        7.60240       -3.57820
H         -8.38730        6.52250       -3.13060
H         -8.86020        2.57490       -1.78010
H        -11.28760        2.25920       -2.08210
H        -12.11280        0.78920       -3.89190
H        -10.51440       -0.33520       -5.38090
H         -8.32720       -1.02020       -5.88550
H         -6.95600       -0.56360       -4.87320
H         -6.71950        0.33520       -7.18270
H         -8.23700        1.22040       -6.99960
H         -6.83950        1.64980       -6.01060
H          3.74880       -5.05090        4.02150
H          4.00370       -6.51270        4.97810
H          1.41620       -5.78740        3.51370
H          1.66890       -7.24400        4.47250
H          1.68340       -5.65960        5.25560
H          4.38220       -8.62350        3.97900
H          4.88740       -9.97200        1.98880
H          4.61370       -8.99280       -0.26600
H          3.86840       -6.65400       -0.49690
H         -1.88030        1.15390       -2.95190
H         -0.64210        0.34220       -1.99390
H         -2.53470        2.60690       -1.14300
H         -1.50450        1.77260        0.01730
H         -0.78510        2.70670       -1.30250
H          1.38700       -0.54950        0.66660
H          0.15840        0.34060       -0.22790
H         -0.12610        0.68910        2.21100
H         -0.25220       -1.05310        2.46320
H         -1.51810       -0.20280        1.57550
H          5.68900       -4.97490        2.29970
H          6.95040        1.17550        2.70300
H         10.27720       -2.40900        4.01910
H         11.84410        0.62960        3.68100
H         12.00290        0.44310        6.15880
H          9.63290       -0.26740        7.00380
H          7.90700        1.63970        6.34080
H          9.21470        3.52770        5.08890
H         11.14470        2.87120        6.77830
H         11.83880        2.92920        5.13870
H         10.17320        2.48910        3.03790
