121

C          6.07150       -3.19250        3.27410
C          7.08180       -3.38950        2.38200
C          6.96040       -3.14660        0.96140
O          5.93790       -2.75590        0.41480
N          8.07250       -3.42460        0.16370
C          7.86430       -3.43410       -1.28250
C          8.03990       -2.04390       -1.87900
C          9.36770       -3.55350        0.60640
O         10.28430       -3.77300       -0.14340
C          9.53390       -3.34090        2.10890
C         10.80600       -3.85110        2.56630
N         11.79210       -4.26390        2.96710
C          8.37200       -3.99180        2.87380
C          8.36540       -5.51210        2.67940
C          4.74980       -2.71410        3.14500
C          3.88420       -2.65020        4.24170
C          4.22550       -3.07820        5.60830
C          4.39070       -2.09820        6.58130
C          4.70760       -2.44340        7.88130
C          4.85560       -3.77770        8.21820
C          4.67430       -4.75530        7.25660
C          4.35800       -4.42820        5.94470
C          4.07820       -5.51660        4.94650
C          2.57220       -5.77350        4.85840
C          2.65290       -2.09690        3.89750
S          1.19560       -1.78690        4.81990
C          0.46200       -1.16510        3.37980
C         -0.73410       -0.55530        2.97830
C         -1.86020       -0.14290        3.72450
C         -2.88650        0.61190        3.06720
N         -3.84800        0.98760        3.89550
S         -3.49570        0.43320        5.37500
N         -2.10050       -0.30520        5.01600
C         -2.79570        0.81810        1.67260
C         -3.68870        1.41420        0.77300
S         -5.20710        2.24300        0.79250
C         -5.12710        2.35500       -0.95650
C         -5.98020        2.89770       -1.90500
C         -7.28430        3.51780       -1.63080
C         -7.39100        4.75840       -0.99940
C         -6.17520        5.56830       -0.65090
C         -5.67490        6.32720       -1.88240
C         -8.65820        5.28260       -0.78320
C         -9.79570        4.60230       -1.17500
C         -9.68300        3.37460       -1.80370
C         -8.43150        2.83860       -2.03380
C         -5.47120        2.74370       -3.21080
S         -3.93380        1.88280       -3.22900
C         -3.97170        1.76630       -1.50900
C         -3.15600        1.23380       -0.50980
N         -1.95580        0.57130       -0.43520
C         -1.70520        0.31440        0.90300
C         -0.60860       -0.27430        1.58500
N          0.65220       -0.66510        1.17820
C          1.29470       -1.20980        2.25600
C          2.55760       -1.74160        2.54420
S          4.00450       -2.10740        1.67670
C          1.41320       -0.31690       -0.00010
C          1.63910       -1.51810       -0.91730
C         -1.51400       -0.15050       -1.61080
C         -2.12240       -1.55090       -1.64750
C         -6.11000        3.31070       -4.31190
C         -5.76370        3.31760       -5.64470
C         -4.63990        2.60140       -6.24220
O         -3.79590        1.92360       -5.68100
C         -4.72850        2.85080       -7.69720
C         -3.90590        2.38100       -8.70090
C         -4.20250        2.75490      -10.00190
F         -3.43070        2.32250      -11.00780
C         -5.29640        3.57570      -10.27310
F         -5.56200        3.91810      -11.53930
C         -6.12140        4.04950       -9.26290
C         -5.83100        3.68180       -7.95910
C         -6.48330        4.01090       -6.68940
C         -7.54970        4.86190       -6.54560
C         -8.19140        5.50710       -7.62360
N         -8.75710        6.05820       -8.45680
C         -8.14540        5.24460       -5.32480
N         -8.68120        5.62670       -4.38270
H          6.30510       -3.45720        4.30220
H          6.85190       -3.79870       -1.46410
H          8.59440       -4.12520       -1.70780
H          7.87690       -2.08480       -2.95210
H          9.04770       -1.67970       -1.69340
H          7.32130       -1.35520       -1.44110
H          9.52690       -2.25510        2.28330
H          8.49050       -3.78100        3.94240
H          7.54970       -5.95260        3.24840
H          8.23390       -5.77160        1.63060
H          9.30380       -5.94020        3.02530
H          4.27380       -1.06010        6.30630
H          4.83690       -1.67410        8.62740
H          5.10470       -4.05760        9.23070
H          4.77640       -5.79670        7.52660
H          4.58190       -6.43410        5.25760
H          4.45200       -5.24220        3.95860
H          2.18060       -6.06250        5.83080
H          2.36490       -6.57020        4.14790
H          2.05170       -4.87530        4.53500
H         -5.37840        4.92690       -0.27230
H         -6.43180        6.28490        0.13100
H         -4.84530        6.97780       -1.61580
H         -6.47520        6.93280       -2.30130
H         -5.33700        5.63400       -2.64990
H         -8.74950        6.24730       -0.30610
H        -10.76950        5.03320       -0.99910
H        -10.56480        2.83860       -2.12020
H         -8.33010        1.88020       -2.52390
H          0.91610        0.51030       -0.50880
H          2.39000        0.04620        0.33780
H          2.10410       -1.19170       -1.84340
H          0.70660       -2.02600       -1.14780
H          2.30510       -2.22900       -0.43610
H         -0.43230       -0.21250       -1.65420
H         -1.85460        0.42170       -2.47730
H         -3.20820       -1.49090       -1.65540
H         -1.79850       -2.07080       -2.54470
H         -1.81630       -2.12490       -0.77480
H         -7.01930        3.83610       -4.04530
H         -3.06120        1.74610       -8.48680
H         -6.95410        4.68060       -9.52630
