116

C         -3.95390       -3.20350       -6.13560
C         -4.24720       -2.31070       -7.09550
C         -4.19770       -0.85110       -6.90290
O         -4.42140       -0.28560       -5.85730
N         -3.92890       -0.09860       -8.05390
C         -3.87530        1.35260       -7.88700
C         -2.49490        1.80370       -7.42860
C         -3.63350       -0.59200       -9.30200
O         -3.28930        0.12750      -10.20670
C         -3.74720       -2.10890       -9.46530
C         -4.12700       -2.43050      -10.82220
N         -4.45630       -2.72120      -11.87620
C         -4.72840       -2.73300       -8.45670
C         -6.16890       -2.28830       -8.71850
C         -3.37060       -2.94240       -4.83370
C         -3.77460       -3.73820       -3.74590
C         -3.29390       -3.52870       -2.47610
C         -2.35600       -2.51740       -2.26270
C         -1.64920       -1.98970       -1.15650
C         -0.81160       -0.97920       -1.63020
N         -0.96300       -0.82630       -2.97800
C         -1.89800       -1.74660       -3.38290
C         -2.40240       -1.96110       -4.65170
C         -0.23540        0.08910       -3.81600
C          0.92100       -0.60480       -4.53410
C         -0.09830       -0.47970       -0.53330
C          0.93630        0.47180       -0.44920
C          1.54430        0.73240        0.80310
N          2.52180        1.62060        0.60530
N          2.47760        1.86300       -0.68450
C          3.35410        2.81370       -1.30330
C          2.88850        4.23960       -1.02250
N          1.55930        1.21840       -1.36610
C          1.04180        0.10900        1.96130
C         -0.03610       -0.83320        1.90000
C         -0.55720       -1.19290        0.62180
N         -1.49000       -2.12930        0.19910
C         -2.15260       -3.22440        0.86160
C         -3.63340       -2.92500        1.10490
N         -0.37090       -1.18210        3.20000
C         -1.45860       -1.93840        3.76820
C         -0.99160       -3.30460        4.27390
C          0.46150       -0.50030        4.05240
C          1.34280        0.29810        3.31410
N          2.15150        1.01310        4.14630
C          3.05830        2.05780        3.74630
C          2.36830        3.42080        3.72720
C          1.75280        0.72470        5.43100
C          0.69540       -0.25240        5.41800
C          0.17750       -0.70510        6.63680
C          0.66100       -0.18230        7.80690
C          1.64150        0.83510        7.81930
C          2.21230        1.25930        6.61100
C          2.03580        1.41040        9.06310
C          2.59640        2.63580        9.26590
C          3.28610        2.95680       10.53500
O          3.24750        2.32830       11.56590
C          4.08460        4.17790       10.24270
C          5.04110        4.80640       11.02040
Cl         5.34790        4.31140       12.62470
C          5.76690        5.86530       10.45410
Cl         6.93740        6.69030       11.38960
C          5.56780        6.22180        9.12130
Cl         6.53440        7.45060        8.42510
C          4.59600        5.58120        8.33790
Cl         4.50690        5.94330        6.66290
C          3.81120        4.60170        8.92670
C          2.70110        3.80160        8.41170
C          1.73110        4.24590        7.55200
C          0.56750        3.50900        7.23740
N         -0.41940        2.99680        6.95330
C          1.65420        5.54390        7.00570
N          1.47450        6.58790        6.56350
H         -4.16720       -4.24720       -6.34350
H         -4.12200        1.80210       -8.85000
H         -4.62690        1.62090       -7.14220
H         -2.25820        1.35980       -6.46420
H         -2.47910        2.88490       -7.32590
H         -1.74090        1.51070       -8.15590
H         -2.74050       -2.51940       -9.29840
H         -4.67880       -3.82380       -8.54430
H         -6.49030       -2.61480       -9.70530
H         -6.26620       -1.20590       -8.66540
H         -6.82890       -2.72710       -7.97350
H         -4.50820       -4.51240       -3.91700
H         -3.63970       -4.14820       -1.66220
H         -2.04390       -1.38990       -5.49370
H          0.16120        0.87880       -3.17450
H         -0.92680        0.52730       -4.54230
H          1.43260        0.10080       -5.18280
H          0.55960       -1.43690       -5.13440
H          1.63160       -0.98530       -3.80470
H          4.35880        2.66040       -0.90140
H          3.34670        2.60580       -2.37470
H          2.86660        4.41820        0.04970
H          3.56890        4.94930       -1.48420
H          1.89080        4.39720       -1.42490
H         -1.63300       -3.47350        1.78230
H         -2.07480       -4.09420        0.19910
H         -3.76770       -2.01470        1.68540
H         -4.09900       -3.75200        1.63480
H         -4.14390       -2.78350        0.15610
H         -1.84060       -1.35960        4.61630
H         -2.26660       -2.02940        3.04960
H         -1.83380       -3.86020        4.67780
H         -0.24800       -3.17690        5.05640
H         -0.53390       -3.88980        3.47860
H          3.90740        2.06870        4.43560
H          3.41150        1.82000        2.74010
H          1.90980        3.63690        4.68950
H          3.08800        4.20210        3.49950
H          1.58980        3.42950        2.96870
H         -0.60120       -1.45200        6.66270
H          0.25230       -0.50950        8.75090
H          3.01850        1.97710        6.61890
H          1.92780        0.79530        9.94980
