
  xtb     02112204533D
 energy: -213.362271969309 gnorm: 0.000430099160 xtb: 6.4.1 (unknown)
121133  0     0  0            999 V2000
    6.0715   -3.1925    3.2741 C   0  0  0  0  0  0  0  0  0  0  0  0
    7.0818   -3.3895    2.3820 C   0  0  0  0  0  0  0  0  0  0  0  0
    6.9604   -3.1466    0.9614 C   0  0  0  0  0  0  0  0  0  0  0  0
    5.9379   -2.7559    0.4148 O   0  0  0  0  0  0  0  0  0  0  0  0
    8.0725   -3.4246    0.1637 N   0  0  0  0  0  0  0  0  0  0  0  0
    7.8643   -3.4341   -1.2825 C   0  0  0  0  0  0  0  0  0  0  0  0
    8.0399   -2.0439   -1.8790 C   0  0  0  0  0  0  0  0  0  0  0  0
    9.3677   -3.5535    0.6064 C   0  0  0  0  0  0  0  0  0  0  0  0
   10.2843   -3.7730   -0.1434 O   0  0  0  0  0  0  0  0  0  0  0  0
    9.5339   -3.3409    2.1089 C   0  0  0  0  0  0  0  0  0  0  0  0
   10.8060   -3.8511    2.5663 C   0  0  0  0  0  0  0  0  0  0  0  0
   11.7921   -4.2639    2.9671 N   0  0  0  0  0  0  0  0  0  0  0  0
    8.3720   -3.9918    2.8738 C   0  0  0  0  0  0  0  0  0  0  0  0
    8.3654   -5.5121    2.6794 C   0  0  0  0  0  0  0  0  0  0  0  0
    4.7498   -2.7141    3.1450 C   0  0  0  0  0  0  0  0  0  0  0  0
    3.8842   -2.6502    4.2417 C   0  0  0  0  0  0  0  0  0  0  0  0
    4.2255   -3.0782    5.6083 C   0  0  0  0  0  0  0  0  0  0  0  0
    4.3907   -2.0982    6.5813 C   0  0  0  0  0  0  0  0  0  0  0  0
    4.7076   -2.4434    7.8813 C   0  0  0  0  0  0  0  0  0  0  0  0
    4.8556   -3.7777    8.2182 C   0  0  0  0  0  0  0  0  0  0  0  0
    4.6743   -4.7553    7.2566 C   0  0  0  0  0  0  0  0  0  0  0  0
    4.3580   -4.4282    5.9447 C   0  0  0  0  0  0  0  0  0  0  0  0
    4.0782   -5.5166    4.9465 C   0  0  0  0  0  0  0  0  0  0  0  0
    2.5722   -5.7735    4.8584 C   0  0  0  0  0  0  0  0  0  0  0  0
    2.6529   -2.0969    3.8975 C   0  0  0  0  0  0  0  0  0  0  0  0
    1.1956   -1.7869    4.8199 S   0  0  0  0  0  0  0  0  0  0  0  0
    0.4620   -1.1651    3.3798 C   0  0  0  0  0  0  0  0  0  0  0  0
   -0.7341   -0.5553    2.9783 C   0  0  0  0  0  0  0  0  0  0  0  0
   -1.8602   -0.1429    3.7245 C   0  0  0  0  0  0  0  0  0  0  0  0
   -2.8865    0.6119    3.0672 C   0  0  0  0  0  0  0  0  0  0  0  0
   -3.8480    0.9876    3.8955 N   0  0  0  0  0  0  0  0  0  0  0  0
   -3.4957    0.4332    5.3750 S   0  0  0  0  0  0  0  0  0  0  0  0
   -2.1005   -0.3052    5.0160 N   0  0  0  0  0  0  0  0  0  0  0  0
   -2.7957    0.8181    1.6726 C   0  0  0  0  0  0  0  0  0  0  0  0
   -3.6887    1.4142    0.7730 C   0  0  0  0  0  0  0  0  0  0  0  0
   -5.2071    2.2430    0.7925 S   0  0  0  0  0  0  0  0  0  0  0  0
   -5.1271    2.3550   -0.9565 C   0  0  0  0  0  0  0  0  0  0  0  0
   -5.9802    2.8977   -1.9050 C   0  0  0  0  0  0  0  0  0  0  0  0
   -7.2843    3.5178   -1.6308 C   0  0  0  0  0  0  0  0  0  0  0  0
   -7.3910    4.7584   -0.9994 C   0  0  0  0  0  0  0  0  0  0  0  0
   -6.1752    5.5683   -0.6509 C   0  0  0  0  0  0  0  0  0  0  0  0
   -5.6749    6.3272   -1.8824 C   0  0  0  0  0  0  0  0  0  0  0  0
   -8.6582    5.2826   -0.7832 C   0  0  0  0  0  0  0  0  0  0  0  0
   -9.7957    4.6023   -1.1750 C   0  0  0  0  0  0  0  0  0  0  0  0
   -9.6830    3.3746   -1.8037 C   0  0  0  0  0  0  0  0  0  0  0  0
   -8.4315    2.8386   -2.0338 C   0  0  0  0  0  0  0  0  0  0  0  0
   -5.4712    2.7437   -3.2108 C   0  0  0  0  0  0  0  0  0  0  0  0
   -3.9338    1.8828   -3.2290 S   0  0  0  0  0  0  0  0  0  0  0  0
   -3.9717    1.7663   -1.5090 C   0  0  0  0  0  0  0  0  0  0  0  0
   -3.1560    1.2338   -0.5098 C   0  0  0  0  0  0  0  0  0  0  0  0
   -1.9558    0.5713   -0.4352 N   0  0  0  0  0  0  0  0  0  0  0  0
   -1.7052    0.3144    0.9030 C   0  0  0  0  0  0  0  0  0  0  0  0
   -0.6086   -0.2743    1.5850 C   0  0  0  0  0  0  0  0  0  0  0  0
    0.6522   -0.6651    1.1782 N   0  0  0  0  0  0  0  0  0  0  0  0
    1.2947   -1.2098    2.2560 C   0  0  0  0  0  0  0  0  0  0  0  0
    2.5576   -1.7416    2.5442 C   0  0  0  0  0  0  0  0  0  0  0  0
    4.0045   -2.1074    1.6767 S   0  0  0  0  0  0  0  0  0  0  0  0
    1.4132   -0.3169   -0.0001 C   0  0  0  0  0  0  0  0  0  0  0  0
    1.6391   -1.5181   -0.9173 C   0  0  0  0  0  0  0  0  0  0  0  0
   -1.5140   -0.1505   -1.6108 C   0  0  0  0  0  0  0  0  0  0  0  0
   -2.1224   -1.5509   -1.6475 C   0  0  0  0  0  0  0  0  0  0  0  0
   -6.1100    3.3107   -4.3119 C   0  0  0  0  0  0  0  0  0  0  0  0
   -5.7637    3.3176   -5.6447 C   0  0  0  0  0  0  0  0  0  0  0  0
   -4.6399    2.6014   -6.2422 C   0  0  0  0  0  0  0  0  0  0  0  0
   -3.7959    1.9236   -5.6810 O   0  0  0  0  0  0  0  0  0  0  0  0
   -4.7285    2.8508   -7.6972 C   0  0  0  0  0  0  0  0  0  0  0  0
   -3.9059    2.3810   -8.7009 C   0  0  0  0  0  0  0  0  0  0  0  0
   -4.2025    2.7549  -10.0019 C   0  0  0  0  0  0  0  0  0  0  0  0
   -3.4307    2.3225  -11.0078 F   0  0  0  0  0  0  0  0  0  0  0  0
   -5.2964    3.5757  -10.2731 C   0  0  0  0  0  0  0  0  0  0  0  0
   -5.5620    3.9181  -11.5393 F   0  0  0  0  0  0  0  0  0  0  0  0
   -6.1214    4.0495   -9.2629 C   0  0  0  0  0  0  0  0  0  0  0  0
   -5.8310    3.6818   -7.9591 C   0  0  0  0  0  0  0  0  0  0  0  0
   -6.4833    4.0109   -6.6894 C   0  0  0  0  0  0  0  0  0  0  0  0
   -7.5497    4.8619   -6.5456 C   0  0  0  0  0  0  0  0  0  0  0  0
   -8.1914    5.5071   -7.6236 C   0  0  0  0  0  0  0  0  0  0  0  0
   -8.7571    6.0582   -8.4568 N   0  0  0  0  0  0  0  0  0  0  0  0
   -8.1454    5.2446   -5.3248 C   0  0  0  0  0  0  0  0  0  0  0  0
   -8.6812    5.6267   -4.3827 N   0  0  0  0  0  0  0  0  0  0  0  0
    6.3051   -3.4572    4.3022 H   0  0  0  0  0  0  0  0  0  0  0  0
    6.8519   -3.7987   -1.4641 H   0  0  0  0  0  0  0  0  0  0  0  0
    8.5944   -4.1252   -1.7078 H   0  0  0  0  0  0  0  0  0  0  0  0
    7.8769   -2.0848   -2.9521 H   0  0  0  0  0  0  0  0  0  0  0  0
    9.0477   -1.6797   -1.6934 H   0  0  0  0  0  0  0  0  0  0  0  0
    7.3213   -1.3552   -1.4411 H   0  0  0  0  0  0  0  0  0  0  0  0
    9.5269   -2.2551    2.2833 H   0  0  0  0  0  0  0  0  0  0  0  0
    8.4905   -3.7810    3.9424 H   0  0  0  0  0  0  0  0  0  0  0  0
    7.5497   -5.9526    3.2484 H   0  0  0  0  0  0  0  0  0  0  0  0
    8.2339   -5.7716    1.6306 H   0  0  0  0  0  0  0  0  0  0  0  0
    9.3038   -5.9402    3.0253 H   0  0  0  0  0  0  0  0  0  0  0  0
    4.2738   -1.0601    6.3063 H   0  0  0  0  0  0  0  0  0  0  0  0
    4.8369   -1.6741    8.6274 H   0  0  0  0  0  0  0  0  0  0  0  0
    5.1047   -4.0576    9.2307 H   0  0  0  0  0  0  0  0  0  0  0  0
    4.7764   -5.7967    7.5266 H   0  0  0  0  0  0  0  0  0  0  0  0
    4.5819   -6.4341    5.2576 H   0  0  0  0  0  0  0  0  0  0  0  0
    4.4520   -5.2422    3.9586 H   0  0  0  0  0  0  0  0  0  0  0  0
    2.1806   -6.0625    5.8308 H   0  0  0  0  0  0  0  0  0  0  0  0
    2.3649   -6.5702    4.1479 H   0  0  0  0  0  0  0  0  0  0  0  0
    2.0517   -4.8753    4.5350 H   0  0  0  0  0  0  0  0  0  0  0  0
   -5.3784    4.9269   -0.2723 H   0  0  0  0  0  0  0  0  0  0  0  0
   -6.4318    6.2849    0.1310 H   0  0  0  0  0  0  0  0  0  0  0  0
   -4.8453    6.9778   -1.6158 H   0  0  0  0  0  0  0  0  0  0  0  0
   -6.4752    6.9328   -2.3013 H   0  0  0  0  0  0  0  0  0  0  0  0
   -5.3370    5.6340   -2.6499 H   0  0  0  0  0  0  0  0  0  0  0  0
   -8.7495    6.2473   -0.3061 H   0  0  0  0  0  0  0  0  0  0  0  0
  -10.7695    5.0332   -0.9991 H   0  0  0  0  0  0  0  0  0  0  0  0
  -10.5648    2.8386   -2.1202 H   0  0  0  0  0  0  0  0  0  0  0  0
   -8.3301    1.8802   -2.5239 H   0  0  0  0  0  0  0  0  0  0  0  0
    0.9161    0.5103   -0.5088 H   0  0  0  0  0  0  0  0  0  0  0  0
    2.3900    0.0462    0.3378 H   0  0  0  0  0  0  0  0  0  0  0  0
    2.1041   -1.1917   -1.8434 H   0  0  0  0  0  0  0  0  0  0  0  0
    0.7066   -2.0260   -1.1478 H   0  0  0  0  0  0  0  0  0  0  0  0
    2.3051   -2.2290   -0.4361 H   0  0  0  0  0  0  0  0  0  0  0  0
   -0.4323   -0.2125   -1.6542 H   0  0  0  0  0  0  0  0  0  0  0  0
   -1.8546    0.4217   -2.4773 H   0  0  0  0  0  0  0  0  0  0  0  0
   -3.2082   -1.4909   -1.6554 H   0  0  0  0  0  0  0  0  0  0  0  0
   -1.7985   -2.0708   -2.5447 H   0  0  0  0  0  0  0  0  0  0  0  0
   -1.8163   -2.1249   -0.7748 H   0  0  0  0  0  0  0  0  0  0  0  0
   -7.0193    3.8361   -4.0453 H   0  0  0  0  0  0  0  0  0  0  0  0
   -3.0612    1.7461   -8.4868 H   0  0  0  0  0  0  0  0  0  0  0  0
   -6.9541    4.6806   -9.5263 H   0  0  0  0  0  0  0  0  0  0  0  0
  1  2  2  0  0  0  0
  2  3  1  0  0  0  0
  3  4  2  0  0  0  0
  3  5  1  0  0  0  0
  5  6  1  0  0  0  0
  6  7  1  0  0  0  0
  5  8  1  0  0  0  0
  8  9  2  0  0  0  0
  8 10  1  0  0  0  0
 10 11  1  0  0  0  0
 11 12  3  0  0  0  0
 10 13  1  0  0  0  0
 13 14  1  0  0  0  0
  1 15  1  0  0  0  0
 15 16  2  0  0  0  0
 16 17  1  0  0  0  0
 17 18  2  0  0  0  0
 18 19  1  0  0  0  0
 19 20  2  0  0  0  0
 20 21  1  0  0  0  0
 21 22  2  0  0  0  0
 22 23  1  0  0  0  0
 23 24  1  0  0  0  0
 16 25  1  0  0  0  0
 25 26  1  0  0  0  0
 26 27  1  0  0  0  0
 27 28  1  0  0  0  0
 28 29  1  0  0  0  0
 29 30  1  0  0  0  0
 30 31  2  0  0  0  0
 31 32  1  0  0  0  0
 32 33  1  0  0  0  0
 30 34  1  0  0  0  0
 34 35  1  0  0  0  0
 35 36  1  0  0  0  0
 36 37  1  0  0  0  0
 37 38  1  0  0  0  0
 38 39  1  0  0  0  0
 39 40  2  0  0  0  0
 40 41  1  0  0  0  0
 41 42  1  0  0  0  0
 40 43  1  0  0  0  0
 43 44  2  0  0  0  0
 44 45  1  0  0  0  0
 45 46  2  0  0  0  0
 38 47  2  0  0  0  0
 47 48  1  0  0  0  0
 48 49  1  0  0  0  0
 49 50  1  0  0  0  0
 50 51  1  0  0  0  0
 51 52  1  0  0  0  0
 52 53  1  0  0  0  0
 53 54  1  0  0  0  0
 54 55  1  0  0  0  0
 55 56  1  0  0  0  0
 56 57  1  0  0  0  0
 54 58  1  0  0  0  0
 58 59  1  0  0  0  0
 51 60  1  0  0  0  0
 60 61  1  0  0  0  0
 47 62  1  0  0  0  0
 62 63  2  0  0  0  0
 63 64  1  0  0  0  0
 64 65  2  0  0  0  0
 64 66  1  0  0  0  0
 66 67  2  0  0  0  0
 67 68  1  0  0  0  0
 68 69  1  0  0  0  0
 68 70  2  0  0  0  0
 70 71  1  0  0  0  0
 70 72  1  0  0  0  0
 72 73  2  0  0  0  0
 73 74  1  0  0  0  0
 74 75  2  0  0  0  0
 75 76  1  0  0  0  0
 76 77  3  0  0  0  0
 75 78  1  0  0  0  0
 78 79  3  0  0  0  0
 13  2  1  0  0  0  0
 57 15  1  0  0  0  0
 74 63  1  0  0  0  0
 22 17  1  0  0  0  0
 56 25  2  0  0  0  0
 73 66  1  0  0  0  0
 55 27  2  0  0  0  0
 53 28  2  0  0  0  0
 33 29  2  0  0  0  0
 52 34  2  0  0  0  0
 50 35  2  0  0  0  0
 49 37  2  0  0  0  0
 46 39  1  0  0  0  0
  1 80  1  0  0  0  0
  6 81  1  0  0  0  0
  6 82  1  0  0  0  0
  7 83  1  0  0  0  0
  7 84  1  0  0  0  0
  7 85  1  0  0  0  0
 10 86  1  0  0  0  0
 13 87  1  0  0  0  0
 14 88  1  0  0  0  0
 14 89  1  0  0  0  0
 14 90  1  0  0  0  0
 18 91  1  0  0  0  0
 19 92  1  0  0  0  0
 20 93  1  0  0  0  0
 21 94  1  0  0  0  0
 23 95  1  0  0  0  0
 23 96  1  0  0  0  0
 24 97  1  0  0  0  0
 24 98  1  0  0  0  0
 24 99  1  0  0  0  0
 41100  1  0  0  0  0
 41101  1  0  0  0  0
 42102  1  0  0  0  0
 42103  1  0  0  0  0
 42104  1  0  0  0  0
 43105  1  0  0  0  0
 44106  1  0  0  0  0
 45107  1  0  0  0  0
 46108  1  0  0  0  0
 58109  1  0  0  0  0
 58110  1  0  0  0  0
 59111  1  0  0  0  0
 59112  1  0  0  0  0
 59113  1  0  0  0  0
 60114  1  0  0  0  0
 60115  1  0  0  0  0
 61116  1  0  0  0  0
 61117  1  0  0  0  0
 61118  1  0  0  0  0
 62119  1  0  0  0  0
 67120  1  0  0  0  0
 72121  1  0  0  0  0
M  END
