
  xtb     02012215573D
 energy: -225.342610266096 gnorm: 0.000321481479 xtb: 6.4.1 (unknown)
142153  0     0  0            999 V2000
    5.7536   -2.8424    4.2163 C   0  0  0  0  0  0  0  0  0  0  0  0
    6.3033   -2.0832    5.2051 C   0  0  0  0  0  0  0  0  0  0  0  0
    5.8299   -0.7612    5.5555 C   0  0  0  0  0  0  0  0  0  0  0  0
    4.8057   -0.2637    5.1112 O   0  0  0  0  0  0  0  0  0  0  0  0
    6.5828   -0.0301    6.4811 N   0  0  0  0  0  0  0  0  0  0  0  0
    5.9704    1.1827    7.0191 C   0  0  0  0  0  0  0  0  0  0  0  0
    5.1338    0.8652    8.2514 C   0  0  0  0  0  0  0  0  0  0  0  0
    7.8577   -0.3247    6.8978 C   0  0  0  0  0  0  0  0  0  0  0  0
    8.4430    0.3517    7.7055 O   0  0  0  0  0  0  0  0  0  0  0  0
    8.4789   -1.5374    6.2078 C   0  0  0  0  0  0  0  0  0  0  0  0
    9.6232   -2.0235    6.9430 C   0  0  0  0  0  0  0  0  0  0  0  0
   10.5168   -2.4566    7.5068 N   0  0  0  0  0  0  0  0  0  0  0  0
    7.4289   -2.6455    6.0314 C   0  0  0  0  0  0  0  0  0  0  0  0
    6.9191   -3.1423    7.3883 C   0  0  0  0  0  0  0  0  0  0  0  0
    4.7204   -2.6013    3.2855 C   0  0  0  0  0  0  0  0  0  0  0  0
    3.6963   -1.1885    3.1835 S   0  0  0  0  0  0  0  0  0  0  0  0
    2.9001   -1.8435    1.8050 C   0  0  0  0  0  0  0  0  0  0  0  0
    1.9327   -1.2441    0.9664 C   0  0  0  0  0  0  0  0  0  0  0  0
    1.7453   -1.7875   -0.3006 C   0  0  0  0  0  0  0  0  0  0  0  0
    2.3922   -2.8831   -0.7387 O   0  0  0  0  0  0  0  0  0  0  0  0
    2.7323   -3.8297    0.2991 C   0  0  0  0  0  0  0  0  0  0  0  0
    3.3890   -3.0979    1.4452 C   0  0  0  0  0  0  0  0  0  0  0  0
    4.4097   -3.5165    2.2801 C   0  0  0  0  0  0  0  0  0  0  0  0
    3.6897   -4.8376   -0.3025 C   0  0  0  0  0  0  0  0  0  0  0  0
    4.5557   -4.4580   -1.3176 C   0  0  0  0  0  0  0  0  0  0  0  0
    5.4574   -5.3658   -1.8405 C   0  0  0  0  0  0  0  0  0  0  0  0
    5.5220   -6.6664   -1.3583 C   0  0  0  0  0  0  0  0  0  0  0  0
    6.5348   -7.6366   -1.8946 C   0  0  0  0  0  0  0  0  0  0  0  0
    7.8411   -7.5382   -1.1038 C   0  0  0  0  0  0  0  0  0  0  0  0
    4.6585   -7.0353   -0.3348 C   0  0  0  0  0  0  0  0  0  0  0  0
    3.7492   -6.1351    0.1882 C   0  0  0  0  0  0  0  0  0  0  0  0
    1.4384   -4.4956    0.7591 C   0  0  0  0  0  0  0  0  0  0  0  0
    0.4718   -4.7951   -0.1921 C   0  0  0  0  0  0  0  0  0  0  0  0
   -0.7250   -5.3737    0.1838 C   0  0  0  0  0  0  0  0  0  0  0  0
   -0.9827   -5.6757    1.5148 C   0  0  0  0  0  0  0  0  0  0  0  0
   -2.2633   -6.3484    1.9173 C   0  0  0  0  0  0  0  0  0  0  0  0
   -2.0899   -7.8686    1.9184 C   0  0  0  0  0  0  0  0  0  0  0  0
   -0.0064   -5.3863    2.4588 C   0  0  0  0  0  0  0  0  0  0  0  0
    1.1901   -4.7985    2.0902 C   0  0  0  0  0  0  0  0  0  0  0  0
    0.8510   -1.0208   -1.0586 C   0  0  0  0  0  0  0  0  0  0  0  0
    0.2097   -1.1322   -2.6610 S   0  0  0  0  0  0  0  0  0  0  0  0
   -0.7598    0.2840   -2.3700 C   0  0  0  0  0  0  0  0  0  0  0  0
   -1.6244    0.9835   -3.2502 C   0  0  0  0  0  0  0  0  0  0  0  0
   -1.6735    0.9910   -4.9788 S   0  0  0  0  0  0  0  0  0  0  0  0
   -2.8225    2.3066   -4.9660 C   0  0  0  0  0  0  0  0  0  0  0  0
   -3.1702    2.6517   -3.6823 C   0  0  0  0  0  0  0  0  0  0  0  0
   -2.4908    1.9137   -2.7095 C   0  0  0  0  0  0  0  0  0  0  0  0
   -2.5809    2.0533   -1.2075 C   0  0  0  0  0  0  0  0  0  0  0  0
   -3.4638    0.9701   -0.6049 C   0  0  0  0  0  0  0  0  0  0  0  0
   -4.4167    0.2925   -1.3515 C   0  0  0  0  0  0  0  0  0  0  0  0
   -5.1501   -0.7315   -0.7797 C   0  0  0  0  0  0  0  0  0  0  0  0
   -4.9467   -1.1038    0.5422 C   0  0  0  0  0  0  0  0  0  0  0  0
   -5.6814   -2.2699    1.1374 C   0  0  0  0  0  0  0  0  0  0  0  0
   -4.8600   -3.5505    0.9715 C   0  0  0  0  0  0  0  0  0  0  0  0
   -4.0038   -0.4082    1.2888 C   0  0  0  0  0  0  0  0  0  0  0  0
   -3.2739    0.6200    0.7260 C   0  0  0  0  0  0  0  0  0  0  0  0
   -3.0576    3.4588   -0.9038 C   0  0  0  0  0  0  0  0  0  0  0  0
   -4.3869    3.7199   -0.6067 C   0  0  0  0  0  0  0  0  0  0  0  0
   -4.8282    5.0265   -0.4891 C   0  0  0  0  0  0  0  0  0  0  0  0
   -3.9614    6.0956   -0.6725 C   0  0  0  0  0  0  0  0  0  0  0  0
   -4.4371    7.5133   -0.5505 C   0  0  0  0  0  0  0  0  0  0  0  0
   -4.0729    8.0890    0.8191 C   0  0  0  0  0  0  0  0  0  0  0  0
   -2.6257    5.8231   -0.9460 C   0  0  0  0  0  0  0  0  0  0  0  0
   -2.1773    4.5220   -1.0638 C   0  0  0  0  0  0  0  0  0  0  0  0
   -1.2554    1.9006   -0.6521 O   0  0  0  0  0  0  0  0  0  0  0  0
   -0.6060    0.8018   -1.0891 C   0  0  0  0  0  0  0  0  0  0  0  0
    0.3329    0.0688   -0.3510 C   0  0  0  0  0  0  0  0  0  0  0  0
    0.9734    0.1818    1.2508 S   0  0  0  0  0  0  0  0  0  0  0  0
   -3.3540    2.8693   -6.1747 C   0  0  0  0  0  0  0  0  0  0  0  0
   -3.5419    4.1734   -6.4465 C   0  0  0  0  0  0  0  0  0  0  0  0
   -4.3773    4.4932   -7.6239 C   0  0  0  0  0  0  0  0  0  0  0  0
   -4.5114    3.7650   -8.5798 O   0  0  0  0  0  0  0  0  0  0  0  0
   -5.0681    5.7069   -7.5484 N   0  0  0  0  0  0  0  0  0  0  0  0
   -5.8522    6.0998   -8.7192 C   0  0  0  0  0  0  0  0  0  0  0  0
   -5.0612    7.0644   -9.5924 C   0  0  0  0  0  0  0  0  0  0  0  0
   -5.1827    6.5102   -6.4342 C   0  0  0  0  0  0  0  0  0  0  0  0
   -5.9442    7.4434   -6.3989 O   0  0  0  0  0  0  0  0  0  0  0  0
   -4.2834    6.1408   -5.2499 C   0  0  0  0  0  0  0  0  0  0  0  0
   -3.9396    7.3292   -4.5042 C   0  0  0  0  0  0  0  0  0  0  0  0
   -3.6313    8.2543   -3.9100 N   0  0  0  0  0  0  0  0  0  0  0  0
   -3.0285    5.4094   -5.7605 C   0  0  0  0  0  0  0  0  0  0  0  0
   -1.9457    5.2524   -4.6997 C   0  0  0  0  0  0  0  0  0  0  0  0
    6.2053   -3.8210    4.0794 H   0  0  0  0  0  0  0  0  0  0  0  0
    6.7769    1.8720    7.2738 H   0  0  0  0  0  0  0  0  0  0  0  0
    5.3451    1.6098    6.2333 H   0  0  0  0  0  0  0  0  0  0  0  0
    5.7589    0.4377    9.0324 H   0  0  0  0  0  0  0  0  0  0  0  0
    4.3428    0.1620    7.9993 H   0  0  0  0  0  0  0  0  0  0  0  0
    4.6806    1.7770    8.6296 H   0  0  0  0  0  0  0  0  0  0  0  0
    8.8314   -1.2033    5.2213 H   0  0  0  0  0  0  0  0  0  0  0  0
    7.8889   -3.4884    5.5042 H   0  0  0  0  0  0  0  0  0  0  0  0
    7.7439   -3.5356    7.9789 H   0  0  0  0  0  0  0  0  0  0  0  0
    6.4474   -2.3373    7.9480 H   0  0  0  0  0  0  0  0  0  0  0  0
    6.1865   -3.9326    7.2405 H   0  0  0  0  0  0  0  0  0  0  0  0
    4.9247   -4.4551    2.1706 H   0  0  0  0  0  0  0  0  0  0  0  0
    4.5123   -3.4510   -1.7025 H   0  0  0  0  0  0  0  0  0  0  0  0
    6.1212   -5.0590   -2.6362 H   0  0  0  0  0  0  0  0  0  0  0  0
    6.1466   -8.6544   -1.8220 H   0  0  0  0  0  0  0  0  0  0  0  0
    6.7341   -7.4205   -2.9459 H   0  0  0  0  0  0  0  0  0  0  0  0
    8.5717   -8.2470   -1.4863 H   0  0  0  0  0  0  0  0  0  0  0  0
    8.2558   -6.5356   -1.1813 H   0  0  0  0  0  0  0  0  0  0  0  0
    7.6643   -7.7551   -0.0526 H   0  0  0  0  0  0  0  0  0  0  0  0
    4.6933   -8.0429    0.0548 H   0  0  0  0  0  0  0  0  0  0  0  0
    3.0803   -6.4430    0.9784 H   0  0  0  0  0  0  0  0  0  0  0  0
    0.6628   -4.5642   -1.2299 H   0  0  0  0  0  0  0  0  0  0  0  0
   -1.4701   -5.5927   -0.5674 H   0  0  0  0  0  0  0  0  0  0  0  0
   -2.5569   -6.0196    2.9163 H   0  0  0  0  0  0  0  0  0  0  0  0
   -3.0580   -6.0778    1.2199 H   0  0  0  0  0  0  0  0  0  0  0  0
   -3.0174   -8.3569    2.2080 H   0  0  0  0  0  0  0  0  0  0  0  0
   -1.3102   -8.1609    2.6181 H   0  0  0  0  0  0  0  0  0  0  0  0
   -1.8080   -8.2172    0.9274 H   0  0  0  0  0  0  0  0  0  0  0  0
   -0.1861   -5.6162    3.4994 H   0  0  0  0  0  0  0  0  0  0  0  0
    1.9308   -4.5765    2.8446 H   0  0  0  0  0  0  0  0  0  0  0  0
   -3.9293    3.3773   -3.4514 H   0  0  0  0  0  0  0  0  0  0  0  0
   -4.5866    0.5608   -2.3844 H   0  0  0  0  0  0  0  0  0  0  0  0
   -5.8861   -1.2536   -1.3743 H   0  0  0  0  0  0  0  0  0  0  0  0
   -5.8593   -2.0926    2.1999 H   0  0  0  0  0  0  0  0  0  0  0  0
   -6.6474   -2.3939    0.6442 H   0  0  0  0  0  0  0  0  0  0  0  0
   -3.8921   -3.4457    1.4573 H   0  0  0  0  0  0  0  0  0  0  0  0
   -5.3826   -4.3963    1.4126 H   0  0  0  0  0  0  0  0  0  0  0  0
   -4.6912   -3.7560   -0.0835 H   0  0  0  0  0  0  0  0  0  0  0  0
   -3.8371   -0.6764    2.3221 H   0  0  0  0  0  0  0  0  0  0  0  0
   -2.5396    1.1525    1.3124 H   0  0  0  0  0  0  0  0  0  0  0  0
   -5.0809    2.9021   -0.4780 H   0  0  0  0  0  0  0  0  0  0  0  0
   -5.8682    5.2160   -0.2642 H   0  0  0  0  0  0  0  0  0  0  0  0
   -5.5202    7.5523   -0.6810 H   0  0  0  0  0  0  0  0  0  0  0  0
   -3.9785    8.1198   -1.3340 H   0  0  0  0  0  0  0  0  0  0  0  0
   -4.4188    9.1163    0.9008 H   0  0  0  0  0  0  0  0  0  0  0  0
   -4.5333    7.5023    1.6115 H   0  0  0  0  0  0  0  0  0  0  0  0
   -2.9954    8.0727    0.9642 H   0  0  0  0  0  0  0  0  0  0  0  0
   -1.9365    6.6421   -1.0900 H   0  0  0  0  0  0  0  0  0  0  0  0
   -1.1406    4.3197   -1.2878 H   0  0  0  0  0  0  0  0  0  0  0  0
   -3.6849    2.1677   -6.9340 H   0  0  0  0  0  0  0  0  0  0  0  0
   -6.7695    6.5723   -8.3642 H   0  0  0  0  0  0  0  0  0  0  0  0
   -6.0892    5.1889   -9.2708 H   0  0  0  0  0  0  0  0  0  0  0  0
   -5.6541    7.3414  -10.4592 H   0  0  0  0  0  0  0  0  0  0  0  0
   -4.8182    7.9661   -9.0345 H   0  0  0  0  0  0  0  0  0  0  0  0
   -4.1405    6.5970   -9.9348 H   0  0  0  0  0  0  0  0  0  0  0  0
   -4.8546    5.4855   -4.5779 H   0  0  0  0  0  0  0  0  0  0  0  0
   -2.5965    6.0324   -6.5589 H   0  0  0  0  0  0  0  0  0  0  0  0
   -1.4789    6.2193   -4.5227 H   0  0  0  0  0  0  0  0  0  0  0  0
   -2.3384    4.8957   -3.7530 H   0  0  0  0  0  0  0  0  0  0  0  0
   -1.1828    4.5606   -5.0472 H   0  0  0  0  0  0  0  0  0  0  0  0
  1  2  2  0  0  0  0
  2  3  1  0  0  0  0
  3  4  2  0  0  0  0
  3  5  1  0  0  0  0
  5  6  1  0  0  0  0
  6  7  1  0  0  0  0
  5  8  1  0  0  0  0
  8  9  2  0  0  0  0
  8 10  1  0  0  0  0
 10 11  1  0  0  0  0
 11 12  3  0  0  0  0
 10 13  1  0  0  0  0
 13 14  1  0  0  0  0
  1 15  1  0  0  0  0
 15 16  1  0  0  0  0
 16 17  1  0  0  0  0
 17 18  1  0  0  0  0
 18 19  2  0  0  0  0
 19 20  1  0  0  0  0
 20 21  1  0  0  0  0
 21 22  1  0  0  0  0
 22 23  1  0  0  0  0
 21 24  1  0  0  0  0
 24 25  2  0  0  0  0
 25 26  1  0  0  0  0
 26 27  2  0  0  0  0
 27 28  1  0  0  0  0
 28 29  1  0  0  0  0
 27 30  1  0  0  0  0
 30 31  2  0  0  0  0
 21 32  1  0  0  0  0
 32 33  2  0  0  0  0
 33 34  1  0  0  0  0
 34 35  2  0  0  0  0
 35 36  1  0  0  0  0
 36 37  1  0  0  0  0
 35 38  1  0  0  0  0
 38 39  2  0  0  0  0
 19 40  1  0  0  0  0
 40 41  1  0  0  0  0
 41 42  1  0  0  0  0
 42 43  1  0  0  0  0
 43 44  1  0  0  0  0
 44 45  1  0  0  0  0
 45 46  2  0  0  0  0
 46 47  1  0  0  0  0
 47 48  1  0  0  0  0
 48 49  1  0  0  0  0
 49 50  2  0  0  0  0
 50 51  1  0  0  0  0
 51 52  2  0  0  0  0
 52 53  1  0  0  0  0
 53 54  1  0  0  0  0
 52 55  1  0  0  0  0
 55 56  2  0  0  0  0
 48 57  1  0  0  0  0
 57 58  2  0  0  0  0
 58 59  1  0  0  0  0
 59 60  2  0  0  0  0
 60 61  1  0  0  0  0
 61 62  1  0  0  0  0
 60 63  1  0  0  0  0
 63 64  2  0  0  0  0
 48 65  1  0  0  0  0
 65 66  1  0  0  0  0
 66 67  1  0  0  0  0
 67 68  1  0  0  0  0
 45 69  1  0  0  0  0
 69 70  2  0  0  0  0
 70 71  1  0  0  0  0
 71 72  2  0  0  0  0
 71 73  1  0  0  0  0
 73 74  1  0  0  0  0
 74 75  1  0  0  0  0
 73 76  1  0  0  0  0
 76 77  2  0  0  0  0
 76 78  1  0  0  0  0
 78 79  1  0  0  0  0
 79 80  3  0  0  0  0
 78 81  1  0  0  0  0
 81 82  1  0  0  0  0
 13  2  1  0  0  0  0
 23 15  2  0  0  0  0
 31 24  1  0  0  0  0
 39 32  1  0  0  0  0
 67 40  2  0  0  0  0
 81 70  1  0  0  0  0
 22 17  2  0  0  0  0
 66 42  2  0  0  0  0
 68 18  1  0  0  0  0
 47 43  2  0  0  0  0
 56 49  1  0  0  0  0
 64 57  1  0  0  0  0
  1 83  1  0  0  0  0
  6 84  1  0  0  0  0
  6 85  1  0  0  0  0
  7 86  1  0  0  0  0
  7 87  1  0  0  0  0
  7 88  1  0  0  0  0
 10 89  1  0  0  0  0
 13 90  1  0  0  0  0
 14 91  1  0  0  0  0
 14 92  1  0  0  0  0
 14 93  1  0  0  0  0
 23 94  1  0  0  0  0
 25 95  1  0  0  0  0
 26 96  1  0  0  0  0
 28 97  1  0  0  0  0
 28 98  1  0  0  0  0
 29 99  1  0  0  0  0
 29100  1  0  0  0  0
 29101  1  0  0  0  0
 30102  1  0  0  0  0
 31103  1  0  0  0  0
 33104  1  0  0  0  0
 34105  1  0  0  0  0
 36106  1  0  0  0  0
 36107  1  0  0  0  0
 37108  1  0  0  0  0
 37109  1  0  0  0  0
 37110  1  0  0  0  0
 38111  1  0  0  0  0
 39112  1  0  0  0  0
 46113  1  0  0  0  0
 50114  1  0  0  0  0
 51115  1  0  0  0  0
 53116  1  0  0  0  0
 53117  1  0  0  0  0
 54118  1  0  0  0  0
 54119  1  0  0  0  0
 54120  1  0  0  0  0
 55121  1  0  0  0  0
 56122  1  0  0  0  0
 58123  1  0  0  0  0
 59124  1  0  0  0  0
 61125  1  0  0  0  0
 61126  1  0  0  0  0
 62127  1  0  0  0  0
 62128  1  0  0  0  0
 62129  1  0  0  0  0
 63130  1  0  0  0  0
 64131  1  0  0  0  0
 69132  1  0  0  0  0
 74133  1  0  0  0  0
 74134  1  0  0  0  0
 75135  1  0  0  0  0
 75136  1  0  0  0  0
 75137  1  0  0  0  0
 78138  1  0  0  0  0
 81139  1  0  0  0  0
 82140  1  0  0  0  0
 82141  1  0  0  0  0
 82142  1  0  0  0  0
M  END
