
  xtb     02012219553D
 energy: -183.585156911556 gnorm: 0.000299862291 xtb: 6.4.1 (unknown)
101111  0     0  0            999 V2000
    3.6767   -0.3807   -7.1170 C   0  0  0  0  0  0  0  0  0  0  0  0
    3.5304    0.8514   -7.6805 C   0  0  0  0  0  0  0  0  0  0  0  0
    2.7637    1.9293   -7.0939 C   0  0  0  0  0  0  0  0  0  0  0  0
    2.0840    1.8138   -6.0837 O   0  0  0  0  0  0  0  0  0  0  0  0
    2.7773    3.1642   -7.7496 N   0  0  0  0  0  0  0  0  0  0  0  0
    1.7846    4.1492   -7.3264 C   0  0  0  0  0  0  0  0  0  0  0  0
    0.4851    3.9719   -8.1009 C   0  0  0  0  0  0  0  0  0  0  0  0
    3.6620    3.5495   -8.7280 C   0  0  0  0  0  0  0  0  0  0  0  0
    3.6071    4.6317   -9.2542 O   0  0  0  0  0  0  0  0  0  0  0  0
    4.7400    2.5137   -9.0356 C   0  0  0  0  0  0  0  0  0  0  0  0
    5.3906    2.7977  -10.2938 C   0  0  0  0  0  0  0  0  0  0  0  0
    5.9121    2.9700  -11.2948 N   0  0  0  0  0  0  0  0  0  0  0  0
    4.1307    1.1033   -9.0393 C   0  0  0  0  0  0  0  0  0  0  0  0
    3.0727    0.9625  -10.1390 C   0  0  0  0  0  0  0  0  0  0  0  0
    3.2426   -0.9506   -5.9011 C   0  0  0  0  0  0  0  0  0  0  0  0
    3.5812   -2.2493   -5.5077 C   0  0  0  0  0  0  0  0  0  0  0  0
    4.4644   -3.1993   -6.2523 C   0  0  0  0  0  0  0  0  0  0  0  0
    5.9393   -2.9113   -5.9604 C   0  0  0  0  0  0  0  0  0  0  0  0
    3.0396   -2.5645   -4.2636 C   0  0  0  0  0  0  0  0  0  0  0  0
    3.1055   -4.0179   -3.2849 S   0  0  0  0  0  0  0  0  0  0  0  0
    2.1168   -3.2271   -2.1058 C   0  0  0  0  0  0  0  0  0  0  0  0
    1.5035   -3.5061   -0.8782 C   0  0  0  0  0  0  0  0  0  0  0  0
    1.4227   -4.7088   -0.1418 C   0  0  0  0  0  0  0  0  0  0  0  0
    0.6067   -4.7443    1.0348 C   0  0  0  0  0  0  0  0  0  0  0  0
    0.5749   -5.9433    1.5941 N   0  0  0  0  0  0  0  0  0  0  0  0
    1.4988   -6.9423    0.7160 S   0  0  0  0  0  0  0  0  0  0  0  0
    1.9726   -5.8821   -0.4120 N   0  0  0  0  0  0  0  0  0  0  0  0
    0.0032   -3.5474    1.4807 C   0  0  0  0  0  0  0  0  0  0  0  0
   -0.7242   -3.2724    2.6437 C   0  0  0  0  0  0  0  0  0  0  0  0
   -1.3525   -4.1091    4.0195 S   0  0  0  0  0  0  0  0  0  0  0  0
   -1.9270   -2.5743    4.6468 C   0  0  0  0  0  0  0  0  0  0  0  0
   -2.5900   -2.2368    5.8152 C   0  0  0  0  0  0  0  0  0  0  0  0
   -3.0423   -3.2525    6.8120 C   0  0  0  0  0  0  0  0  0  0  0  0
   -4.5065   -3.6320    6.5718 C   0  0  0  0  0  0  0  0  0  0  0  0
   -2.8181   -0.8479    5.8946 C   0  0  0  0  0  0  0  0  0  0  0  0
   -2.1939    0.0076    4.4799 S   0  0  0  0  0  0  0  0  0  0  0  0
   -1.6386   -1.4790    3.8093 C   0  0  0  0  0  0  0  0  0  0  0  0
   -0.9608   -1.8914    2.6608 C   0  0  0  0  0  0  0  0  0  0  0  0
   -0.4379   -1.3145    1.5337 N   0  0  0  0  0  0  0  0  0  0  0  0
    0.1560   -2.3116    0.7815 C   0  0  0  0  0  0  0  0  0  0  0  0
    0.8230   -2.3191   -0.4732 C   0  0  0  0  0  0  0  0  0  0  0  0
    0.9976   -1.3652   -1.4618 N   0  0  0  0  0  0  0  0  0  0  0  0
    1.7693   -1.9163   -2.4471 C   0  0  0  0  0  0  0  0  0  0  0  0
    2.2865   -1.5313   -3.6913 C   0  0  0  0  0  0  0  0  0  0  0  0
    2.2318   -0.1410   -4.7102 S   0  0  0  0  0  0  0  0  0  0  0  0
    0.2653   -0.1482   -1.7333 C   0  0  0  0  0  0  0  0  0  0  0  0
   -1.2274   -0.4202   -1.9015 C   0  0  0  0  0  0  0  0  0  0  0  0
   -0.2780    0.1221    1.4832 C   0  0  0  0  0  0  0  0  0  0  0  0
    1.1855    0.5267    1.6387 C   0  0  0  0  0  0  0  0  0  0  0  0
   -3.4485   -0.2451    6.9810 C   0  0  0  0  0  0  0  0  0  0  0  0
   -3.7350    1.0773    7.2449 C   0  0  0  0  0  0  0  0  0  0  0  0
   -3.4243    2.2160    6.3843 C   0  0  0  0  0  0  0  0  0  0  0  0
   -2.8816    2.2095    5.2928 O   0  0  0  0  0  0  0  0  0  0  0  0
   -3.9004    3.4149    7.1071 C   0  0  0  0  0  0  0  0  0  0  0  0
   -3.8314    4.7366    6.7159 C   0  0  0  0  0  0  0  0  0  0  0  0
   -4.3487    5.6893    7.5793 C   0  0  0  0  0  0  0  0  0  0  0  0
   -4.3026    6.9845    7.2414 F   0  0  0  0  0  0  0  0  0  0  0  0
   -4.9155    5.3116    8.7959 C   0  0  0  0  0  0  0  0  0  0  0  0
   -5.4068    6.2523    9.6110 F   0  0  0  0  0  0  0  0  0  0  0  0
   -4.9844    3.9822    9.1877 C   0  0  0  0  0  0  0  0  0  0  0  0
   -4.4693    3.0234    8.3302 C   0  0  0  0  0  0  0  0  0  0  0  0
   -4.3835    1.5652    8.4426 C   0  0  0  0  0  0  0  0  0  0  0  0
   -4.8442    0.8325    9.5077 C   0  0  0  0  0  0  0  0  0  0  0  0
   -4.7750   -0.5699    9.6386 C   0  0  0  0  0  0  0  0  0  0  0  0
   -4.7594   -1.7041    9.8239 N   0  0  0  0  0  0  0  0  0  0  0  0
   -5.4645    1.3937   10.6437 C   0  0  0  0  0  0  0  0  0  0  0  0
   -5.9757    1.7844   11.5944 N   0  0  0  0  0  0  0  0  0  0  0  0
    4.2592   -1.0763   -7.7121 H   0  0  0  0  0  0  0  0  0  0  0  0
    1.6156    4.0067   -6.2577 H   0  0  0  0  0  0  0  0  0  0  0  0
    2.2051    5.1388   -7.5110 H   0  0  0  0  0  0  0  0  0  0  0  0
   -0.2417    4.7075   -7.7686 H   0  0  0  0  0  0  0  0  0  0  0  0
    0.0769    2.9774   -7.9320 H   0  0  0  0  0  0  0  0  0  0  0  0
    0.6586    4.1119   -9.1656 H   0  0  0  0  0  0  0  0  0  0  0  0
    5.4977    2.5871   -8.2422 H   0  0  0  0  0  0  0  0  0  0  0  0
    4.9276    0.3764   -9.2317 H   0  0  0  0  0  0  0  0  0  0  0  0
    2.6669   -0.0467  -10.1348 H   0  0  0  0  0  0  0  0  0  0  0  0
    3.5151    1.1574  -11.1136 H   0  0  0  0  0  0  0  0  0  0  0  0
    2.2535    1.6621   -9.9861 H   0  0  0  0  0  0  0  0  0  0  0  0
    4.2800   -3.1438   -7.3266 H   0  0  0  0  0  0  0  0  0  0  0  0
    4.2283   -4.2124   -5.9212 H   0  0  0  0  0  0  0  0  0  0  0  0
    6.2051   -1.9030   -6.2705 H   0  0  0  0  0  0  0  0  0  0  0  0
    6.1341   -3.0052   -4.8949 H   0  0  0  0  0  0  0  0  0  0  0  0
    6.5716   -3.6182   -6.4912 H   0  0  0  0  0  0  0  0  0  0  0  0
   -2.9273   -2.8830    7.8320 H   0  0  0  0  0  0  0  0  0  0  0  0
   -2.4205   -4.1426    6.6979 H   0  0  0  0  0  0  0  0  0  0  0  0
   -4.8150   -4.3805    7.2957 H   0  0  0  0  0  0  0  0  0  0  0  0
   -5.1525   -2.7638    6.6783 H   0  0  0  0  0  0  0  0  0  0  0  0
   -4.6324   -4.0390    5.5712 H   0  0  0  0  0  0  0  0  0  0  0  0
    0.6650    0.2509   -2.6686 H   0  0  0  0  0  0  0  0  0  0  0  0
    0.4552    0.5960   -0.9599 H   0  0  0  0  0  0  0  0  0  0  0  0
   -1.7539    0.5115   -2.0891 H   0  0  0  0  0  0  0  0  0  0  0  0
   -1.3893   -1.0845   -2.7471 H   0  0  0  0  0  0  0  0  0  0  0  0
   -1.6471   -0.8909   -1.0153 H   0  0  0  0  0  0  0  0  0  0  0  0
   -0.7131    0.5252    0.5690 H   0  0  0  0  0  0  0  0  0  0  0  0
   -0.8535    0.5281    2.3186 H   0  0  0  0  0  0  0  0  0  0  0  0
    1.8044    0.0820    0.8626 H   0  0  0  0  0  0  0  0  0  0  0  0
    1.5611    0.1947    2.6038 H   0  0  0  0  0  0  0  0  0  0  0  0
    1.2770    1.6080    1.5869 H   0  0  0  0  0  0  0  0  0  0  0  0
   -3.7513   -0.9496    7.7433 H   0  0  0  0  0  0  0  0  0  0  0  0
   -3.3916    5.0237    5.7743 H   0  0  0  0  0  0  0  0  0  0  0  0
   -5.4321    3.7451   10.1386 H   0  0  0  0  0  0  0  0  0  0  0  0
  1  2  2  0  0  0  0
  2  3  1  0  0  0  0
  3  4  2  0  0  0  0
  3  5  1  0  0  0  0
  5  6  1  0  0  0  0
  6  7  1  0  0  0  0
  5  8  1  0  0  0  0
  8  9  2  0  0  0  0
  8 10  1  0  0  0  0
 10 11  1  0  0  0  0
 11 12  3  0  0  0  0
 10 13  1  0  0  0  0
 13 14  1  0  0  0  0
  1 15  1  0  0  0  0
 15 16  2  0  0  0  0
 16 17  1  0  0  0  0
 17 18  1  0  0  0  0
 16 19  1  0  0  0  0
 19 20  1  0  0  0  0
 20 21  1  0  0  0  0
 21 22  1  0  0  0  0
 22 23  1  0  0  0  0
 23 24  1  0  0  0  0
 24 25  2  0  0  0  0
 25 26  1  0  0  0  0
 26 27  1  0  0  0  0
 24 28  1  0  0  0  0
 28 29  1  0  0  0  0
 29 30  1  0  0  0  0
 30 31  1  0  0  0  0
 31 32  1  0  0  0  0
 32 33  1  0  0  0  0
 33 34  1  0  0  0  0
 32 35  2  0  0  0  0
 35 36  1  0  0  0  0
 36 37  1  0  0  0  0
 37 38  1  0  0  0  0
 38 39  1  0  0  0  0
 39 40  1  0  0  0  0
 40 41  1  0  0  0  0
 41 42  1  0  0  0  0
 42 43  1  0  0  0  0
 43 44  1  0  0  0  0
 44 45  1  0  0  0  0
 42 46  1  0  0  0  0
 46 47  1  0  0  0  0
 39 48  1  0  0  0  0
 48 49  1  0  0  0  0
 35 50  1  0  0  0  0
 50 51  2  0  0  0  0
 51 52  1  0  0  0  0
 52 53  2  0  0  0  0
 52 54  1  0  0  0  0
 54 55  2  0  0  0  0
 55 56  1  0  0  0  0
 56 57  1  0  0  0  0
 56 58  2  0  0  0  0
 58 59  1  0  0  0  0
 58 60  1  0  0  0  0
 60 61  2  0  0  0  0
 61 62  1  0  0  0  0
 62 63  2  0  0  0  0
 63 64  1  0  0  0  0
 64 65  3  0  0  0  0
 63 66  1  0  0  0  0
 66 67  3  0  0  0  0
 13  2  1  0  0  0  0
 45 15  1  0  0  0  0
 62 51  1  0  0  0  0
 44 19  2  0  0  0  0
 61 54  1  0  0  0  0
 43 21  2  0  0  0  0
 41 22  2  0  0  0  0
 27 23  2  0  0  0  0
 40 28  2  0  0  0  0
 38 29  2  0  0  0  0
 37 31  2  0  0  0  0
  1 68  1  0  0  0  0
  6 69  1  0  0  0  0
  6 70  1  0  0  0  0
  7 71  1  0  0  0  0
  7 72  1  0  0  0  0
  7 73  1  0  0  0  0
 10 74  1  0  0  0  0
 13 75  1  0  0  0  0
 14 76  1  0  0  0  0
 14 77  1  0  0  0  0
 14 78  1  0  0  0  0
 17 79  1  0  0  0  0
 17 80  1  0  0  0  0
 18 81  1  0  0  0  0
 18 82  1  0  0  0  0
 18 83  1  0  0  0  0
 33 84  1  0  0  0  0
 33 85  1  0  0  0  0
 34 86  1  0  0  0  0
 34 87  1  0  0  0  0
 34 88  1  0  0  0  0
 46 89  1  0  0  0  0
 46 90  1  0  0  0  0
 47 91  1  0  0  0  0
 47 92  1  0  0  0  0
 47 93  1  0  0  0  0
 48 94  1  0  0  0  0
 48 95  1  0  0  0  0
 49 96  1  0  0  0  0
 49 97  1  0  0  0  0
 49 98  1  0  0  0  0
 50 99  1  0  0  0  0
 55100  1  0  0  0  0
 60101  1  0  0  0  0
M  END
