107

C         -3.47480       -6.47850       -3.59210
C         -4.09650       -5.99900       -4.70390
C         -4.04030       -4.60670       -5.10540
O         -3.67630       -3.69800       -4.37400
N         -4.44640       -4.29220       -6.40570
C         -4.58690       -2.87480       -6.73310
C         -6.00180       -2.39470       -6.44050
C         -4.61910       -5.18860       -7.43060
O         -4.87310       -4.83720       -8.55530
C         -4.43780       -6.65390       -7.03940
C         -5.15110       -7.48610       -7.98240
N         -5.73550       -8.15470       -8.70020
C         -4.92720       -6.89230       -5.59810
C         -4.89530       -8.37890       -5.25710
C         -2.64810       -5.88510       -2.61090
C         -1.99240       -6.63260       -1.62850
C         -2.08240       -8.11300       -1.42990
C         -3.31110       -8.47400       -0.59140
C         -1.23960       -5.82060       -0.78250
S         -0.21600       -6.18230        0.59430
C          0.12010       -4.49190        0.74560
C          0.88980       -3.63050        1.53850
C          1.82450       -3.90730        2.56040
C          2.57500       -2.82380        3.12260
N          3.45190       -3.22980        4.02680
S          3.33870       -4.83990        4.16290
N          2.16710       -5.07950        3.07090
C          2.27680       -1.50500        2.71420
C          2.75840       -0.27430        3.17750
S          3.92330        0.33650        4.30020
C          3.40640        1.96460        3.89850
C          3.80660        3.21110        4.36020
C          4.91740        3.38980        5.34290
C          6.23680        3.68530        4.62430
C          3.07810        4.24430        3.74570
S          1.89550        3.62620        2.59030
C          2.38270        2.00920        2.93690
C          2.02510        0.72270        2.52390
N          1.13510        0.15340        1.65250
C          1.27300       -1.22040        1.74060
C          0.64990       -2.30590        1.06750
N         -0.21920       -2.38220       -0.00800
C         -0.53110       -3.69990       -0.20420
C         -1.30880       -4.45640       -1.09080
S         -2.32040       -4.16310       -2.45660
C         -0.50440       -1.42540       -1.05380
C          0.76920       -0.98790       -1.77290
C          0.05940        0.95660        1.11530
C         -1.27870        0.60030        1.75800
C          3.28080        5.59610        4.04020
C          2.67110        6.72810        3.55770
C          1.59610        6.77940        2.56370
O          1.07690        5.82930        1.99650
C          1.26280        8.20280        2.38940
C          2.08200        8.96900        3.21670
C          1.95880       10.36450        3.23670
C          1.01970       10.95690        2.43250
C          0.17480       10.20730        1.58650
C         -0.79040       10.82500        0.76510
C         -1.59800       10.07640       -0.04560
C         -1.47820        8.67740       -0.07420
C         -0.55420        8.04170        0.70760
C          0.29140        8.78730        1.55460
C          2.97720        8.08420        3.96130
C          3.92160        8.49330        4.86890
C          4.79030        7.65080        5.59330
N          5.53390        7.04110        6.22310
C          4.16910        9.83730        5.21850
N          4.43270       10.90270        5.55660
H         -3.60160       -7.53690       -3.41390
H         -3.86330       -2.32460       -6.12920
H         -4.35620       -2.75860       -7.79310
H         -6.72000       -2.95280       -7.03690
H         -6.08820       -1.34070       -6.68820
H         -6.23450       -2.52570       -5.38590
H         -3.36850       -6.89630       -7.11320
H         -5.97210       -6.55350       -5.54330
H         -3.88040       -8.76990       -5.29860
H         -5.31090       -8.55810       -4.26860
H         -5.49910       -8.92790       -5.97640
H         -1.18480       -8.43910       -0.90090
H         -2.11710       -8.63560       -2.38740
H         -4.22530       -8.14460       -1.08060
H         -3.25200       -7.99350        0.38190
H         -3.36170       -9.54970       -0.44380
H          4.69800        4.19750        6.04280
H          5.02120        2.46340        5.91130
H          6.48930        2.87210        3.94770
H          6.16530        4.60610        4.05020
H          7.03520        3.79600        5.35230
H         -1.16320       -1.93120       -1.76380
H         -1.05580       -0.57310       -0.65680
H          1.24070       -1.84630       -2.24570
H          0.52830       -0.25900       -2.54200
H          1.48350       -0.54770       -1.08080
H          0.30350        1.99620        1.34670
H          0.02050        0.87100        0.02930
H         -1.23870        0.79370        2.82740
H         -2.06930        1.20830        1.32690
H         -1.52120       -0.44990        1.61220
H          4.05230        5.75720        4.78040
H          2.58600       10.96850        3.87070
H          0.91340       12.03220        2.43910
H         -0.87980       11.90150        0.78920
H         -2.33540       10.55740       -0.67130
H         -2.12570        8.10550       -0.72230
H         -0.45390        6.96800        0.69370
