104

C          3.62680        4.14270        5.16480
C          4.14120        5.22050        4.51480
C          3.90740        5.48600        3.10810
O          3.01340        4.97730        2.45040
N          4.73370        6.42810        2.48180
C          4.36840        6.83420        1.12660
C          4.93600        5.87370        0.09010
C          5.93180        6.87520        2.96810
O          6.63610        7.65230        2.37370
C          6.30540        6.31340        4.33840
C          6.86680        4.99690        4.15160
N          7.27710        3.94030        4.00650
C          5.04020        6.22090        5.21010
C          5.40790        5.90260        6.65440
C          2.83640        3.04970        4.74300
C          2.59840        1.93830        5.55590
C          3.18000        1.70340        6.91340
C          4.62770        1.21640        6.80810
C          1.79710        0.99570        4.91410
S          1.17430       -0.56300        5.42040
C          0.38430       -0.70730        3.88800
C         -0.40950       -1.62330        3.18590
C         -0.84060       -2.92060        3.53920
C         -1.56900       -3.69150        2.57730
N         -1.87300       -4.90100        3.02070
S         -1.29370       -5.05380        4.52560
N         -0.63230       -3.58270        4.66640
C         -1.90130       -3.09700        1.34040
C         -2.66090       -3.58830        0.27250
S         -3.49670       -5.03130       -0.18490
C         -3.98280       -4.23760       -1.67290
C         -4.72670       -4.66950       -2.76070
C         -5.36420       -6.01890       -2.82050
C         -6.82550       -5.94900       -2.36820
C         -4.83590       -3.66430       -3.74030
S         -4.00110       -2.18210       -3.26530
C         -3.51250       -2.91640       -1.78540
C         -2.75730       -2.55550       -0.66730
N         -2.06970       -1.45590       -0.22670
C         -1.52320       -1.76020        1.00790
C         -0.69400       -1.04280        1.91340
N         -0.06320        0.18960        1.85630
C          0.59040        0.38520        3.04170
C          1.40020        1.36970        3.62430
S          2.03970        2.90910        3.18220
C          0.26190        1.03800        0.73200
C          1.15570        0.31400       -0.27240
C         -2.30320       -0.18280       -0.87120
C         -3.19630        0.71570       -0.01880
C         -5.50850       -3.84990       -4.94910
C         -5.69330       -3.00530       -6.01970
C         -5.21000       -1.62830       -6.13050
O         -4.58890       -0.98310       -5.30210
C         -5.62280       -1.15570       -7.46510
C         -5.39440        0.07250       -8.05250
C         -5.86580        0.31190       -9.33860
C         -5.65270        1.61330      -10.04010
C         -6.55740       -0.72130       -9.97270
F         -7.01720       -0.49950      -11.21890
C         -6.80090       -1.96160       -9.40420
C         -6.32160       -2.18130       -8.12300
C         -6.38930       -3.34740       -7.24250
C         -7.00600       -4.53310       -7.55460
C         -7.66150       -4.78250       -8.77840
N         -8.20360       -5.05510       -9.75300
C         -7.08620       -5.66820       -6.72250
N         -7.20150       -6.63160       -6.10610
H          3.89310        4.06240        6.20960
H          4.76640        7.83920        0.97480
H          3.27850        6.84960        1.07350
H          4.54240        4.87340        0.25300
H          6.02120        5.84590        0.15760
H          4.65570        6.20440       -0.90600
H          7.06650        6.96650        4.77800
H          4.54900        7.20440        5.18720
H          4.52160        5.88000        7.28390
H          6.06870        6.67740        7.03840
H          5.92640        4.94830        6.72400
H          2.58110        0.93920        7.41280
H          3.13660        2.61270        7.51670
H          5.24470        1.94140        6.28160
H          5.04260        1.05660        7.80010
H          4.66610        0.27720        6.26220
H         -4.81560       -6.68480       -2.15150
H         -5.31760       -6.43240       -3.82900
H         -7.26970       -6.93940       -2.40640
H         -7.39830       -5.29010       -3.01650
H         -6.88840       -5.57560       -1.34870
H          0.80210        1.89620        1.13880
H         -0.64430        1.42230        0.26530
H          0.68730       -0.59920       -0.63340
H          2.09910        0.04730        0.19820
H          1.36400        0.96300       -1.11870
H         -2.80970       -0.40080       -1.81450
H         -1.36010        0.30200       -1.11980
H         -2.76360        0.88450        0.96500
H         -3.33750        1.67330       -0.51230
H         -4.16980        0.24970        0.11490
H         -5.94120       -4.83590       -5.04900
H         -4.85240        0.83390       -7.51250
H         -6.61050        2.05390      -10.31470
H         -5.10830        2.30860       -9.40790
H         -5.09340        1.45550      -10.96180
H         -7.34360       -2.70180       -9.96810
