120

C         -5.54870       -0.80610        5.08100
C         -5.05120       -1.57970        6.09650
C         -3.63530       -1.90950        6.34620
O         -2.66570       -1.55490        5.69590
C         -3.63510       -2.75600        7.54010
C         -4.93510       -2.92300        7.97430
S         -5.07450       -3.91130        9.37640
C         -3.33220       -4.12090        9.39580
C         -2.61160       -4.86520       10.31620
C         -1.23900       -4.92430       10.17970
C         -0.58770       -4.25300        9.14300
C         -1.29500       -3.51140        8.22480
C         -2.68450       -3.43660        8.34120
C         -5.85970       -2.21600        7.12270
C         -7.21990       -2.19200        7.30510
C         -8.15900       -1.51390        6.50530
N         -8.98460       -0.98240        5.90840
C         -7.81810       -2.88700        8.37750
N         -8.32300       -3.44300        9.24520
C         -4.89660       -0.17040        4.01670
C         -5.58410        0.58740        3.05000
C         -6.99180        0.95990        3.14050
C         -7.82660        0.81350        2.03440
C         -9.16190        1.15040        2.12050
C         -9.69930        1.64930        3.30120
C        -11.14350        2.04460        3.38230
C        -11.31220        3.52370        3.02680
C         -8.85690        1.82510        4.39230
C         -7.52180        1.48660        4.31820
C         -4.74450        0.95410        1.99900
S         -5.01880        1.85090        0.51840
C         -3.34610        1.65240        0.12580
C         -2.46640        1.92440       -0.93060
C         -2.69640        2.42960       -2.23050
C         -1.62850        2.39050       -3.18890
N         -2.00650        2.81410       -4.38400
S         -3.56860        3.23390       -4.31020
N         -3.82420        2.88700       -2.74960
C         -0.34220        1.98740       -2.76380
C          0.89120        1.96080       -3.42950
S          1.53590        2.22490       -5.01320
C          3.14100        1.91000       -4.37910
C          4.39800        1.85860       -4.97170
C          4.61510        2.02320       -6.40490
C          4.01100        3.07700       -7.08890
C          4.19200        3.21770       -8.44970
C          4.96370        2.30970       -9.16590
C          5.12320        2.43750      -10.65170
C          4.05380        1.61410      -11.37340
C          5.54130        1.24470       -8.48500
C          5.37490        1.10070       -7.12320
C          5.40930        1.58850       -4.02170
S          4.74150        1.31390       -2.41000
C          3.15330        1.61590       -3.00390
C          1.86200        1.63060       -2.47510
N          1.27290        1.41430       -1.25560
C         -0.08720        1.60730       -1.41300
C         -1.18780        1.43280       -0.53590
N         -1.31330        0.82790        0.69790
C         -2.61540        0.95820        1.09920
C         -3.41460        0.53830        2.16750
S         -3.18810       -0.34400        3.63290
C         -0.43480       -0.10010        1.37470
C          0.10760        0.47010        2.68600
C          2.09270        1.55950       -0.07140
C          2.45100        3.02600        0.16550
C          6.76890        1.65480       -4.32790
C          7.87520        1.52160       -3.51550
C          7.86590        1.23170       -2.08590
O          6.91320        0.93370       -1.38850
C          9.26350        1.39420       -1.62490
C          9.76020        1.34280       -0.33530
Cl         8.77720        0.88440        0.98160
C         11.10230        1.69170       -0.12880
Cl        11.77290        1.61100        1.44240
C         11.87550        2.15040       -1.19320
Cl        13.47790        2.67250       -0.89840
C         11.36080        2.20890       -2.49930
Cl        12.31170        2.96170       -3.71230
C         10.06870        1.75250       -2.72440
C          9.25700        1.64660       -3.93700
C          9.73910        1.47800       -5.20960
C          8.95110        1.38100       -6.37600
N          8.40820        1.30850       -7.38560
C         11.08040        1.18760       -5.54260
N         12.10940        0.83190       -5.90610
H         -6.62330       -0.66750        5.06640
H         -3.11690       -5.38340       11.11610
H         -0.66000       -5.49950       10.88600
H          0.48690       -4.32010        9.06480
H         -0.80710       -2.98720        7.41800
H         -7.42780        0.40820        1.11630
H         -9.80050        1.01590        1.25930
H        -11.51500        1.87100        4.39360
H        -11.73280        1.43890        2.69160
H        -10.95400        3.71380        2.01740
H        -10.74290        4.14600        3.71370
H        -12.35930        3.81110        3.08420
H         -9.25420        2.22430        5.31370
H         -6.87500        1.65430        5.16780
H          3.41970        3.79730       -6.54320
H          3.72970        4.04770       -8.96440
H          5.03200        3.48440      -10.94730
H          6.11190        2.08140      -10.94640
H          3.05980        1.95970      -11.09810
H          4.13770        0.56420      -11.10240
H          4.16770        1.70500      -12.45100
H          6.13810        0.52520       -9.02390
H          5.81010        0.25310       -6.61480
H         -1.01780       -0.99880        1.60480
H          0.36240       -0.39260        0.68970
H         -0.68220        0.50900        3.43080
H          0.49670        1.47750        2.55470
H          0.89970       -0.16940        3.06520
H          1.57680        1.17490        0.79910
H          3.00540        0.97850       -0.23180
H          3.06940        3.11140        1.05440
H          3.00490        3.42720       -0.67920
H          1.54930        3.61930        0.30490
H          6.96380        1.90870       -5.36350
