142

C          2.25270        2.67980        5.31590
C          2.86260        3.87380        5.09440
C          3.99330        4.29900        5.97640
O          4.30270        3.81020        7.04020
C          4.64890        5.38000        5.23500
C          3.91830        5.66410        4.09570
S          4.57120        6.94710        3.15450
C          5.88840        7.11290        4.30320
C          6.92820        8.02540        4.22450
C          7.87680        8.02520        5.22800
C          7.79470        7.13240        6.29830
C          6.76540        6.22320        6.38460
C          5.79480        6.20210        5.38080
C          2.72840        4.85290        4.03010
C          1.61010        5.15500        3.29580
C          0.35500        4.54990        3.50190
N         -0.69460        4.12380        3.68830
C          1.61050        6.19500        2.34500
N          1.60430        7.02800        1.55560
C          1.49740        1.86810        4.43850
C          0.68910        0.80500        4.81930
C          0.15870        0.12750        3.73140
C         -0.78960       -1.02270        3.50880
C         -0.33210       -2.33750        4.10720
C         -1.24820       -3.36480        4.31450
C         -0.84170       -4.57760        4.82290
C          0.49970       -4.80650        5.13990
O          0.77330       -6.03120        5.66220
C          2.10790       -6.39610        5.95130
C          2.89710       -6.77950        4.70270
C          1.41880       -3.78630        4.92310
C          0.99940       -2.57080        4.40820
C         -2.14200       -0.59470        4.05760
C         -2.37940       -0.68320        5.42130
C         -3.57450       -0.25910        5.97280
C         -4.56680        0.27630        5.15720
O         -5.79020        0.70310        5.56630
C         -6.09640        0.75350        6.94540
C         -5.43970        1.93630        7.65100
C         -4.32340        0.37640        3.78650
C         -3.12800       -0.04690        3.24690
C         -0.76880       -1.12370        1.99250
C          0.03140       -0.10210        1.42560
C          0.57530        0.64660        2.51250
S          1.61840        1.99050        2.68910
C          0.17860        0.04260        0.04820
C         -0.47510       -0.86490       -0.75200
C         -0.50270       -0.93130       -2.26950
C         -1.31950        0.18770       -2.89930
C         -2.12380        1.03120       -2.15260
C         -2.89290        2.01130       -2.75920
C         -2.87520        2.15810       -4.14110
O         -3.56560        3.08690       -4.85340
C         -4.47100        3.95210       -4.19750
C         -5.78940        3.26790       -3.84710
C         -2.07050        1.29970       -4.89560
C         -1.30890        0.33050       -4.28440
C          0.91390       -0.94890       -2.80630
C          1.58910       -2.13860       -3.02160
C          2.89700       -2.15040       -3.47670
C          3.56220       -0.95390       -3.71890
O          4.83270       -0.82670       -4.18670
C          5.63200       -1.97490       -4.38440
C          6.19470       -2.53130       -3.07940
C          2.88610        0.24680       -3.48990
C          1.58480        0.24750       -3.04080
C         -1.27150       -2.20960       -2.48660
C         -1.70470       -2.71920       -1.26590
C         -1.22780       -1.92070       -0.18310
C         -1.39020       -2.05440        1.19400
S         -2.63170       -4.14260       -1.44410
C         -2.43090       -4.06760       -3.19820
C         -1.68130       -2.96030       -3.57680
C         -3.03030       -5.10660       -3.93580
C         -3.03510       -5.37720       -5.27250
S         -3.90130       -6.81010       -5.83320
C         -3.43520       -6.50740       -7.48440
C         -3.75290       -7.36500       -8.50660
C         -4.52650       -8.51280       -8.24480
N         -5.15740       -9.44880       -8.04010
C         -3.32860       -7.21950       -9.83920
N         -3.00400       -7.18030      -10.94010
N         -2.70930       -5.36310       -7.58290
C         -2.28780       -4.82240       -8.83520
C         -0.94450       -4.84550       -9.17230
C         -0.54490       -4.31040      -10.38360
C         -1.47910       -3.75710      -11.24210
C         -2.81740       -3.72310      -10.88880
C         -3.22860       -4.25120       -9.67940
C         -2.42620       -4.68380       -6.40120
O         -1.76570       -3.66790       -6.39350
H          2.44970        2.24370        6.29140
H          6.98860        8.71640        3.39840
H          8.69470        8.72810        5.18460
H          8.55170        7.15970        7.06720
H          6.68680        5.52700        7.20480
H          0.49880        0.56900        5.85050
H         -2.29230       -3.20490        4.08920
H         -1.54880       -5.37420        4.99240
H          2.01330       -7.26420        6.60970
H          2.61650       -5.59790        6.50610
H          2.39530       -7.59420        4.18680
H          3.89550       -7.10170        4.98550
H          2.97680       -5.93820        4.01850
H          2.46490       -3.91490        5.15220
H          1.73300       -1.79450        4.24490
H         -1.62210       -1.10110        6.06870
H         -3.71450       -0.35580        7.03790
H         -5.83170       -0.19160        7.43600
H         -7.18440        0.86140        6.97550
H         -5.74500        1.95650        8.69370
H         -4.35580        1.86760        7.60000
H         -5.74530        2.86440        7.17460
H         -5.09500        0.79580        3.16070
H         -2.96510        0.04920        2.18400
H          0.77990        0.83750       -0.36490
H         -2.16000        0.93780       -1.07720
H         -3.49500        2.65070       -2.13320
H         -4.00940        4.39240       -3.30520
H         -4.65080        4.75260       -4.92070
H         -5.62970        2.44740       -3.15180
H         -6.24760        2.86880       -4.74850
H         -6.46640        3.98760       -3.39510
H         -2.06230        1.41710       -5.96750
H         -0.69210       -0.32070       -4.88500
H          1.09320       -3.08080       -2.83900
H          3.37630       -3.10260       -3.64100
H          6.45060       -1.62790       -5.02130
H          5.07490       -2.74600       -4.93080
H          6.76980       -1.76200       -2.57020
H          5.39520       -2.85550       -2.41750
H          6.84410       -3.37640       -3.29090
H          3.40820        1.17110       -3.68060
H          1.07640        1.18740       -2.88410
H         -1.98170       -2.85700        1.60610
H         -1.45500       -2.74430       -4.60350
H         -3.57690       -5.81880       -3.32640
H         -0.22710       -5.28030       -8.49310
H          0.49880       -4.33150      -10.65730
H         -1.16340       -3.34920      -12.19010
H         -3.54510       -3.28660      -11.55520
H         -4.26990       -4.22980       -9.39240
