100

C          5.04470       -2.77760       -5.09360
C          6.25420       -2.14470       -5.13040
C          6.74000       -0.90610       -4.45640
O          6.14990       -0.15650       -3.70250
C          8.13110       -0.74910       -4.89070
C          8.47050       -1.77880       -5.74160
S         10.09300       -1.69680       -6.31620
C         10.34060       -0.22880       -5.38780
C         11.51230        0.50880       -5.32800
C         11.53200        1.64430       -4.54290
C         10.40330        2.04440       -3.82510
C          9.23600        1.31790       -3.87840
C          9.19070        0.16530       -4.66530
C          7.35990       -2.67310       -5.93210
C          7.41420       -3.78880       -6.72940
C          6.38560       -4.71820       -6.97670
N          5.61440       -5.52880       -7.24050
C          8.59860       -4.12420       -7.42090
N          9.54920       -4.41860       -7.99230
C          3.80320       -2.54020       -4.42890
C          2.77530       -3.48780       -4.66920
C          1.53390       -3.39680       -4.09240
C          1.28280       -2.32270       -3.23910
N          0.15790       -1.99190       -2.54930
C         -1.06480       -2.74970       -2.50710
C         -1.06480       -3.75290       -1.35490
C          0.40380       -0.84650       -1.81420
C          1.73080       -0.40740       -2.06990
C          2.29720       -1.36010       -2.98520
C          3.54000       -1.46440       -3.57080
C          2.25190        0.72990       -1.47170
C          1.40840        1.41090       -0.61150
C          0.08520        0.96440       -0.34880
C         -0.43620       -0.17210       -0.94690
C         -0.46710        1.88600        0.60410
C         -1.69090        1.95000        1.23400
C         -1.93070        2.97550        2.15600
C         -0.91930        3.94170        2.37970
C          0.30640        3.88690        1.76390
C          0.54530        2.84670        0.86610
N          1.64750        2.56090        0.11850
C          2.89430        3.27920        0.14140
C          3.84840        2.71670        1.19390
C         -3.16480        3.14710        2.85720
C         -4.19350        2.28860        3.11930
C         -4.23690        0.81140        2.98700
O         -3.46900        0.06550        2.41340
C         -5.42210        0.37440        3.74950
C         -5.81600       -0.94270        3.97850
C         -6.96020       -1.06060        4.72860
C         -7.66050        0.04960        5.22010
C         -7.27970        1.35260        5.00580
C         -6.11820        1.49500        4.23850
C         -5.41270        2.69630        3.80530
C         -5.87650        3.97820        3.94700
C         -5.25490        5.14160        3.44440
N         -4.83890        6.14060        3.05840
C         -7.08680        4.32110        4.58540
N         -8.05520        4.67620        5.09010
C         -8.70850       -0.80700        5.88680
C        -10.06930       -0.91860        5.16700
C        -10.69420       -2.15740        5.76710
C        -10.03030       -3.20910        5.30440
C         -8.94560       -2.69870        4.38370
C         -9.65320       -1.47030        3.79720
C         -7.92640       -2.04430        5.34010
H          5.00570       -3.67280       -5.70440
H         12.38300        0.19780       -5.88360
H         12.43520        2.23230       -4.48320
H         10.45240        2.93760       -3.22080
H          8.35520        1.61310       -3.33010
H          2.98360       -4.31620       -5.33080
H          0.78110       -4.14320       -4.29570
H         -1.18140       -3.27110       -3.46050
H         -1.89930       -2.05200       -2.39660
H         -1.99610       -4.31240       -1.34770
H         -0.96020       -3.23550       -0.40430
H         -0.23730       -4.45060       -1.46210
H          4.29920       -0.72950       -3.36810
H          3.26340        1.04270       -1.67450
H         -1.43860       -0.50000       -0.72470
H         -2.44890        1.22030        1.01370
H         -1.12030        4.74290        3.07610
H          1.05720        4.63330        1.97440
H          2.68370        4.33150        0.34890
H          3.34890        3.21210       -0.85040
H          4.77840        3.27830        1.19280
H          4.06950        1.67320        0.98310
H          3.40040        2.78190        2.18290
H         -3.27360        4.13960        3.28170
H         -5.24250       -1.76780        3.58580
H         -7.82080        2.19480        5.40320
H         -8.80590       -0.68600        6.96400
H        -10.66750       -0.01180        5.18150
H        -11.49190       -2.13880        6.48630
H        -10.16230       -4.24410        5.56000
H         -8.52040       -3.41410        3.68470
H         -8.99910       -0.80870        3.23240
H        -10.51170       -1.74290        3.18550
H         -7.49970       -2.74700        6.05360
