126

C          7.91400        5.01230       -0.37310
C          8.93210        4.10800       -0.21740
C          8.87350        2.71150        0.18880
O          7.88770        2.02710        0.40010
C         10.28680        2.26010        0.29400
C         10.78490        1.02970        0.67150
C         12.16560        0.86010        0.69660
Cl        12.82060       -0.65850        1.16650
C         13.02210        1.90830        0.34700
Cl        14.72400        1.67120        0.38870
C         12.51360        3.14650       -0.03400
C         11.14380        3.30990       -0.05620
C         10.33530        4.51110       -0.40300
O         10.74900        5.59550       -0.75030
C          6.53530        4.85700       -0.19940
C          5.60490        5.90850       -0.27890
C          5.94800        7.31460       -0.46820
C          5.24010        8.07270       -1.40010
C          5.55900        9.39840       -1.60930
C          6.57900       10.01040       -0.88950
C          6.96270       11.43340       -1.16850
C          7.99390       11.48810       -2.29830
C          7.26450        9.25980        0.05790
C          6.95660        7.93050        0.27100
C          4.29710        5.44150       -0.15450
S          2.74690        6.25830       -0.09960
C          1.98280        4.72450        0.13800
C          0.70150        4.19950        0.35050
C         -0.53620        4.84070        0.58130
C         -1.67360        4.04220        0.93520
N         -2.74560        4.77420        1.19150
S         -2.35950        6.33500        0.99830
N         -0.80700        6.13590        0.58140
C         -1.55460        2.63450        0.90270
C         -2.52070        1.62830        1.03360
S         -4.20290        1.46650        1.40520
C         -4.06770       -0.25650        1.10920
C         -5.00500       -1.28720        1.10710
C         -6.41150       -1.10950        1.45580
C         -6.74830       -0.41640        2.61700
C         -8.07020       -0.27510        2.98550
C         -9.09050       -0.80760        2.20630
C        -10.52680       -0.63010        2.59950
C        -11.08480        0.66930        2.01440
C         -8.75330       -1.46320        1.02860
C         -7.43370       -1.61510        0.65440
C         -4.42420       -2.51250        0.72810
S         -2.71140       -2.34690        0.35320
C         -2.77620       -0.66680        0.74290
C         -1.89150        0.41680        0.72310
N         -0.56640        0.63200        0.45760
C         -0.32680        1.98940        0.57070
C          0.84310        2.78280        0.42920
N          2.18680        2.47370        0.32200
C          2.87430        3.64550        0.15580
C          4.20610        4.04980        0.01310
S          5.75630        3.29630        0.05430
C          2.89790        1.26930        0.69080
C          2.60310        0.86300        2.13200
C          0.21260       -0.40170       -0.18730
C          0.53080       -0.04240       -1.63600
C         -5.13530       -3.71770        0.73450
C         -4.77720       -4.96630        0.29140
C         -3.51050       -5.32510       -0.35020
O         -2.52280       -4.62150       -0.49170
C         -3.65360       -6.71930       -0.80070
C         -2.72120       -7.47160       -1.51060
C         -3.14240       -8.74460       -1.81140
C         -4.39980       -9.23280       -1.43310
C         -5.32870       -8.50040       -0.73230
C         -4.92050       -7.20230       -0.41470
C         -5.62880       -6.13820        0.29720
C         -6.87250       -6.25660        0.86430
C         -7.56570       -5.25050        1.56980
N         -8.20920       -4.50070        2.15700
C         -7.65310       -7.43110        0.83570
N         -8.34990       -8.34410        0.85120
C         -4.15540      -10.58030       -2.06430
C         -3.79590      -11.76160       -1.12970
C         -3.14450      -11.16100        0.09120
C         -1.95420      -10.70060       -0.26980
C         -1.77970      -10.98040       -1.74210
C         -2.55610      -12.30170       -1.86040
C         -2.75460      -10.03600       -2.48770
H          8.23600        6.00790       -0.66490
H         10.12460        0.22100        0.94260
H         13.17430        3.95560       -0.30280
H          4.45420        7.60840       -1.97670
H          5.00890        9.96900       -2.34350
H          7.38700       11.88760       -0.27120
H          6.07960       12.00610       -1.45890
H          8.88430       10.92650       -2.02480
H          7.58290       11.05460       -3.20730
H          8.28010       12.51700       -2.50230
H          8.04890        9.72290        0.63880
H          7.47870        7.37360        1.03530
H         -5.96460       -0.01630        3.24310
H         -8.31470        0.24730        3.89910
H        -11.11480       -1.47370        2.23440
H        -10.61030       -0.59970        3.68740
H        -10.51600        1.52290        2.37660
H        -12.12590        0.79850        2.30070
H        -11.02230        0.65360        0.92860
H         -9.53410       -1.86820        0.40180
H         -7.19060       -2.10690       -0.27710
H          2.67440        0.46220       -0.00800
H          3.96250        1.49420        0.59190
H          2.92200        1.65000        2.81130
H          3.14710       -0.04510        2.37670
H          1.54070        0.69030        2.28700
H          1.11830       -0.61200        0.38250
H         -0.39740       -1.30790       -0.16800
H         -0.39180        0.07030       -2.20050
H          1.11890       -0.83450       -2.09110
H          1.08550        0.89080       -1.70100
H         -6.13500       -3.61670        1.13850
H         -1.76540       -7.05350       -1.78540
H         -6.29340       -8.89130       -0.45610
H         -4.84890      -10.87090       -2.85090
H         -4.61170      -12.45550       -0.94570
H         -3.62500      -11.08350        1.04890
H         -1.24110      -10.16150        0.32600
H         -0.75960      -10.96410       -2.11690
H         -2.07660      -13.12130       -1.32740
H         -2.75410      -12.59810       -2.88960
H         -2.53520       -9.96880       -3.55170
