113

C          1.57460       -7.45660       -3.49780
C          1.19340       -8.76390       -3.47320
C          1.46840       -9.65150       -4.62250
O          1.99130       -9.34790       -5.67100
C          0.99680      -10.99810       -4.20770
C          1.07390      -12.20250       -4.87880
C          0.55620      -13.33450       -4.25830
Cl         0.63280      -14.85010       -5.06540
C         -0.02690      -13.25210       -2.98920
Cl        -0.65270      -14.66790       -2.24360
C         -0.10970      -12.03490       -2.32170
C          0.40920      -10.91580       -2.94050
C          0.43100       -9.50810       -2.46380
O         -0.16470       -9.07070       -1.50240
C          1.59590       -6.49840       -2.45960
C          1.73740       -6.63450       -1.07930
C          2.01190       -7.92320       -0.43650
C          3.07320       -8.66980       -0.94970
C          3.37030       -9.92070       -0.45180
C          2.59460      -10.44960        0.56770
C          1.54720       -9.71360        1.08230
C          1.23280       -8.44560        0.60160
C          0.03710       -7.73630        1.17020
C          0.17370       -7.47640        2.67050
C          1.74320       -5.38070       -0.44610
S          1.92120       -4.88730        1.22360
C          1.71960       -3.24030        0.74080
C          1.63540       -1.96320        1.31910
C          1.79490       -1.51340        2.64910
C          1.65340       -0.11270        2.93260
N          1.87040        0.16810        4.20730
S          2.21900       -1.20740        4.98570
N          2.10410       -2.21730        3.72640
C          1.23080        0.75560        1.89960
C          0.77200        2.07870        1.92990
S          0.54220        3.35540        3.07610
C         -0.26970        4.28160        1.82810
C         -0.88080        5.52580        1.83020
C         -1.02800        6.38190        3.01600
C         -0.36150        7.60370        3.13670
C          0.64980        8.04820        2.11730
C          1.99860        7.37890        2.39180
C         -0.58380        8.36790        4.27390
C         -1.44500        7.94290        5.26860
C         -2.08680        6.72280        5.15080
C         -1.87430        5.94440        4.03020
C         -1.43230        5.83630        0.57080
S         -1.13990        4.56540       -0.61340
C         -0.32640        3.62660        0.58160
C          0.27750        2.37040        0.64950
N          0.44270        1.28630       -0.17130
C          1.03500        0.28500        0.56770
C          1.37490       -1.05420        0.25630
N          1.37890       -1.75010       -0.94160
C          1.56340       -3.07570       -0.63970
C          1.59640       -4.29510       -1.32140
S          1.49820       -4.81010       -2.96050
C          1.76430       -1.26620       -2.25110
C          3.24670       -1.52480       -2.52050
C         -0.25160        1.22410       -1.43920
C          0.43940        2.05800       -2.51790
C         -2.18580        6.99200        0.36520
C         -2.79890        7.47050       -0.76980
C         -2.72510        6.87350       -2.09800
O         -2.19400        5.82470       -2.41680
C         -3.40220        7.82320       -3.00860
C         -3.51730        7.76470       -4.38550
Cl        -2.98160        6.40630       -5.26780
C         -4.08160        8.86240       -5.05030
Cl        -4.27950        8.82250       -6.74830
C         -4.43800       10.00290       -4.33360
Cl        -5.02860       11.36870       -5.17730
C         -4.30750       10.05970       -2.93560
Cl        -4.59260       11.56070       -2.15670
C         -3.85750        8.93050       -2.26310
C         -3.64240        8.64690       -0.84420
C         -4.28380        9.23950        0.21400
C         -5.40760       10.08930        0.12430
N         -6.38640       10.68730        0.16680
C         -4.03120        8.95550        1.57460
N         -3.87990        8.80970        2.70400
H          1.91490       -7.09670       -4.46650
H          1.52030      -12.26580       -5.85870
H         -0.56260      -11.96830       -1.34520
H          3.67110       -8.25270       -1.74800
H          4.19710      -10.48250       -0.86010
H          2.80530      -11.43620        0.95310
H          0.93570      -10.13850        1.86430
H         -0.12900       -6.79640        0.64620
H         -0.83920       -8.36310        0.99130
H          1.07690       -6.90950        2.88280
H         -0.68130       -6.90790        3.02830
H          0.21990       -8.40900        3.22640
H          0.32360        7.79360        1.10740
H          0.76790        9.13200        2.17110
H          1.90680        6.29710        2.32670
H          2.34870        7.63110        3.39000
H          2.74050        7.70910        1.66850
H         -0.07380        9.31500        4.37540
H         -1.61240        8.56220        6.13650
H         -2.75570        6.38000        5.92500
H         -2.37790        4.99490        3.92150
H          1.58660       -0.19860       -2.30840
H          1.15560       -1.78040       -3.00140
H          3.85730       -1.04470       -1.75850
H          3.46490       -2.58900       -2.52190
H          3.51490       -1.11770       -3.49140
H         -1.25810        1.62820       -1.28490
H         -0.35620        0.17960       -1.73390
H          0.33410        3.11640       -2.29780
H         -0.02280        1.86440       -3.48150
H          1.50180        1.83200       -2.58430
H         -2.27770        7.59780        1.25900
