113

C         -6.85380        0.65270        4.63400
C         -7.90420        0.85970        3.78170
C         -7.92170        0.85080        2.32520
O         -6.99950        0.62380        1.56180
C         -9.31740        1.17690        1.93330
C         -9.86160        1.30750        0.67150
C        -11.21180        1.62660        0.56900
Cl       -11.92230        1.79870       -0.98660
C        -11.99330        1.80870        1.71440
Cl       -13.65850        2.20310        1.55810
C        -11.43860        1.67490        2.98390
C        -10.09890        1.35890        3.08040
C         -9.25350        1.16270        4.29010
O         -9.60250        1.24000        5.44680
C         -5.50870        0.38280        4.35500
C         -4.53310        0.22860        5.35060
C         -4.81500        0.39740        6.78660
C         -4.98730        1.69090        7.27240
C         -5.24530        1.90960        8.61110
C         -5.34660        0.83080        9.47360
C         -5.18870       -0.45400        8.99040
C         -4.91810       -0.69400        7.64850
C         -4.75540       -2.10810        7.16500
C         -3.44870       -2.72190        7.66940
C         -3.27950       -0.02800        4.80620
S         -1.69390       -0.25860        5.51650
C         -1.03710       -0.41340        3.92380
C          0.19880       -0.64030        3.30150
C          1.46770       -0.95200        3.83850
C          2.55120       -1.23290        2.94190
N          3.66300       -1.56300        3.57970
S          3.37330       -1.51990        5.17160
N          1.81740       -1.07850        5.10890
C          2.34820       -1.06280        1.55420
C          3.25340       -1.07470        0.48380
S          4.93690       -1.35010        0.19640
C          4.70500       -0.85490       -1.46520
C          5.59350       -0.72300       -2.53930
C          7.01310       -1.07280       -2.44400
C          7.62910       -1.99430       -3.29810
C          6.85110       -2.84840       -4.26170
C          6.08680       -3.93770       -3.50660
C          8.99490       -2.20410       -3.16050
C          9.74050       -1.53630       -2.20490
C          9.11480       -0.66420       -1.33270
C          7.75720       -0.43880       -1.45040
C          4.93880       -0.25220       -3.67760
S          3.20230       -0.07310       -3.42060
C          3.37390       -0.53000       -1.76860
C          2.54540       -0.65980       -0.65150
N          1.23810       -0.42080       -0.32500
C          1.08260       -0.67710        1.02260
C         -0.03280       -0.59290        1.89590
N         -1.38720       -0.39400        1.67750
C         -1.98850       -0.28720        2.90580
C         -3.27860       -0.07350        3.40030
S         -4.84540        0.19400        2.73400
C         -2.20530       -0.81100        0.55690
C         -2.23750       -2.33380        0.44600
C          0.38780        0.28530       -1.25540
C         -0.18610       -0.64450       -2.32340
C          5.43310        0.02680       -4.96560
C          6.69610        0.46060       -5.28040
C          7.58540        1.19680       -4.36020
O          7.37570        1.49730       -3.20450
C          8.72770        1.63930       -5.19060
C          9.83350        2.36480       -4.80200
C         10.76810        2.68370       -5.78080
Cl        12.17570        3.57810       -5.34850
C         10.58730        2.29670       -7.10380
C          9.47030        1.56870       -7.48510
C          8.53190        1.23100       -6.52110
C          7.28800        0.47120       -6.59820
C          6.82940       -0.21470       -7.69460
C          7.45940       -0.20090       -8.95510
N          7.92610       -0.21520      -10.00400
C          5.69750       -1.05530       -7.68890
N          4.80620       -1.77810       -7.74060
H         -7.09710        0.72010        5.69130
H         -9.25880        1.16790       -0.21200
H        -12.04120        1.81560        3.86730
H         -4.91130        2.52400        6.58830
H         -5.37370        2.91650        8.97800
H         -5.55640        0.99190       10.52030
H         -5.28570       -1.29430        9.66260
H         -4.77330       -2.13600        6.07400
H         -5.59410       -2.70670        7.53000
H         -2.59690       -2.14280        7.32180
H         -3.34720       -3.74200        7.30650
H         -3.42810       -2.73820        8.75620
H          7.54290       -3.31840       -4.96340
H          6.14320       -2.25800       -4.84410
H          6.77470       -4.55740       -2.93570
H          5.37290       -3.49460       -2.81550
H          5.54540       -4.56940       -4.20660
H          9.48240       -2.91250       -3.81550
H         10.80380       -1.71090       -2.13340
H          9.67970       -0.15760       -0.56530
H          7.26510        0.25840       -0.79090
H         -1.85670       -0.37560       -0.37390
H         -3.21290       -0.43350        0.74710
H         -2.63700       -2.77020        1.35850
H         -1.23580       -2.72880        0.28670
H         -2.87120       -2.63040       -0.38510
H          1.00300        1.04540       -1.74990
H         -0.38890        0.80900       -0.69720
H         -0.70180       -1.49170       -1.87950
H          0.61530       -1.02650       -2.95030
H         -0.88130       -0.09760       -2.95420
H          4.71500       -0.08780       -5.77060
H          9.96130        2.66510       -3.77410
H         11.32650        2.56900       -7.84060
H          9.34690        1.28560       -8.51770
