113

C          5.88790       -5.40800       -3.31340
C          5.64760       -5.59980       -4.64710
C          6.46010       -6.53800       -5.44080
O          7.37050       -7.23360       -5.04950
C          5.92870       -6.44770       -6.82850
C          6.33250       -7.10810       -7.97070
C          5.66180       -6.83650       -9.15950
Cl         6.13930       -7.64110      -10.60110
C          4.60750       -5.91820       -9.19300
Cl         3.79740       -5.60080      -10.67510
C          4.20400       -5.25520       -8.03840
C          4.87290       -5.52910       -6.86250
C          4.65170       -4.97020       -5.50330
O          3.80200       -4.15290       -5.19540
C          5.24610       -4.57020       -2.39360
C          5.62530       -4.46740       -1.04650
C          6.79230       -5.15920       -0.48130
C          8.05750       -4.80220       -0.94050
C          9.18930       -5.40670       -0.42870
C          9.06220       -6.38180        0.54530
C          7.80610       -6.74670        0.99450
C          6.65640       -6.14780        0.49710
C          5.30660       -6.63150        0.94520
C          4.71010       -7.59310       -0.08510
C          4.79990       -3.59140       -0.34770
S          4.79690       -3.02830        1.31390
C          3.42350       -2.04340        0.94120
C          2.58340       -1.11540        1.56880
C          2.62970       -0.56380        2.86840
C          1.69850        0.46780        3.21450
N          1.88600        0.92940        4.44050
S          3.12720        0.12940        5.10460
N          3.47300       -0.83560        3.85170
C          0.69920        0.82390        2.28150
C         -0.38890        1.69620        2.40080
S         -1.05790        2.80400        3.54980
C         -2.37880        3.10020        2.43570
C         -3.51060        3.89710        2.51790
C         -3.81010        4.78460        3.65190
C         -4.84160        4.51320        4.55320
C         -5.64170        3.24410        4.47590
C         -4.92050        2.12510        5.23080
C         -5.06340        5.40610        5.59280
C         -4.28940        6.54130        5.74200
C         -3.25790        6.79550        4.85440
C         -3.01800        5.91720        3.81610
C         -4.30960        3.78920        1.36360
S         -3.62380        2.66960        0.18680
C         -2.29090        2.36430        1.23860
C         -1.14030        1.57230        1.22480
N         -0.53730        0.68360        0.37560
C          0.60480        0.20990        0.99580
C          1.62460       -0.69650        0.59800
N          1.91180       -1.33720       -0.59500
C          2.99730       -2.14410       -0.38790
C          3.78580       -3.02330       -1.13830
S          3.84840       -3.56750       -2.77290
C          1.51350       -1.02200       -1.94980
C          1.88880        0.40960       -2.32350
C         -1.28290        0.16530       -0.75010
C         -1.72330       -1.27690       -0.51290
C         -5.49460        4.51310        1.21890
C         -6.40430        4.54110        0.18700
C         -6.28200        3.82720       -1.08430
O         -5.40820        3.04670       -1.42450
C         -7.43710        4.24510       -1.90050
C         -7.76780        3.87550       -3.18980
C         -8.91040        4.41480       -3.75960
C         -9.68510        5.30420       -3.02780
Br       -11.24360        6.03610       -3.83210
C         -9.36770        5.68330       -1.72830
C         -8.22700        5.14210       -1.16060
C         -7.62370        5.31920        0.16330
C         -8.16930        6.05190        1.18560
C         -9.37430        6.77850        1.07940
N        -10.34530        7.39040        1.05660
C         -7.64950        6.16600        2.49240
N         -7.31540        6.29810        3.58350
H          6.70590       -5.99620       -2.90550
H          7.14590       -7.81590       -7.94500
H          3.39090       -4.54690       -8.06430
H          8.14550       -4.03510       -1.69660
H         10.16440       -5.11900       -0.79100
H          9.94030       -6.86170        0.95050
H          7.71070       -7.51630        1.74700
H          5.40910       -7.14870        1.90070
H          4.62590       -5.79250        1.09010
H          4.55770       -7.09090       -1.03790
H          3.75170       -7.97140        0.26280
H          5.37800       -8.43620       -0.24710
H         -5.78920        2.93830        3.43880
H         -6.62370        3.41020        4.92160
H         -3.94170        1.94060        4.79320
H         -5.49870        1.20490        5.18980
H         -4.78010        2.40200        6.27290
H         -5.86380        5.20730        6.28940
H         -4.48820        7.22650        6.55200
H         -2.64290        7.67570        4.96730
H         -2.21990        6.10750        3.11270
H          2.05140       -1.71500       -2.60090
H          0.44970       -1.21100       -2.09190
H          1.55830        0.62520       -3.33540
H          2.96840        0.53320       -2.27970
H          1.43800        1.12900       -1.64330
H         -2.16780        0.79780       -0.85370
H         -0.70840        0.26590       -1.67070
H         -2.27020       -1.64230       -1.37770
H         -0.87060       -1.92800       -0.33330
H         -2.37680       -1.32690        0.35500
H         -5.70450        5.14950        2.07110
H         -7.14460        3.18280       -3.73380
H         -9.20150        4.15130       -4.76460
H        -10.00020        6.37820       -1.20070
