
  xtb     02012221483D
 energy: -200.051914571655 gnorm: 0.000537078080 xtb: 6.4.1 (unknown)
110125  0     0  0            999 V2000
    3.0325   11.3024   -0.6832 C   0  0  0  0  0  0  0  0  0  0  0  0
    3.1675   11.9460    0.5199 C   0  0  0  0  0  0  0  0  0  0  0  0
    3.5727   13.3665    0.5161 C   0  0  0  0  0  0  0  0  0  0  0  0
    3.8030   14.0565   -0.4521 O   0  0  0  0  0  0  0  0  0  0  0  0
    3.6406   13.7777    1.9427 C   0  0  0  0  0  0  0  0  0  0  0  0
    3.9706   14.9981    2.4962 C   0  0  0  0  0  0  0  0  0  0  0  0
    3.9572   15.1152    3.8826 C   0  0  0  0  0  0  0  0  0  0  0  0
    4.3631   16.6205    4.6071 Cl  0  0  0  0  0  0  0  0  0  0  0  0
    3.6184   14.0247    4.6894 C   0  0  0  0  0  0  0  0  0  0  0  0
    3.6101   14.1973    6.4002 Cl  0  0  0  0  0  0  0  0  0  0  0  0
    3.2870   12.7974    4.1255 C   0  0  0  0  0  0  0  0  0  0  0  0
    3.3020   12.6876    2.7494 C   0  0  0  0  0  0  0  0  0  0  0  0
    2.9918   11.5019    1.9041 C   0  0  0  0  0  0  0  0  0  0  0  0
    2.6650   10.4119    2.3366 O   0  0  0  0  0  0  0  0  0  0  0  0
    2.6704    9.9839   -0.9894 C   0  0  0  0  0  0  0  0  0  0  0  0
    2.6340    9.5201   -2.7032 S   0  0  0  0  0  0  0  0  0  0  0  0
    2.1663    7.9278   -2.2720 C   0  0  0  0  0  0  0  0  0  0  0  0
    1.8730    6.6866   -2.8249 C   0  0  0  0  0  0  0  0  0  0  0  0
    1.8143    5.9824   -4.4125 S   0  0  0  0  0  0  0  0  0  0  0  0
    1.3657    4.4945   -3.6634 C   0  0  0  0  0  0  0  0  0  0  0  0
    1.0928    3.1917   -4.0914 C   0  0  0  0  0  0  0  0  0  0  0  0
    1.1844    2.6358   -5.3851 C   0  0  0  0  0  0  0  0  0  0  0  0
    0.9780    1.2300   -5.5380 C   0  0  0  0  0  0  0  0  0  0  0  0
    1.1359    0.8262   -6.7890 N   0  0  0  0  0  0  0  0  0  0  0  0
    1.5095    2.1143   -7.6968 S   0  0  0  0  0  0  0  0  0  0  0  0
    1.4866    3.2336   -6.5267 N   0  0  0  0  0  0  0  0  0  0  0  0
    0.6140    0.4717   -4.4047 C   0  0  0  0  0  0  0  0  0  0  0  0
    0.2982   -0.8880   -4.3104 C   0  0  0  0  0  0  0  0  0  0  0  0
    0.2251   -2.2902   -5.3197 S   0  0  0  0  0  0  0  0  0  0  0  0
   -0.3474   -3.2105   -3.9393 C   0  0  0  0  0  0  0  0  0  0  0  0
   -0.7095   -4.5425   -3.7906 C   0  0  0  0  0  0  0  0  0  0  0  0
   -0.6108   -5.5346   -4.9031 C   0  0  0  0  0  0  0  0  0  0  0  0
    0.7061   -6.3119   -4.8281 C   0  0  0  0  0  0  0  0  0  0  0  0
   -1.1163   -4.8201   -2.4740 C   0  0  0  0  0  0  0  0  0  0  0  0
   -1.0420   -3.3914   -1.4409 S   0  0  0  0  0  0  0  0  0  0  0  0
   -0.4660   -2.4485   -2.7643 C   0  0  0  0  0  0  0  0  0  0  0  0
   -0.0865   -1.1219   -2.9881 C   0  0  0  0  0  0  0  0  0  0  0  0
   -0.0158    0.0403   -2.2674 N   0  0  0  0  0  0  0  0  0  0  0  0
    0.4422    1.0452   -3.1047 C   0  0  0  0  0  0  0  0  0  0  0  0
    0.7637    2.4267   -2.9375 C   0  0  0  0  0  0  0  0  0  0  0  0
    0.8870    3.2639   -1.8402 N   0  0  0  0  0  0  0  0  0  0  0  0
    1.2471    4.5239   -2.2674 C   0  0  0  0  0  0  0  0  0  0  0  0
    1.5629    5.8025   -1.7557 C   0  0  0  0  0  0  0  0  0  0  0  0
    1.6498    6.4967   -0.5660 N   0  0  0  0  0  0  0  0  0  0  0  0
    2.0379    7.7795   -0.8702 C   0  0  0  0  0  0  0  0  0  0  0  0
    2.3240    8.9302   -0.1530 C   0  0  0  0  0  0  0  0  0  0  0  0
    1.6516    6.0408    0.8036 C   0  0  0  0  0  0  0  0  0  0  0  0
    3.0203    5.4958    1.2114 C   0  0  0  0  0  0  0  0  0  0  0  0
    0.6534    2.9899   -0.4479 C   0  0  0  0  0  0  0  0  0  0  0  0
   -0.7426    3.4495   -0.0203 C   0  0  0  0  0  0  0  0  0  0  0  0
   -0.5202    0.0038   -0.9128 C   0  0  0  0  0  0  0  0  0  0  0  0
    0.5190   -0.5374    0.0704 C   0  0  0  0  0  0  0  0  0  0  0  0
   -1.5289   -6.0893   -2.0550 C   0  0  0  0  0  0  0  0  0  0  0  0
   -1.9735   -6.5342   -0.8344 C   0  0  0  0  0  0  0  0  0  0  0  0
   -2.1645   -5.7225    0.3695 C   0  0  0  0  0  0  0  0  0  0  0  0
   -1.8963   -4.5410    0.5218 O   0  0  0  0  0  0  0  0  0  0  0  0
   -2.7640   -6.6102    1.3794 C   0  0  0  0  0  0  0  0  0  0  0  0
   -3.1608   -6.2665    2.6691 C   0  0  0  0  0  0  0  0  0  0  0  0
   -3.7162   -7.3043    3.3783 C   0  0  0  0  0  0  0  0  0  0  0  0
   -3.8700   -8.5891    2.8415 C   0  0  0  0  0  0  0  0  0  0  0  0
   -3.4811   -8.9411    1.5705 C   0  0  0  0  0  0  0  0  0  0  0  0
   -2.9077   -7.9017    0.8335 C   0  0  0  0  0  0  0  0  0  0  0  0
   -2.3876   -7.8900   -0.5336 C   0  0  0  0  0  0  0  0  0  0  0  0
   -2.2921   -8.9878   -1.3513 C   0  0  0  0  0  0  0  0  0  0  0  0
   -2.6969  -10.2901   -0.9916 C   0  0  0  0  0  0  0  0  0  0  0  0
   -3.0017  -11.3761   -0.7753 N   0  0  0  0  0  0  0  0  0  0  0  0
   -1.7606   -9.0010   -2.6573 C   0  0  0  0  0  0  0  0  0  0  0  0
   -1.3390   -9.1038   -3.7217 N   0  0  0  0  0  0  0  0  0  0  0  0
   -4.5039   -9.1260    4.1001 C   0  0  0  0  0  0  0  0  0  0  0  0
   -3.6302   -9.9988    5.0343 C   0  0  0  0  0  0  0  0  0  0  0  0
   -2.2009   -9.5750    4.8039 C   0  0  0  0  0  0  0  0  0  0  0  0
   -2.0519   -8.3595    5.3130 C   0  0  0  0  0  0  0  0  0  0  0  0
   -3.3780   -7.9390    5.8968 C   0  0  0  0  0  0  0  0  0  0  0  0
   -3.9071   -9.3004    6.3754 C   0  0  0  0  0  0  0  0  0  0  0  0
   -4.3298   -7.6949    4.6995 C   0  0  0  0  0  0  0  0  0  0  0  0
    3.2490   11.9332   -1.5418 H   0  0  0  0  0  0  0  0  0  0  0  0
    4.2321   15.8387    1.8731 H   0  0  0  0  0  0  0  0  0  0  0  0
    3.0260   11.9560    4.7479 H   0  0  0  0  0  0  0  0  0  0  0  0
   -1.4463   -6.2357   -4.8785 H   0  0  0  0  0  0  0  0  0  0  0  0
   -0.6493   -4.9893   -5.8483 H   0  0  0  0  0  0  0  0  0  0  0  0
    0.7672   -7.0111   -5.6569 H   0  0  0  0  0  0  0  0  0  0  0  0
    0.7693   -6.8753   -3.9003 H   0  0  0  0  0  0  0  0  0  0  0  0
    1.5513   -5.6296   -4.8812 H   0  0  0  0  0  0  0  0  0  0  0  0
    2.3007    9.0445    0.9152 H   0  0  0  0  0  0  0  0  0  0  0  0
    0.8709    5.2961    0.9537 H   0  0  0  0  0  0  0  0  0  0  0  0
    1.4083    6.9058    1.4253 H   0  0  0  0  0  0  0  0  0  0  0  0
    2.9863    5.1291    2.2336 H   0  0  0  0  0  0  0  0  0  0  0  0
    3.3298    4.6841    0.5553 H   0  0  0  0  0  0  0  0  0  0  0  0
    3.7661    6.2843    1.1500 H   0  0  0  0  0  0  0  0  0  0  0  0
    1.4151    3.5213    0.1250 H   0  0  0  0  0  0  0  0  0  0  0  0
    0.8015    1.9318   -0.2602 H   0  0  0  0  0  0  0  0  0  0  0  0
   -1.5138    2.9543   -0.6071 H   0  0  0  0  0  0  0  0  0  0  0  0
   -0.8555    4.5195   -0.1819 H   0  0  0  0  0  0  0  0  0  0  0  0
   -0.9076    3.2308    1.0318 H   0  0  0  0  0  0  0  0  0  0  0  0
   -1.3754   -0.6801   -0.9115 H   0  0  0  0  0  0  0  0  0  0  0  0
   -0.8916    0.9822   -0.6230 H   0  0  0  0  0  0  0  0  0  0  0  0
    0.6969   -1.5912   -0.1245 H   0  0  0  0  0  0  0  0  0  0  0  0
    0.1501   -0.4378    1.0872 H   0  0  0  0  0  0  0  0  0  0  0  0
    1.4696   -0.0142   -0.0168 H   0  0  0  0  0  0  0  0  0  0  0  0
   -1.4957   -6.8286   -2.8435 H   0  0  0  0  0  0  0  0  0  0  0  0
   -3.0305   -5.2617    3.0398 H   0  0  0  0  0  0  0  0  0  0  0  0
   -3.6132   -9.9331    1.1726 H   0  0  0  0  0  0  0  0  0  0  0  0
   -5.5147   -9.5149    3.9950 H   0  0  0  0  0  0  0  0  0  0  0  0
   -3.8304  -11.0650    4.9734 H   0  0  0  0  0  0  0  0  0  0  0  0
   -1.4832  -10.1613    4.2605 H   0  0  0  0  0  0  0  0  0  0  0  0
   -1.1843   -7.7266    5.2800 H   0  0  0  0  0  0  0  0  0  0  0  0
   -3.3487   -7.1302    6.6224 H   0  0  0  0  0  0  0  0  0  0  0  0
   -4.9619   -9.2850    6.6467 H   0  0  0  0  0  0  0  0  0  0  0  0
   -3.3225   -9.7152    7.1950 H   0  0  0  0  0  0  0  0  0  0  0  0
   -5.2273   -7.1506    4.9877 H   0  0  0  0  0  0  0  0  0  0  0  0
  1  2  2  0  0  0  0
  2  3  1  0  0  0  0
  3  4  2  0  0  0  0
  3  5  1  0  0  0  0
  5  6  2  0  0  0  0
  6  7  1  0  0  0  0
  7  8  1  0  0  0  0
  7  9  2  0  0  0  0
  9 10  1  0  0  0  0
  9 11  1  0  0  0  0
 11 12  2  0  0  0  0
 12 13  1  0  0  0  0
 13 14  2  0  0  0  0
  1 15  1  0  0  0  0
 15 16  1  0  0  0  0
 16 17  1  0  0  0  0
 17 18  1  0  0  0  0
 18 19  1  0  0  0  0
 19 20  1  0  0  0  0
 20 21  1  0  0  0  0
 21 22  1  0  0  0  0
 22 23  1  0  0  0  0
 23 24  2  0  0  0  0
 24 25  1  0  0  0  0
 25 26  1  0  0  0  0
 23 27  1  0  0  0  0
 27 28  1  0  0  0  0
 28 29  1  0  0  0  0
 29 30  1  0  0  0  0
 30 31  1  0  0  0  0
 31 32  1  0  0  0  0
 32 33  1  0  0  0  0
 31 34  2  0  0  0  0
 34 35  1  0  0  0  0
 35 36  1  0  0  0  0
 36 37  1  0  0  0  0
 37 38  1  0  0  0  0
 38 39  1  0  0  0  0
 39 40  1  0  0  0  0
 40 41  1  0  0  0  0
 41 42  1  0  0  0  0
 42 43  1  0  0  0  0
 43 44  1  0  0  0  0
 44 45  1  0  0  0  0
 45 46  1  0  0  0  0
 44 47  1  0  0  0  0
 47 48  1  0  0  0  0
 41 49  1  0  0  0  0
 49 50  1  0  0  0  0
 38 51  1  0  0  0  0
 51 52  1  0  0  0  0
 34 53  1  0  0  0  0
 53 54  2  0  0  0  0
 54 55  1  0  0  0  0
 55 56  2  0  0  0  0
 55 57  1  0  0  0  0
 57 58  2  0  0  0  0
 58 59  1  0  0  0  0
 59 60  2  0  0  0  0
 60 61  1  0  0  0  0
 61 62  2  0  0  0  0
 62 63  1  0  0  0  0
 63 64  2  0  0  0  0
 64 65  1  0  0  0  0
 65 66  3  0  0  0  0
 64 67  1  0  0  0  0
 67 68  3  0  0  0  0
 60 69  1  0  0  0  0
 69 70  1  0  0  0  0
 70 71  1  0  0  0  0
 71 72  2  0  0  0  0
 72 73  1  0  0  0  0
 73 74  1  0  0  0  0
 73 75  1  0  0  0  0
 13  2  1  0  0  0  0
 46 15  2  0  0  0  0
 63 54  1  0  0  0  0
 75 69  1  0  0  0  0
 12  5  1  0  0  0  0
 45 17  2  0  0  0  0
 62 57  1  0  0  0  0
 74 70  1  0  0  0  0
 43 18  2  0  0  0  0
 75 59  1  0  0  0  0
 42 20  2  0  0  0  0
 40 21  2  0  0  0  0
 26 22  2  0  0  0  0
 39 27  2  0  0  0  0
 37 28  2  0  0  0  0
 36 30  2  0  0  0  0
  1 76  1  0  0  0  0
  6 77  1  0  0  0  0
 11 78  1  0  0  0  0
 32 79  1  0  0  0  0
 32 80  1  0  0  0  0
 33 81  1  0  0  0  0
 33 82  1  0  0  0  0
 33 83  1  0  0  0  0
 46 84  1  0  0  0  0
 47 85  1  0  0  0  0
 47 86  1  0  0  0  0
 48 87  1  0  0  0  0
 48 88  1  0  0  0  0
 48 89  1  0  0  0  0
 49 90  1  0  0  0  0
 49 91  1  0  0  0  0
 50 92  1  0  0  0  0
 50 93  1  0  0  0  0
 50 94  1  0  0  0  0
 51 95  1  0  0  0  0
 51 96  1  0  0  0  0
 52 97  1  0  0  0  0
 52 98  1  0  0  0  0
 52 99  1  0  0  0  0
 53100  1  0  0  0  0
 58101  1  0  0  0  0
 61102  1  0  0  0  0
 69103  1  0  0  0  0
 70104  1  0  0  0  0
 71105  1  0  0  0  0
 72106  1  0  0  0  0
 73107  1  0  0  0  0
 74108  1  0  0  0  0
 74109  1  0  0  0  0
 75110  1  0  0  0  0
M  END
