
  xtb     02022202183D
 energy: -181.698032715569 gnorm: 0.000465458313 xtb: 6.4.1 (unknown)
 96107  0     0  0            999 V2000
   -1.6768    6.4373   -4.7676 C   0  0  0  0  0  0  0  0  0  0  0  0
   -2.1156    7.2898   -3.7906 C   0  0  0  0  0  0  0  0  0  0  0  0
   -2.3186    7.0474   -2.3685 C   0  0  0  0  0  0  0  0  0  0  0  0
   -2.1274    6.0191   -1.7445 O   0  0  0  0  0  0  0  0  0  0  0  0
   -2.8130    8.3311   -1.8051 C   0  0  0  0  0  0  0  0  0  0  0  0
   -3.1603    8.6368   -0.5046 C   0  0  0  0  0  0  0  0  0  0  0  0
   -3.6010    9.9272   -0.2289 C   0  0  0  0  0  0  0  0  0  0  0  0
   -4.0432   10.3422    1.3794 Cl  0  0  0  0  0  0  0  0  0  0  0  0
   -3.6879   10.8862   -1.2433 C   0  0  0  0  0  0  0  0  0  0  0  0
   -4.2358   12.4724   -0.8740 Cl  0  0  0  0  0  0  0  0  0  0  0  0
   -3.3359   10.5720   -2.5525 C   0  0  0  0  0  0  0  0  0  0  0  0
   -2.9000    9.2906   -2.8208 C   0  0  0  0  0  0  0  0  0  0  0  0
   -2.4675    8.6846   -4.1089 C   0  0  0  0  0  0  0  0  0  0  0  0
   -2.4169    9.2233   -5.1926 O   0  0  0  0  0  0  0  0  0  0  0  0
   -1.2998    5.0912   -4.6961 C   0  0  0  0  0  0  0  0  0  0  0  0
   -0.8866    4.3274   -5.7977 C   0  0  0  0  0  0  0  0  0  0  0  0
   -0.8264    4.8028   -7.2124 C   0  0  0  0  0  0  0  0  0  0  0  0
   -2.2033    4.7042   -7.8748 C   0  0  0  0  0  0  0  0  0  0  0  0
   -0.5860    3.0234   -5.4239 C   0  0  0  0  0  0  0  0  0  0  0  0
   -0.0344    1.6289   -6.3326 S   0  0  0  0  0  0  0  0  0  0  0  0
   -0.0188    0.7141   -4.8651 C   0  0  0  0  0  0  0  0  0  0  0  0
    0.2604   -0.5919   -4.4314 C   0  0  0  0  0  0  0  0  0  0  0  0
    0.5465   -1.7975   -5.1137 C   0  0  0  0  0  0  0  0  0  0  0  0
    0.6180   -3.0268   -4.3675 C   0  0  0  0  0  0  0  0  0  0  0  0
    0.8102   -4.0778   -5.1478 N   0  0  0  0  0  0  0  0  0  0  0  0
    0.9023   -3.5728   -6.6825 S   0  0  0  0  0  0  0  0  0  0  0  0
    0.6981   -1.9900   -6.4139 N   0  0  0  0  0  0  0  0  0  0  0  0
    0.5596   -2.9799   -2.9549 C   0  0  0  0  0  0  0  0  0  0  0  0
    0.7476   -3.9473   -1.9542 C   0  0  0  0  0  0  0  0  0  0  0  0
    0.9648   -5.6554   -1.8163 S   0  0  0  0  0  0  0  0  0  0  0  0
    1.0858   -5.4761   -0.0815 C   0  0  0  0  0  0  0  0  0  0  0  0
    1.2933   -6.3970    0.9476 C   0  0  0  0  0  0  0  0  0  0  0  0
    1.3786   -7.8704    0.7368 C   0  0  0  0  0  0  0  0  0  0  0  0
    0.0332   -8.5312    1.0480 C   0  0  0  0  0  0  0  0  0  0  0  0
    1.3019   -5.7751    2.1925 C   0  0  0  0  0  0  0  0  0  0  0  0
    1.0935   -4.0266    2.0609 S   0  0  0  0  0  0  0  0  0  0  0  0
    0.9644   -4.1465    0.3468 C   0  0  0  0  0  0  0  0  0  0  0  0
    0.7620   -3.2737   -0.7231 C   0  0  0  0  0  0  0  0  0  0  0  0
    0.5606   -1.9300   -0.9206 N   0  0  0  0  0  0  0  0  0  0  0  0
    0.3996   -1.7414   -2.2796 C   0  0  0  0  0  0  0  0  0  0  0  0
    0.0764   -0.5856   -3.0221 C   0  0  0  0  0  0  0  0  0  0  0  0
   -0.3709    0.6563   -2.6192 N   0  0  0  0  0  0  0  0  0  0  0  0
   -0.4171    1.4491   -3.7392 C   0  0  0  0  0  0  0  0  0  0  0  0
   -0.7494    2.7702   -4.0512 C   0  0  0  0  0  0  0  0  0  0  0  0
   -1.2937    4.1611   -3.1952 S   0  0  0  0  0  0  0  0  0  0  0  0
   -1.2308    0.9414   -1.4864 C   0  0  0  0  0  0  0  0  0  0  0  0
   -2.7002    0.9725   -1.9048 C   0  0  0  0  0  0  0  0  0  0  0  0
    1.0614   -0.9573    0.0298 C   0  0  0  0  0  0  0  0  0  0  0  0
    2.5646   -1.1233    0.2510 C   0  0  0  0  0  0  0  0  0  0  0  0
    1.5572   -6.4000    3.4291 C   0  0  0  0  0  0  0  0  0  0  0  0
    1.3366   -5.9396    4.6934 C   0  0  0  0  0  0  0  0  0  0  0  0
    2.1180   -6.4924    5.8286 C   0  0  0  0  0  0  0  0  0  0  0  0
    2.7882   -7.5001    5.8300 O   0  0  0  0  0  0  0  0  0  0  0  0
    1.9446   -5.5121    6.9226 C   0  0  0  0  0  0  0  0  0  0  0  0
    2.5573   -5.4776    8.1598 C   0  0  0  0  0  0  0  0  0  0  0  0
    2.2702   -4.4372    9.0369 C   0  0  0  0  0  0  0  0  0  0  0  0
    2.8989   -4.3358   10.3880 C   0  0  0  0  0  0  0  0  0  0  0  0
    1.3587   -3.4671    8.6146 C   0  0  0  0  0  0  0  0  0  0  0  0
    1.0866   -2.4498    9.4536 F   0  0  0  0  0  0  0  0  0  0  0  0
    0.7197   -3.4830    7.3854 C   0  0  0  0  0  0  0  0  0  0  0  0
    1.0232   -4.5256    6.5265 C   0  0  0  0  0  0  0  0  0  0  0  0
    0.5174   -4.8623    5.1991 C   0  0  0  0  0  0  0  0  0  0  0  0
   -0.6729   -4.4401    4.6655 C   0  0  0  0  0  0  0  0  0  0  0  0
   -1.4678   -3.4209    5.2231 C   0  0  0  0  0  0  0  0  0  0  0  0
   -2.1325   -2.5738    5.6213 N   0  0  0  0  0  0  0  0  0  0  0  0
   -1.2624   -5.0608    3.5446 C   0  0  0  0  0  0  0  0  0  0  0  0
   -1.7881   -5.5904    2.6720 N   0  0  0  0  0  0  0  0  0  0  0  0
   -1.6205    6.8875   -5.7541 H   0  0  0  0  0  0  0  0  0  0  0  0
   -3.0935    7.8972    0.2776 H   0  0  0  0  0  0  0  0  0  0  0  0
   -3.4030   11.3115   -3.3348 H   0  0  0  0  0  0  0  0  0  0  0  0
   -0.4694    5.8325   -7.2573 H   0  0  0  0  0  0  0  0  0  0  0  0
   -0.1218    4.1708   -7.7566 H   0  0  0  0  0  0  0  0  0  0  0  0
   -2.5568    3.6760   -7.8560 H   0  0  0  0  0  0  0  0  0  0  0  0
   -2.1423    5.0307   -8.9094 H   0  0  0  0  0  0  0  0  0  0  0  0
   -2.9258    5.3285   -7.3544 H   0  0  0  0  0  0  0  0  0  0  0  0
    2.1518   -8.2993    1.3777 H   0  0  0  0  0  0  0  0  0  0  0  0
    1.6455   -8.0589   -0.3049 H   0  0  0  0  0  0  0  0  0  0  0  0
   -0.7442   -8.1217    0.4083 H   0  0  0  0  0  0  0  0  0  0  0  0
   -0.2487   -8.3522    2.0828 H   0  0  0  0  0  0  0  0  0  0  0  0
    0.0964   -9.6029    0.8799 H   0  0  0  0  0  0  0  0  0  0  0  0
   -1.1055    0.1634   -0.7360 H   0  0  0  0  0  0  0  0  0  0  0  0
   -0.9456    1.9110   -1.0671 H   0  0  0  0  0  0  0  0  0  0  0  0
   -3.3210    1.1264   -1.0271 H   0  0  0  0  0  0  0  0  0  0  0  0
   -2.8898    1.7805   -2.6052 H   0  0  0  0  0  0  0  0  0  0  0  0
   -2.9793    0.0292   -2.3699 H   0  0  0  0  0  0  0  0  0  0  0  0
    0.8822    0.0436   -0.3580 H   0  0  0  0  0  0  0  0  0  0  0  0
    0.5288   -1.0853    0.9775 H   0  0  0  0  0  0  0  0  0  0  0  0
    2.7922   -2.0868    0.6982 H   0  0  0  0  0  0  0  0  0  0  0  0
    2.9199   -0.3423    0.9171 H   0  0  0  0  0  0  0  0  0  0  0  0
    3.0942   -1.0428   -0.6960 H   0  0  0  0  0  0  0  0  0  0  0  0
    2.0903   -7.3449    3.3749 H   0  0  0  0  0  0  0  0  0  0  0  0
    3.2527   -6.2552    8.4368 H   0  0  0  0  0  0  0  0  0  0  0  0
    2.1355   -4.4013   11.1627 H   0  0  0  0  0  0  0  0  0  0  0  0
    3.6243   -5.1298   10.5377 H   0  0  0  0  0  0  0  0  0  0  0  0
    3.3931   -3.3720   10.5021 H   0  0  0  0  0  0  0  0  0  0  0  0
    0.0288   -2.6955    7.1317 H   0  0  0  0  0  0  0  0  0  0  0  0
  1  2  2  0  0  0  0
  2  3  1  0  0  0  0
  3  4  2  0  0  0  0
  3  5  1  0  0  0  0
  5  6  2  0  0  0  0
  6  7  1  0  0  0  0
  7  8  1  0  0  0  0
  7  9  2  0  0  0  0
  9 10  1  0  0  0  0
  9 11  1  0  0  0  0
 11 12  2  0  0  0  0
 12 13  1  0  0  0  0
 13 14  2  0  0  0  0
  1 15  1  0  0  0  0
 15 16  2  0  0  0  0
 16 17  1  0  0  0  0
 17 18  1  0  0  0  0
 16 19  1  0  0  0  0
 19 20  1  0  0  0  0
 20 21  1  0  0  0  0
 21 22  1  0  0  0  0
 22 23  1  0  0  0  0
 23 24  1  0  0  0  0
 24 25  2  0  0  0  0
 25 26  1  0  0  0  0
 26 27  1  0  0  0  0
 24 28  1  0  0  0  0
 28 29  1  0  0  0  0
 29 30  1  0  0  0  0
 30 31  1  0  0  0  0
 31 32  1  0  0  0  0
 32 33  1  0  0  0  0
 33 34  1  0  0  0  0
 32 35  2  0  0  0  0
 35 36  1  0  0  0  0
 36 37  1  0  0  0  0
 37 38  1  0  0  0  0
 38 39  1  0  0  0  0
 39 40  1  0  0  0  0
 40 41  1  0  0  0  0
 41 42  1  0  0  0  0
 42 43  1  0  0  0  0
 43 44  1  0  0  0  0
 44 45  1  0  0  0  0
 42 46  1  0  0  0  0
 46 47  1  0  0  0  0
 39 48  1  0  0  0  0
 48 49  1  0  0  0  0
 35 50  1  0  0  0  0
 50 51  2  0  0  0  0
 51 52  1  0  0  0  0
 52 53  2  0  0  0  0
 52 54  1  0  0  0  0
 54 55  2  0  0  0  0
 55 56  1  0  0  0  0
 56 57  1  0  0  0  0
 56 58  2  0  0  0  0
 58 59  1  0  0  0  0
 58 60  1  0  0  0  0
 60 61  2  0  0  0  0
 61 62  1  0  0  0  0
 62 63  2  0  0  0  0
 63 64  1  0  0  0  0
 64 65  3  0  0  0  0
 63 66  1  0  0  0  0
 66 67  3  0  0  0  0
 13  2  1  0  0  0  0
 45 15  1  0  0  0  0
 62 51  1  0  0  0  0
 12  5  1  0  0  0  0
 44 19  2  0  0  0  0
 61 54  1  0  0  0  0
 43 21  2  0  0  0  0
 41 22  2  0  0  0  0
 27 23  2  0  0  0  0
 40 28  2  0  0  0  0
 38 29  2  0  0  0  0
 37 31  2  0  0  0  0
  1 68  1  0  0  0  0
  6 69  1  0  0  0  0
 11 70  1  0  0  0  0
 17 71  1  0  0  0  0
 17 72  1  0  0  0  0
 18 73  1  0  0  0  0
 18 74  1  0  0  0  0
 18 75  1  0  0  0  0
 33 76  1  0  0  0  0
 33 77  1  0  0  0  0
 34 78  1  0  0  0  0
 34 79  1  0  0  0  0
 34 80  1  0  0  0  0
 46 81  1  0  0  0  0
 46 82  1  0  0  0  0
 47 83  1  0  0  0  0
 47 84  1  0  0  0  0
 47 85  1  0  0  0  0
 48 86  1  0  0  0  0
 48 87  1  0  0  0  0
 49 88  1  0  0  0  0
 49 89  1  0  0  0  0
 49 90  1  0  0  0  0
 50 91  1  0  0  0  0
 55 92  1  0  0  0  0
 57 93  1  0  0  0  0
 57 94  1  0  0  0  0
 57 95  1  0  0  0  0
 60 96  1  0  0  0  0
M  END
