
  xtb     01262216533D
 energy: -174.267710364715 gnorm: 0.000200778294 xtb: 6.4.1 (unknown)
 89100  0     0  0            999 V2000
   -0.8092    5.0810    4.6467 C   0  0  0  0  0  0  0  0  0  0  0  0
   -0.2597    5.8166    5.6550 C   0  0  0  0  0  0  0  0  0  0  0  0
   -0.5930    7.2485    5.8108 C   0  0  0  0  0  0  0  0  0  0  0  0
   -1.3836    7.8877    5.1544 O   0  0  0  0  0  0  0  0  0  0  0  0
    0.2342    7.7320    6.9460 C   0  0  0  0  0  0  0  0  0  0  0  0
    0.2822    8.9830    7.5283 C   0  0  0  0  0  0  0  0  0  0  0  0
    1.1612    9.1812    8.5879 C   0  0  0  0  0  0  0  0  0  0  0  0
    1.2459   10.7252    9.3379 Cl  0  0  0  0  0  0  0  0  0  0  0  0
    1.9766    8.1405    9.0456 C   0  0  0  0  0  0  0  0  0  0  0  0
    3.0532    8.4130   10.3570 Cl  0  0  0  0  0  0  0  0  0  0  0  0
    1.9285    6.8841    8.4507 C   0  0  0  0  0  0  0  0  0  0  0  0
    1.0487    6.6908    7.4045 C   0  0  0  0  0  0  0  0  0  0  0  0
    0.8119    5.4640    6.5951 C   0  0  0  0  0  0  0  0  0  0  0  0
    1.4542    4.4361    6.6562 O   0  0  0  0  0  0  0  0  0  0  0  0
   -0.7121    3.6943    4.4029 C   0  0  0  0  0  0  0  0  0  0  0  0
   -0.6287    2.6089    5.2694 C   0  0  0  0  0  0  0  0  0  0  0  0
   -0.7558    2.7170    6.7499 C   0  0  0  0  0  0  0  0  0  0  0  0
   -1.6188    1.6205    7.3672 C   0  0  0  0  0  0  0  0  0  0  0  0
   -0.5235    1.4046    4.5546 C   0  0  0  0  0  0  0  0  0  0  0  0
   -0.3124   -0.2647    5.0411 S   0  0  0  0  0  0  0  0  0  0  0  0
   -0.2358   -0.7314    3.3800 C   0  0  0  0  0  0  0  0  0  0  0  0
   -0.0392   -1.8874    2.6039 C   0  0  0  0  0  0  0  0  0  0  0  0
    0.3181   -3.2178    2.9246 C   0  0  0  0  0  0  0  0  0  0  0  0
    0.6264   -4.1384    1.8607 C   0  0  0  0  0  0  0  0  0  0  0  0
    1.0246   -5.3154    2.3154 N   0  0  0  0  0  0  0  0  0  0  0  0
    1.0061   -5.2789    3.9332 S   0  0  0  0  0  0  0  0  0  0  0  0
    0.4919   -3.7560    4.1207 N   0  0  0  0  0  0  0  0  0  0  0  0
    0.4136   -3.7405    0.5202 C   0  0  0  0  0  0  0  0  0  0  0  0
    0.4778   -4.4197   -0.7076 C   0  0  0  0  0  0  0  0  0  0  0  0
    0.9619   -5.9605   -1.3271 S   0  0  0  0  0  0  0  0  0  0  0  0
    0.4855   -5.4346   -2.9310 C   0  0  0  0  0  0  0  0  0  0  0  0
    0.5092   -6.0615   -4.1704 C   0  0  0  0  0  0  0  0  0  0  0  0
    1.0576   -7.4349   -4.3802 C   0  0  0  0  0  0  0  0  0  0  0  0
    2.5127   -7.3704   -4.8526 C   0  0  0  0  0  0  0  0  0  0  0  0
    0.0130   -5.2199   -5.1776 C   0  0  0  0  0  0  0  0  0  0  0  0
   -0.4807   -3.6444   -4.5514 S   0  0  0  0  0  0  0  0  0  0  0  0
   -0.0250   -4.1253   -2.9626 C   0  0  0  0  0  0  0  0  0  0  0  0
   -0.0199   -3.5507   -1.6892 C   0  0  0  0  0  0  0  0  0  0  0  0
   -0.3676   -2.3498   -1.1215 N   0  0  0  0  0  0  0  0  0  0  0  0
   -0.0737   -2.4390    0.2236 C   0  0  0  0  0  0  0  0  0  0  0  0
   -0.1313   -1.4725    1.2500 C   0  0  0  0  0  0  0  0  0  0  0  0
   -0.3117   -0.1026    1.1946 N   0  0  0  0  0  0  0  0  0  0  0  0
   -0.3819    0.3420    2.4926 C   0  0  0  0  0  0  0  0  0  0  0  0
   -0.5419    1.5582    3.1609 C   0  0  0  0  0  0  0  0  0  0  0  0
   -0.7513    3.2043    2.7066 S   0  0  0  0  0  0  0  0  0  0  0  0
    0.1624    0.7830    0.1488 C   0  0  0  0  0  0  0  0  0  0  0  0
    1.5607    1.3124    0.4659 C   0  0  0  0  0  0  0  0  0  0  0  0
   -1.3838   -1.5155   -1.7322 C   0  0  0  0  0  0  0  0  0  0  0  0
   -2.6921   -2.2838   -1.9147 C   0  0  0  0  0  0  0  0  0  0  0  0
   -0.0877   -5.5784   -6.5263 C   0  0  0  0  0  0  0  0  0  0  0  0
   -0.5368   -4.8636   -7.6046 C   0  0  0  0  0  0  0  0  0  0  0  0
   -0.5508   -5.4608   -8.9509 C   0  0  0  0  0  0  0  0  0  0  0  0
   -0.1910   -6.5750   -9.2616 O   0  0  0  0  0  0  0  0  0  0  0  0
   -1.0976   -4.4079   -9.8489 C   0  0  0  0  0  0  0  0  0  0  0  0
   -1.3271   -4.4419  -11.2090 C   0  0  0  0  0  0  0  0  0  0  0  0
   -1.8527   -3.3050  -11.8159 C   0  0  0  0  0  0  0  0  0  0  0  0
   -2.1525   -3.3135  -13.5081 Cl  0  0  0  0  0  0  0  0  0  0  0  0
   -2.1387   -2.1605  -11.0650 C   0  0  0  0  0  0  0  0  0  0  0  0
   -2.7857   -0.7695  -11.8403 Cl  0  0  0  0  0  0  0  0  0  0  0  0
   -1.9063   -2.1318   -9.6936 C   0  0  0  0  0  0  0  0  0  0  0  0
   -1.3858   -3.2625   -9.0974 C   0  0  0  0  0  0  0  0  0  0  0  0
   -1.0501   -3.5021   -7.6689 C   0  0  0  0  0  0  0  0  0  0  0  0
   -1.1916   -2.7052   -6.7586 O   0  0  0  0  0  0  0  0  0  0  0  0
   -1.3682    5.6532    3.9102 H   0  0  0  0  0  0  0  0  0  0  0  0
   -0.3425    9.7865    7.1710 H   0  0  0  0  0  0  0  0  0  0  0  0
    2.5605    6.0831    8.8005 H   0  0  0  0  0  0  0  0  0  0  0  0
    0.2487    2.6862    7.1847 H   0  0  0  0  0  0  0  0  0  0  0  0
   -1.1778    3.6951    6.9924 H   0  0  0  0  0  0  0  0  0  0  0  0
   -2.5866    1.5699    6.8727 H   0  0  0  0  0  0  0  0  0  0  0  0
   -1.1386    0.6491    7.2918 H   0  0  0  0  0  0  0  0  0  0  0  0
   -1.7811    1.8379    8.4198 H   0  0  0  0  0  0  0  0  0  0  0  0
    0.4582   -7.9805   -5.1102 H   0  0  0  0  0  0  0  0  0  0  0  0
    1.0134   -7.9707   -3.4299 H   0  0  0  0  0  0  0  0  0  0  0  0
    2.5863   -6.8465   -5.8027 H   0  0  0  0  0  0  0  0  0  0  0  0
    2.9077   -8.3750   -4.9777 H   0  0  0  0  0  0  0  0  0  0  0  0
    3.1230   -6.8467   -4.1206 H   0  0  0  0  0  0  0  0  0  0  0  0
    0.2078    0.2383   -0.7918 H   0  0  0  0  0  0  0  0  0  0  0  0
   -0.5401    1.6172    0.0570 H   0  0  0  0  0  0  0  0  0  0  0  0
    1.5607    1.8965    1.3818 H   0  0  0  0  0  0  0  0  0  0  0  0
    1.9007    1.9472   -0.3473 H   0  0  0  0  0  0  0  0  0  0  0  0
    2.2581    0.4851    0.5795 H   0  0  0  0  0  0  0  0  0  0  0  0
   -1.5767   -0.6595   -1.0880 H   0  0  0  0  0  0  0  0  0  0  0  0
   -1.0184   -1.1738   -2.7055 H   0  0  0  0  0  0  0  0  0  0  0  0
   -3.4481   -1.6170   -2.3190 H   0  0  0  0  0  0  0  0  0  0  0  0
   -3.0394   -2.6691   -0.9582 H   0  0  0  0  0  0  0  0  0  0  0  0
   -2.5643   -3.1139   -2.6031 H   0  0  0  0  0  0  0  0  0  0  0  0
    0.2404   -6.5845   -6.7695 H   0  0  0  0  0  0  0  0  0  0  0  0
   -1.1065   -5.3248  -11.7881 H   0  0  0  0  0  0  0  0  0  0  0  0
   -2.1275   -1.2489   -9.1147 H   0  0  0  0  0  0  0  0  0  0  0  0
  1  2  2  0  0  0  0
  2  3  1  0  0  0  0
  3  4  2  0  0  0  0
  3  5  1  0  0  0  0
  5  6  2  0  0  0  0
  6  7  1  0  0  0  0
  7  8  1  0  0  0  0
  7  9  2  0  0  0  0
  9 10  1  0  0  0  0
  9 11  1  0  0  0  0
 11 12  2  0  0  0  0
 12 13  1  0  0  0  0
 13 14  2  0  0  0  0
  1 15  1  0  0  0  0
 15 16  2  0  0  0  0
 16 17  1  0  0  0  0
 17 18  1  0  0  0  0
 16 19  1  0  0  0  0
 19 20  1  0  0  0  0
 20 21  1  0  0  0  0
 21 22  1  0  0  0  0
 22 23  1  0  0  0  0
 23 24  1  0  0  0  0
 24 25  2  0  0  0  0
 25 26  1  0  0  0  0
 26 27  1  0  0  0  0
 24 28  1  0  0  0  0
 28 29  1  0  0  0  0
 29 30  1  0  0  0  0
 30 31  1  0  0  0  0
 31 32  1  0  0  0  0
 32 33  1  0  0  0  0
 33 34  1  0  0  0  0
 32 35  2  0  0  0  0
 35 36  1  0  0  0  0
 36 37  1  0  0  0  0
 37 38  1  0  0  0  0
 38 39  1  0  0  0  0
 39 40  1  0  0  0  0
 40 41  1  0  0  0  0
 41 42  1  0  0  0  0
 42 43  1  0  0  0  0
 43 44  1  0  0  0  0
 44 45  1  0  0  0  0
 42 46  1  0  0  0  0
 46 47  1  0  0  0  0
 39 48  1  0  0  0  0
 48 49  1  0  0  0  0
 35 50  1  0  0  0  0
 50 51  2  0  0  0  0
 51 52  1  0  0  0  0
 52 53  2  0  0  0  0
 52 54  1  0  0  0  0
 54 55  2  0  0  0  0
 55 56  1  0  0  0  0
 56 57  1  0  0  0  0
 56 58  2  0  0  0  0
 58 59  1  0  0  0  0
 58 60  1  0  0  0  0
 60 61  2  0  0  0  0
 61 62  1  0  0  0  0
 62 63  2  0  0  0  0
 13  2  1  0  0  0  0
 45 15  1  0  0  0  0
 62 51  1  0  0  0  0
 12  5  1  0  0  0  0
 44 19  2  0  0  0  0
 61 54  1  0  0  0  0
 43 21  2  0  0  0  0
 41 22  2  0  0  0  0
 27 23  2  0  0  0  0
 40 28  2  0  0  0  0
 38 29  2  0  0  0  0
 37 31  2  0  0  0  0
  1 64  1  0  0  0  0
  6 65  1  0  0  0  0
 11 66  1  0  0  0  0
 17 67  1  0  0  0  0
 17 68  1  0  0  0  0
 18 69  1  0  0  0  0
 18 70  1  0  0  0  0
 18 71  1  0  0  0  0
 33 72  1  0  0  0  0
 33 73  1  0  0  0  0
 34 74  1  0  0  0  0
 34 75  1  0  0  0  0
 34 76  1  0  0  0  0
 46 77  1  0  0  0  0
 46 78  1  0  0  0  0
 47 79  1  0  0  0  0
 47 80  1  0  0  0  0
 47 81  1  0  0  0  0
 48 82  1  0  0  0  0
 48 83  1  0  0  0  0
 49 84  1  0  0  0  0
 49 85  1  0  0  0  0
 49 86  1  0  0  0  0
 50 87  1  0  0  0  0
 55 88  1  0  0  0  0
 60 89  1  0  0  0  0
M  END
