66

C          0.22350        1.19890       -3.33980
C          0.69030        2.47320       -3.25760
C          0.97460        3.37800       -2.12670
O          0.87160        3.18310       -0.93570
C          1.43350        4.65350       -2.74090
C          1.81660        5.82240       -2.11200
C          2.20740        6.89590       -2.90390
Cl         2.68910        8.36660       -2.15690
C          2.21130        6.79170       -4.30040
Cl         2.69800        8.13580       -5.25380
C          1.82640        5.61190       -4.92720
C          1.43890        4.54880       -4.13470
C          0.98110        3.19320       -4.52550
O          0.86490        2.75860       -5.64780
C         -0.16490        0.23410       -2.35910
C         -0.06930        0.36130       -0.98410
C         -0.49570       -0.64850       -0.09970
C         -1.06400       -1.86950       -0.53930
C         -1.15220       -2.01890       -1.94670
C         -0.70960       -0.99700       -2.83170
N         -0.92230       -1.43190       -4.07810
N         -1.44840       -2.61670       -3.92330
C         -1.77890       -3.44600       -5.04630
C         -0.59630       -4.33670       -5.41590
N         -1.61320       -3.02760       -2.69510
C         -1.50760       -2.86210        0.35520
C         -1.38330       -2.73940        1.72500
C         -0.84790       -1.51550        2.20220
N         -0.68560       -1.04820        3.44600
N         -0.16320        0.13360        3.27810
C          0.18570        0.96800        4.39200
C         -0.61560        2.26380        4.35770
N          0.02780        0.52390        2.04920
C         -0.40750       -0.49840        1.30780
C         -1.79600       -3.79520        2.61110
C         -1.20610       -4.14900        3.77360
C          0.09380       -3.71730        4.33480
O          0.97700       -3.09300        3.79620
C          0.15530       -4.33270        5.68860
C          1.12400       -4.19030        6.66320
C          0.96840       -4.89040        7.85410
Cl         2.15040       -4.72900        9.09060
C         -0.13770       -5.72530        8.05530
Cl        -0.30040       -6.58380        9.53460
C         -1.10640       -5.87110        7.06900
C         -0.94940       -5.16840        5.88940
C         -1.82170       -5.14080        4.68890
O         -2.83200       -5.77670        4.50090
H          0.10740        0.83900       -4.36010
H          1.81170        5.90050       -1.03630
H          1.83010        5.53110       -6.00260
H          0.33590        1.25950       -0.54570
H         -2.64120       -4.05360       -4.76540
H         -2.03520       -2.78570       -5.87670
H         -0.85720       -4.96270       -6.26410
H         -0.33100       -4.97500       -4.57650
H          0.26410       -3.72720       -5.68120
H         -1.91710       -3.76620       -0.07060
H          1.25500        1.18890        4.33210
H         -0.01930        0.38890        5.29380
H         -1.67930        2.05720        4.44960
H         -0.43720        2.77850        3.41730
H         -0.31250        2.90790        5.17790
H         -2.67340       -4.36380        2.31710
H          1.97840       -3.55080        6.50620
H         -1.95640       -6.51740        7.22100
