88

C          1.23350       -5.37560       -7.75690
C          1.37120       -4.72560       -8.95890
C          1.45920       -3.27250       -9.13480
O          1.42340       -2.41670       -8.25940
C          1.60170       -3.07490      -10.56840
S          1.76620       -1.73950      -11.62740
C          1.83220       -2.83730      -12.97930
Cl         2.00580       -2.23330      -14.56110
C          1.73280       -4.15780      -12.62880
C          1.60030       -4.29200      -11.23670
C          1.45480       -5.36100      -10.26180
C          1.40050       -6.69300      -10.57710
C          1.48760       -7.14230      -11.91220
N          1.55910       -7.53220      -12.98880
C          1.25120       -7.75570       -9.66370
N          1.12750       -8.67080       -8.98090
C          1.11140       -4.87670       -6.45400
C          0.96430       -5.74340       -5.36690
C          0.81590       -5.12630       -4.14020
S          0.60470       -5.80430       -2.53510
C          0.52470       -4.19900       -1.90060
C          0.37820       -3.54560       -0.67000
C          0.31610       -4.05210        0.64730
C          0.24160       -3.12940        1.74170
N          0.23900       -3.73770        2.91710
S          0.32070       -5.33490        2.66810
N          0.36050       -5.31200        1.05040
C          0.10700       -1.75120        1.46140
C         -0.17430       -0.66900        2.30540
C         -0.38620        0.44580        1.48550
N         -0.21850        0.09410        0.17340
C         -0.62360        1.01530       -0.86120
C          0.44030        2.08240       -1.12010
C          0.10410       -1.24890        0.12630
C          0.37090       -2.14410       -0.94200
N          0.56040       -1.96270       -2.30160
C          0.64990       -3.20490       -2.87780
C          0.82990       -3.71510       -4.16480
Se         1.07570       -3.06060       -5.89380
C          1.12600       -0.85220       -3.03570
C          2.65090       -0.93950       -3.07340
C         -0.78110        1.57610        2.20910
C         -0.83220        1.29990        3.58890
S         -0.41510       -0.35060        3.98630
C         -1.18950        2.36430        4.40950
C         -1.47220        3.53710        3.73510
Se        -1.27210        3.33610        1.86530
C         -1.87290        4.77820        4.27660
C         -1.60150        5.25680        5.52410
C         -2.45180        6.32010        6.11990
O         -3.27460        6.99760        5.54650
C         -2.11550        6.31920        7.55770
C         -2.69650        7.01750        8.57610
C         -2.22820        6.82970        9.89610
C         -2.79670        7.52310       10.98400
C         -2.34360        7.32700       12.25900
C         -1.29620        6.42110       12.47430
F         -0.86460        6.24030       13.73570
C         -0.70820        5.72440       11.45550
C         -1.16180        5.91460       10.13580
C         -0.57050        5.21230        9.05950
C         -1.03810        5.41530        7.78980
C         -0.61760        4.86130        6.50590
C          0.61020        4.30830        6.23920
C          1.06050        4.04640        4.93050
N          1.46960        3.86880        3.87170
C          1.57540        4.03020        7.22640
N          2.38120        3.77100        8.00190
H          1.20320       -6.45900       -7.80100
H          1.75560       -4.96290      -13.33900
H          0.96390       -6.81310       -5.49270
H         -1.53780        1.51550       -0.51290
H         -0.88280        0.45580       -1.76120
H          0.53970        2.72610       -0.24690
H          0.15140        2.69640       -1.96860
H          1.41410        1.63960       -1.31610
H          0.73070       -0.90340       -4.05890
H          0.83360        0.09210       -2.59500
H          3.05260       -0.08740       -3.61420
H          2.97100       -1.84860       -3.57840
H          3.05620       -0.94060       -2.06350
H         -1.28700        2.27170        5.47790
H         -2.52140        5.39990        3.66490
H         -3.50590        7.70430        8.37840
H         -3.60280        8.21560       10.79310
H         -2.76870        7.84820       13.10200
H          0.09880        5.03760       11.65780
H          0.23080        4.52080        9.26800
