
  xtb     02012216003D
 energy: -279.042669468898 gnorm: 0.000662090481 xtb: 6.4.1 (unknown)
169186  0     0  0            999 V2000
   -1.4387    0.5806   -9.6195 C   0  0  0  0  0  0  0  0  0  0  0  0
   -1.8085   -0.4600  -10.4187 C   0  0  0  0  0  0  0  0  0  0  0  0
   -2.3249   -0.1895  -11.7926 C   0  0  0  0  0  0  0  0  0  0  0  0
   -2.2901    0.8623  -12.3890 O   0  0  0  0  0  0  0  0  0  0  0  0
   -2.9082   -1.4682  -12.1974 C   0  0  0  0  0  0  0  0  0  0  0  0
   -3.7845   -2.0563  -13.5462 S   0  0  0  0  0  0  0  0  0  0  0  0
   -3.8392   -3.6353  -12.8089 C   0  0  0  0  0  0  0  0  0  0  0  0
   -4.6244   -4.9207  -13.6027 Cl  0  0  0  0  0  0  0  0  0  0  0  0
   -3.2082   -3.7039  -11.5963 C   0  0  0  0  0  0  0  0  0  0  0  0
   -2.6787   -2.4509  -11.2437 C   0  0  0  0  0  0  0  0  0  0  0  0
   -1.8751   -1.8861  -10.1733 C   0  0  0  0  0  0  0  0  0  0  0  0
   -1.1108   -2.6262   -9.3085 C   0  0  0  0  0  0  0  0  0  0  0  0
   -0.0858   -2.0928   -8.5017 C   0  0  0  0  0  0  0  0  0  0  0  0
    0.7985   -1.7124   -7.8760 N   0  0  0  0  0  0  0  0  0  0  0  0
   -1.2188   -4.0291   -9.2339 C   0  0  0  0  0  0  0  0  0  0  0  0
   -1.3031   -5.1703   -9.1463 N   0  0  0  0  0  0  0  0  0  0  0  0
   -1.3158    0.6162   -8.2154 C   0  0  0  0  0  0  0  0  0  0  0  0
   -2.2006   -0.4888   -7.1661 S   0  0  0  0  0  0  0  0  0  0  0  0
   -1.5185    0.2600   -5.7886 C   0  0  0  0  0  0  0  0  0  0  0  0
   -1.5204    0.0808   -4.3895 C   0  0  0  0  0  0  0  0  0  0  0  0
   -0.6220    0.9842   -3.8219 C   0  0  0  0  0  0  0  0  0  0  0  0
   -0.0306    1.8937   -4.8717 C   0  0  0  0  0  0  0  0  0  0  0  0
   -0.6628    1.3174   -6.1171 C   0  0  0  0  0  0  0  0  0  0  0  0
   -0.5730    1.5333   -7.4798 C   0  0  0  0  0  0  0  0  0  0  0  0
    1.4771    1.7981   -5.0074 C   0  0  0  0  0  0  0  0  0  0  0  0
    2.1646    2.7987   -5.6823 C   0  0  0  0  0  0  0  0  0  0  0  0
    3.5326    2.7145   -5.8517 C   0  0  0  0  0  0  0  0  0  0  0  0
    4.2468    1.6303   -5.3572 C   0  0  0  0  0  0  0  0  0  0  0  0
    5.7266    1.5202   -5.5849 C   0  0  0  0  0  0  0  0  0  0  0  0
    6.0073    0.8383   -6.9256 C   0  0  0  0  0  0  0  0  0  0  0  0
    3.5512    0.6274   -4.6968 C   0  0  0  0  0  0  0  0  0  0  0  0
    2.1813    0.7052   -4.5257 C   0  0  0  0  0  0  0  0  0  0  0  0
   -0.4754    3.3094   -4.5458 C   0  0  0  0  0  0  0  0  0  0  0  0
   -1.5558    3.9036   -5.1808 C   0  0  0  0  0  0  0  0  0  0  0  0
   -1.9539    5.1817   -4.8319 C   0  0  0  0  0  0  0  0  0  0  0  0
   -1.2920    5.8913   -3.8395 C   0  0  0  0  0  0  0  0  0  0  0  0
   -1.7562    7.2608   -3.4351 C   0  0  0  0  0  0  0  0  0  0  0  0
   -2.8125    7.1629   -2.3323 C   0  0  0  0  0  0  0  0  0  0  0  0
   -0.2198    5.2841   -3.1974 C   0  0  0  0  0  0  0  0  0  0  0  0
    0.1855    4.0101   -3.5444 C   0  0  0  0  0  0  0  0  0  0  0  0
   -0.5235    0.8052   -2.4469 C   0  0  0  0  0  0  0  0  0  0  0  0
    0.4642    1.4832   -1.1889 S   0  0  0  0  0  0  0  0  0  0  0  0
   -0.2439    0.3763   -0.0602 C   0  0  0  0  0  0  0  0  0  0  0  0
   -0.0425    0.0663    1.3197 C   0  0  0  0  0  0  0  0  0  0  0  0
    0.8690    0.5673    2.2448 C   0  0  0  0  0  0  0  0  0  0  0  0
    0.8516    0.0174    3.5055 C   0  0  0  0  0  0  0  0  0  0  0  0
    1.7727    0.3271    4.6743 C   0  0  0  0  0  0  0  0  0  0  0  0
    3.1882    0.0101    4.2225 C   0  0  0  0  0  0  0  0  0  0  0  0
    3.9471    0.9807    3.5805 C   0  0  0  0  0  0  0  0  0  0  0  0
    5.2130    0.6852    3.1116 C   0  0  0  0  0  0  0  0  0  0  0  0
    5.7519   -0.5860    3.2628 C   0  0  0  0  0  0  0  0  0  0  0  0
    7.1445   -0.8930    2.7932 C   0  0  0  0  0  0  0  0  0  0  0  0
    8.1567   -0.6192    3.9073 C   0  0  0  0  0  0  0  0  0  0  0  0
    4.9869   -1.5537    3.8995 C   0  0  0  0  0  0  0  0  0  0  0  0
    3.7188   -1.2639    4.3685 C   0  0  0  0  0  0  0  0  0  0  0  0
    1.6548    1.7368    5.2189 C   0  0  0  0  0  0  0  0  0  0  0  0
    0.5873    2.5616    4.8981 C   0  0  0  0  0  0  0  0  0  0  0  0
    0.4936    3.8292    5.4455 C   0  0  0  0  0  0  0  0  0  0  0  0
    1.4552    4.3003    6.3280 C   0  0  0  0  0  0  0  0  0  0  0  0
    1.3329    5.6610    6.9509 C   0  0  0  0  0  0  0  0  0  0  0  0
    0.5999    5.5724    8.2909 C   0  0  0  0  0  0  0  0  0  0  0  0
    2.5130    3.4625    6.6601 C   0  0  0  0  0  0  0  0  0  0  0  0
    2.6119    2.1972    6.1161 C   0  0  0  0  0  0  0  0  0  0  0  0
    1.2458   -0.6311    5.7123 C   0  0  0  0  0  0  0  0  0  0  0  0
    0.1861   -1.3802    5.1946 C   0  0  0  0  0  0  0  0  0  0  0  0
   -0.0585   -1.0146    3.8361 C   0  0  0  0  0  0  0  0  0  0  0  0
   -0.9697   -1.5169    2.9081 C   0  0  0  0  0  0  0  0  0  0  0  0
   -0.9526   -0.9677    1.6488 C   0  0  0  0  0  0  0  0  0  0  0  0
   -1.7979   -1.3485    0.4448 C   0  0  0  0  0  0  0  0  0  0  0  0
   -1.6371   -2.8292    0.1624 C   0  0  0  0  0  0  0  0  0  0  0  0
   -0.6580   -3.2940   -0.7036 C   0  0  0  0  0  0  0  0  0  0  0  0
   -0.5162   -4.6492   -0.9392 C   0  0  0  0  0  0  0  0  0  0  0  0
   -1.3394   -5.5728   -0.3101 C   0  0  0  0  0  0  0  0  0  0  0  0
   -1.1613   -7.0457   -0.5399 C   0  0  0  0  0  0  0  0  0  0  0  0
   -0.1811   -7.6312    0.4786 C   0  0  0  0  0  0  0  0  0  0  0  0
   -2.3027   -5.1034    0.5737 C   0  0  0  0  0  0  0  0  0  0  0  0
   -2.4521   -3.7503    0.8083 C   0  0  0  0  0  0  0  0  0  0  0  0
   -3.2626   -0.9647    0.5818 C   0  0  0  0  0  0  0  0  0  0  0  0
   -3.7127   -0.1210    1.5862 C   0  0  0  0  0  0  0  0  0  0  0  0
   -5.0481    0.2345    1.6534 C   0  0  0  0  0  0  0  0  0  0  0  0
   -5.9616   -0.2334    0.7193 C   0  0  0  0  0  0  0  0  0  0  0  0
   -7.4016    0.1886    0.7730 C   0  0  0  0  0  0  0  0  0  0  0  0
   -7.6123    1.4742   -0.0294 C   0  0  0  0  0  0  0  0  0  0  0  0
   -5.5009   -1.0641   -0.2947 C   0  0  0  0  0  0  0  0  0  0  0  0
   -4.1700   -1.4258   -0.3646 C   0  0  0  0  0  0  0  0  0  0  0  0
   -1.2046   -0.4542   -0.6109 C   0  0  0  0  0  0  0  0  0  0  0  0
   -1.3654   -0.2244   -1.9752 C   0  0  0  0  0  0  0  0  0  0  0  0
   -2.2824   -0.9735   -3.2455 S   0  0  0  0  0  0  0  0  0  0  0  0
   -0.4796   -2.4818    6.3170 S   0  0  0  0  0  0  0  0  0  0  0  0
    0.6761   -1.9430    7.5284 C   0  0  0  0  0  0  0  0  0  0  0  0
    1.5206   -0.9418    7.0248 C   0  0  0  0  0  0  0  0  0  0  0  0
    0.7944   -2.4173    8.8407 C   0  0  0  0  0  0  0  0  0  0  0  0
    0.0859   -3.3747    9.5209 C   0  0  0  0  0  0  0  0  0  0  0  0
   -1.0418   -4.1649    8.9889 C   0  0  0  0  0  0  0  0  0  0  0  0
   -1.5293   -4.1148    7.8755 O   0  0  0  0  0  0  0  0  0  0  0  0
   -1.4425   -5.0215   10.1018 C   0  0  0  0  0  0  0  0  0  0  0  0
   -2.6341   -6.2201   10.3694 S   0  0  0  0  0  0  0  0  0  0  0  0
   -2.0509   -6.4162   12.0006 C   0  0  0  0  0  0  0  0  0  0  0  0
   -2.7883   -7.5456   13.0403 Cl  0  0  0  0  0  0  0  0  0  0  0  0
   -0.9974   -5.6013   12.3154 C   0  0  0  0  0  0  0  0  0  0  0  0
   -0.6486   -4.7966   11.2162 C   0  0  0  0  0  0  0  0  0  0  0  0
    0.3283   -3.7696   10.8963 C   0  0  0  0  0  0  0  0  0  0  0  0
    1.2760   -3.3078   11.7728 C   0  0  0  0  0  0  0  0  0  0  0  0
    1.3731   -3.8061   13.0891 C   0  0  0  0  0  0  0  0  0  0  0  0
    1.4760   -4.1957   14.1636 N   0  0  0  0  0  0  0  0  0  0  0  0
    2.2449   -2.3202   11.5080 C   0  0  0  0  0  0  0  0  0  0  0  0
    3.0641   -1.5267   11.3692 N   0  0  0  0  0  0  0  0  0  0  0  0
   -1.2826    1.5253  -10.1320 H   0  0  0  0  0  0  0  0  0  0  0  0
   -3.1443   -4.5991  -11.0064 H   0  0  0  0  0  0  0  0  0  0  0  0
    0.0338    2.2868   -7.9483 H   0  0  0  0  0  0  0  0  0  0  0  0
    1.6249    3.6519   -6.0682 H   0  0  0  0  0  0  0  0  0  0  0  0
    4.0543    3.5033   -6.3749 H   0  0  0  0  0  0  0  0  0  0  0  0
    6.1772    2.5151   -5.5853 H   0  0  0  0  0  0  0  0  0  0  0  0
    6.1831    0.9380   -4.7819 H   0  0  0  0  0  0  0  0  0  0  0  0
    5.5674   -0.1561   -6.9425 H   0  0  0  0  0  0  0  0  0  0  0  0
    5.5760    1.4148   -7.7407 H   0  0  0  0  0  0  0  0  0  0  0  0
    7.0786    0.7493   -7.0910 H   0  0  0  0  0  0  0  0  0  0  0  0
    4.0864   -0.2284   -4.3114 H   0  0  0  0  0  0  0  0  0  0  0  0
    1.6618   -0.0930   -4.0165 H   0  0  0  0  0  0  0  0  0  0  0  0
   -2.0886    3.3723   -5.9557 H   0  0  0  0  0  0  0  0  0  0  0  0
   -2.7921    5.6340   -5.3427 H   0  0  0  0  0  0  0  0  0  0  0  0
   -0.9095    7.8462   -3.0713 H   0  0  0  0  0  0  0  0  0  0  0  0
   -2.1837    7.7764   -4.2973 H   0  0  0  0  0  0  0  0  0  0  0  0
   -2.4018    6.6613   -1.4588 H   0  0  0  0  0  0  0  0  0  0  0  0
   -3.6714    6.5934   -2.6806 H   0  0  0  0  0  0  0  0  0  0  0  0
   -3.1487    8.1545   -2.0385 H   0  0  0  0  0  0  0  0  0  0  0  0
    0.3073    5.8162   -2.4186 H   0  0  0  0  0  0  0  0  0  0  0  0
    1.0274    3.5563   -3.0418 H   0  0  0  0  0  0  0  0  0  0  0  0
    1.5628    1.3469    1.9701 H   0  0  0  0  0  0  0  0  0  0  0  0
    3.5495    1.9777    3.4561 H   0  0  0  0  0  0  0  0  0  0  0  0
    5.7899    1.4534    2.6164 H   0  0  0  0  0  0  0  0  0  0  0  0
    7.2117   -1.9415    2.4957 H   0  0  0  0  0  0  0  0  0  0  0  0
    7.3876   -0.2751    1.9264 H   0  0  0  0  0  0  0  0  0  0  0  0
    9.1658   -0.8411    3.5680 H   0  0  0  0  0  0  0  0  0  0  0  0
    7.9384   -1.2363    4.7760 H   0  0  0  0  0  0  0  0  0  0  0  0
    8.1131    0.4247    4.2100 H   0  0  0  0  0  0  0  0  0  0  0  0
    5.3852   -2.5504    4.0261 H   0  0  0  0  0  0  0  0  0  0  0  0
    3.1405   -2.0378    4.8517 H   0  0  0  0  0  0  0  0  0  0  0  0
   -0.1748    2.2172    4.2141 H   0  0  0  0  0  0  0  0  0  0  0  0
   -0.3410    4.4622    5.1787 H   0  0  0  0  0  0  0  0  0  0  0  0
    0.7831    6.3269    6.2828 H   0  0  0  0  0  0  0  0  0  0  0  0
    2.3267    6.0835    7.1133 H   0  0  0  0  0  0  0  0  0  0  0  0
   -0.3988    5.1651    8.1491 H   0  0  0  0  0  0  0  0  0  0  0  0
    1.1398    4.9220    8.9753 H   0  0  0  0  0  0  0  0  0  0  0  0
    0.5129    6.5576    8.7431 H   0  0  0  0  0  0  0  0  0  0  0  0
    3.2696    3.8071    7.3504 H   0  0  0  0  0  0  0  0  0  0  0  0
    3.4461    1.5626    6.3780 H   0  0  0  0  0  0  0  0  0  0  0  0
   -1.6476   -2.3118    3.1772 H   0  0  0  0  0  0  0  0  0  0  0  0
   -0.0014   -2.5960   -1.2028 H   0  0  0  0  0  0  0  0  0  0  0  0
    0.2433   -4.9923   -1.6271 H   0  0  0  0  0  0  0  0  0  0  0  0
   -2.1233   -7.5535   -0.4458 H   0  0  0  0  0  0  0  0  0  0  0  0
   -0.7799   -7.2195   -1.5480 H   0  0  0  0  0  0  0  0  0  0  0  0
   -0.5499   -7.4776    1.4904 H   0  0  0  0  0  0  0  0  0  0  0  0
    0.7889   -7.1467    0.3917 H   0  0  0  0  0  0  0  0  0  0  0  0
   -0.0531   -8.6984    0.3131 H   0  0  0  0  0  0  0  0  0  0  0  0
   -2.9495   -5.8057    1.0799 H   0  0  0  0  0  0  0  0  0  0  0  0
   -3.2191   -3.4052    1.4867 H   0  0  0  0  0  0  0  0  0  0  0  0
   -3.0224    0.2579    2.3255 H   0  0  0  0  0  0  0  0  0  0  0  0
   -5.3843    0.8847    2.4487 H   0  0  0  0  0  0  0  0  0  0  0  0
   -7.6993    0.3587    1.8096 H   0  0  0  0  0  0  0  0  0  0  0  0
   -8.0338   -0.6002    0.3605 H   0  0  0  0  0  0  0  0  0  0  0  0
   -7.0005    2.2775    0.3755 H   0  0  0  0  0  0  0  0  0  0  0  0
   -8.6555    1.7792    0.0074 H   0  0  0  0  0  0  0  0  0  0  0  0
   -7.3308    1.3215   -1.0690 H   0  0  0  0  0  0  0  0  0  0  0  0
   -6.1930   -1.4361   -1.0365 H   0  0  0  0  0  0  0  0  0  0  0  0
   -3.8316   -2.0807   -1.1547 H   0  0  0  0  0  0  0  0  0  0  0  0
    2.2904   -0.4915    7.6256 H   0  0  0  0  0  0  0  0  0  0  0  0
    1.5897   -1.9300    9.3929 H   0  0  0  0  0  0  0  0  0  0  0  0
   -0.5189   -5.5947   13.2767 H   0  0  0  0  0  0  0  0  0  0  0  0
  1  2  2  0  0  0  0
  2  3  1  0  0  0  0
  3  4  2  0  0  0  0
  3  5  1  0  0  0  0
  5  6  1  0  0  0  0
  6  7  1  0  0  0  0
  7  8  1  0  0  0  0
  7  9  2  0  0  0  0
  9 10  1  0  0  0  0
 10 11  1  0  0  0  0
 11 12  2  0  0  0  0
 12 13  1  0  0  0  0
 13 14  3  0  0  0  0
 12 15  1  0  0  0  0
 15 16  3  0  0  0  0
  1 17  1  0  0  0  0
 17 18  1  0  0  0  0
 18 19  1  0  0  0  0
 19 20  1  0  0  0  0
 20 21  2  0  0  0  0
 21 22  1  0  0  0  0
 22 23  1  0  0  0  0
 23 24  1  0  0  0  0
 22 25  1  0  0  0  0
 25 26  2  0  0  0  0
 26 27  1  0  0  0  0
 27 28  2  0  0  0  0
 28 29  1  0  0  0  0
 29 30  1  0  0  0  0
 28 31  1  0  0  0  0
 31 32  2  0  0  0  0
 22 33  1  0  0  0  0
 33 34  2  0  0  0  0
 34 35  1  0  0  0  0
 35 36  2  0  0  0  0
 36 37  1  0  0  0  0
 37 38  1  0  0  0  0
 36 39  1  0  0  0  0
 39 40  2  0  0  0  0
 21 41  1  0  0  0  0
 41 42  1  0  0  0  0
 42 43  1  0  0  0  0
 43 44  1  0  0  0  0
 44 45  2  0  0  0  0
 45 46  1  0  0  0  0
 46 47  1  0  0  0  0
 47 48  1  0  0  0  0
 48 49  2  0  0  0  0
 49 50  1  0  0  0  0
 50 51  2  0  0  0  0
 51 52  1  0  0  0  0
 52 53  1  0  0  0  0
 51 54  1  0  0  0  0
 54 55  2  0  0  0  0
 47 56  1  0  0  0  0
 56 57  2  0  0  0  0
 57 58  1  0  0  0  0
 58 59  2  0  0  0  0
 59 60  1  0  0  0  0
 60 61  1  0  0  0  0
 59 62  1  0  0  0  0
 62 63  2  0  0  0  0
 47 64  1  0  0  0  0
 64 65  2  0  0  0  0
 65 66  1  0  0  0  0
 66 67  1  0  0  0  0
 67 68  2  0  0  0  0
 68 69  1  0  0  0  0
 69 70  1  0  0  0  0
 70 71  2  0  0  0  0
 71 72  1  0  0  0  0
 72 73  2  0  0  0  0
 73 74  1  0  0  0  0
 74 75  1  0  0  0  0
 73 76  1  0  0  0  0
 76 77  2  0  0  0  0
 69 78  1  0  0  0  0
 78 79  2  0  0  0  0
 79 80  1  0  0  0  0
 80 81  2  0  0  0  0
 81 82  1  0  0  0  0
 82 83  1  0  0  0  0
 81 84  1  0  0  0  0
 84 85  2  0  0  0  0
 69 86  1  0  0  0  0
 86 87  1  0  0  0  0
 87 88  1  0  0  0  0
 65 89  1  0  0  0  0
 89 90  1  0  0  0  0
 90 91  2  0  0  0  0
 90 92  1  0  0  0  0
 92 93  2  0  0  0  0
 93 94  1  0  0  0  0
 94 95  2  0  0  0  0
 94 96  1  0  0  0  0
 96 97  1  0  0  0  0
 97 98  1  0  0  0  0
 98 99  1  0  0  0  0
 98100  2  0  0  0  0
100101  1  0  0  0  0
101102  1  0  0  0  0
102103  2  0  0  0  0
103104  1  0  0  0  0
104105  3  0  0  0  0
103106  1  0  0  0  0
106107  3  0  0  0  0
 11  2  1  0  0  0  0
 24 17  2  0  0  0  0
 32 25  1  0  0  0  0
 40 33  1  0  0  0  0
 87 41  2  0  0  0  0
102 93  1  0  0  0  0
 10  5  2  0  0  0  0
 23 19  2  0  0  0  0
 86 43  2  0  0  0  0
101 96  2  0  0  0  0
 88 20  1  0  0  0  0
 68 44  1  0  0  0  0
 77 70  1  0  0  0  0
 85 78  1  0  0  0  0
 66 46  2  0  0  0  0
 55 48  1  0  0  0  0
 63 56  1  0  0  0  0
 91 64  1  0  0  0  0
  1108  1  0  0  0  0
  9109  1  0  0  0  0
 24110  1  0  0  0  0
 26111  1  0  0  0  0
 27112  1  0  0  0  0
 29113  1  0  0  0  0
 29114  1  0  0  0  0
 30115  1  0  0  0  0
 30116  1  0  0  0  0
 30117  1  0  0  0  0
 31118  1  0  0  0  0
 32119  1  0  0  0  0
 34120  1  0  0  0  0
 35121  1  0  0  0  0
 37122  1  0  0  0  0
 37123  1  0  0  0  0
 38124  1  0  0  0  0
 38125  1  0  0  0  0
 38126  1  0  0  0  0
 39127  1  0  0  0  0
 40128  1  0  0  0  0
 45129  1  0  0  0  0
 49130  1  0  0  0  0
 50131  1  0  0  0  0
 52132  1  0  0  0  0
 52133  1  0  0  0  0
 53134  1  0  0  0  0
 53135  1  0  0  0  0
 53136  1  0  0  0  0
 54137  1  0  0  0  0
 55138  1  0  0  0  0
 57139  1  0  0  0  0
 58140  1  0  0  0  0
 60141  1  0  0  0  0
 60142  1  0  0  0  0
 61143  1  0  0  0  0
 61144  1  0  0  0  0
 61145  1  0  0  0  0
 62146  1  0  0  0  0
 63147  1  0  0  0  0
 67148  1  0  0  0  0
 71149  1  0  0  0  0
 72150  1  0  0  0  0
 74151  1  0  0  0  0
 74152  1  0  0  0  0
 75153  1  0  0  0  0
 75154  1  0  0  0  0
 75155  1  0  0  0  0
 76156  1  0  0  0  0
 77157  1  0  0  0  0
 79158  1  0  0  0  0
 80159  1  0  0  0  0
 82160  1  0  0  0  0
 82161  1  0  0  0  0
 83162  1  0  0  0  0
 83163  1  0  0  0  0
 83164  1  0  0  0  0
 84165  1  0  0  0  0
 85166  1  0  0  0  0
 91167  1  0  0  0  0
 92168  1  0  0  0  0
100169  1  0  0  0  0
M  END
