
  xtb     02012215363D
 energy: -179.017007485074 gnorm: 0.000560435880 xtb: 6.4.1 (unknown)
102113  0     0  0            999 V2000
    8.4031   -5.0444    3.5658 C   0  0  0  0  0  0  0  0  0  0  0  0
    9.4056   -4.3012    4.1130 C   0  0  0  0  0  0  0  0  0  0  0  0
   10.8074   -4.8127    4.0480 C   0  0  0  0  0  0  0  0  0  0  0  0
   11.1607   -5.9322    3.7578 O   0  0  0  0  0  0  0  0  0  0  0  0
   11.6157   -3.6349    4.3615 C   0  0  0  0  0  0  0  0  0  0  0  0
   13.2859   -3.2606    4.4183 S   0  0  0  0  0  0  0  0  0  0  0  0
   12.8936   -1.6318    4.9010 C   0  0  0  0  0  0  0  0  0  0  0  0
   14.1369   -0.5031    5.1824 Cl  0  0  0  0  0  0  0  0  0  0  0  0
   11.5506   -1.3966    5.0217 C   0  0  0  0  0  0  0  0  0  0  0  0
   10.8168   -2.5515    4.7026 C   0  0  0  0  0  0  0  0  0  0  0  0
    9.4272   -2.9746    4.6939 C   0  0  0  0  0  0  0  0  0  0  0  0
    8.4194   -2.3433    5.3751 C   0  0  0  0  0  0  0  0  0  0  0  0
    8.5939   -1.0722    5.9569 C   0  0  0  0  0  0  0  0  0  0  0  0
    8.7134   -0.0263    6.4140 N   0  0  0  0  0  0  0  0  0  0  0  0
    7.1710   -2.9365    5.6497 C   0  0  0  0  0  0  0  0  0  0  0  0
    6.1686   -3.4113    5.9452 N   0  0  0  0  0  0  0  0  0  0  0  0
    7.1280   -4.6512    3.1110 C   0  0  0  0  0  0  0  0  0  0  0  0
    6.7200   -2.9842    2.7249 S   0  0  0  0  0  0  0  0  0  0  0  0
    5.1768   -3.4741    2.1760 C   0  0  0  0  0  0  0  0  0  0  0  0
    4.0267   -2.8403    1.6203 C   0  0  0  0  0  0  0  0  0  0  0  0
    3.0798   -3.8592    1.3644 C   0  0  0  0  0  0  0  0  0  0  0  0
    3.6187   -5.2027    1.7833 C   0  0  0  0  0  0  0  0  0  0  0  0
    4.9831   -4.8493    2.2795 C   0  0  0  0  0  0  0  0  0  0  0  0
    6.0873   -5.5150    2.7847 C   0  0  0  0  0  0  0  0  0  0  0  0
    1.8687   -3.5623    0.7863 C   0  0  0  0  0  0  0  0  0  0  0  0
    1.6005   -2.2273    0.4807 C   0  0  0  0  0  0  0  0  0  0  0  0
    0.4736   -1.6000   -0.1451 C   0  0  0  0  0  0  0  0  0  0  0  0
    0.6420   -0.2443   -0.1582 C   0  0  0  0  0  0  0  0  0  0  0  0
    1.9727    0.1617    0.4183 C   0  0  0  0  0  0  0  0  0  0  0  0
    2.9279    0.7640   -0.6332 C   0  0  0  0  0  0  0  0  0  0  0  0
    2.4900    2.0840   -1.2516 C   0  0  0  0  0  0  0  0  0  0  0  0
    1.7152    1.0715    1.6377 C   0  0  0  0  0  0  0  0  0  0  0  0
    2.9439    1.5194    2.4180 C   0  0  0  0  0  0  0  0  0  0  0  0
    2.5238   -1.2001    0.8080 C   0  0  0  0  0  0  0  0  0  0  0  0
    3.7538   -1.5020    1.3429 C   0  0  0  0  0  0  0  0  0  0  0  0
   -0.5490    0.3905   -0.6442 C   0  0  0  0  0  0  0  0  0  0  0  0
   -1.4590   -0.6414   -0.9956 C   0  0  0  0  0  0  0  0  0  0  0  0
   -0.8620   -2.0079   -0.7065 C   0  0  0  0  0  0  0  0  0  0  0  0
   -0.7431   -2.7523   -2.0533 C   0  0  0  0  0  0  0  0  0  0  0  0
   -0.0426   -4.1026   -2.0070 C   0  0  0  0  0  0  0  0  0  0  0  0
   -1.6339   -2.7824    0.3817 C   0  0  0  0  0  0  0  0  0  0  0  0
   -3.0555   -3.2028    0.0326 C   0  0  0  0  0  0  0  0  0  0  0  0
   -2.6686   -0.3479   -1.5778 C   0  0  0  0  0  0  0  0  0  0  0  0
   -2.9960    0.9966   -1.7434 C   0  0  0  0  0  0  0  0  0  0  0  0
   -4.1511    1.6198   -2.2993 C   0  0  0  0  0  0  0  0  0  0  0  0
   -4.0325    3.0108   -2.2515 C   0  0  0  0  0  0  0  0  0  0  0  0
   -2.7286    3.3803   -1.6197 C   0  0  0  0  0  0  0  0  0  0  0  0
   -2.1216    2.0304   -1.3353 C   0  0  0  0  0  0  0  0  0  0  0  0
   -0.8938    1.7351   -0.7909 C   0  0  0  0  0  0  0  0  0  0  0  0
   -5.1176    3.6748   -2.7929 C   0  0  0  0  0  0  0  0  0  0  0  0
   -6.0909    2.7977   -3.2671 C   0  0  0  0  0  0  0  0  0  0  0  0
   -5.6148    1.1123   -3.0105 S   0  0  0  0  0  0  0  0  0  0  0  0
   -7.3323    2.9838   -3.8956 C   0  0  0  0  0  0  0  0  0  0  0  0
   -8.0109    4.1091   -4.2866 C   0  0  0  0  0  0  0  0  0  0  0  0
   -7.6027    5.5329   -4.1591 C   0  0  0  0  0  0  0  0  0  0  0  0
   -6.6020    6.0012   -3.6562 O   0  0  0  0  0  0  0  0  0  0  0  0
   -8.6949    6.2751   -4.7855 C   0  0  0  0  0  0  0  0  0  0  0  0
   -9.0415    7.9243   -5.0835 S   0  0  0  0  0  0  0  0  0  0  0  0
  -10.5410    7.4574   -5.8403 C   0  0  0  0  0  0  0  0  0  0  0  0
  -11.5833    8.6457   -6.4737 Cl  0  0  0  0  0  0  0  0  0  0  0  0
  -10.7570    6.1064   -5.8579 C   0  0  0  0  0  0  0  0  0  0  0  0
   -9.6875    5.4263   -5.2475 C   0  0  0  0  0  0  0  0  0  0  0  0
   -9.3063    4.0578   -4.9489 C   0  0  0  0  0  0  0  0  0  0  0  0
  -10.0791    2.9685   -5.2588 C   0  0  0  0  0  0  0  0  0  0  0  0
  -11.3227    3.1070   -5.9120 C   0  0  0  0  0  0  0  0  0  0  0  0
  -12.3361    3.1858   -6.4446 N   0  0  0  0  0  0  0  0  0  0  0  0
   -9.7882    1.6153   -4.9936 C   0  0  0  0  0  0  0  0  0  0  0  0
   -9.6410    0.4900   -4.8149 N   0  0  0  0  0  0  0  0  0  0  0  0
    8.6627   -6.0807    3.3685 H   0  0  0  0  0  0  0  0  0  0  0  0
   11.1338   -0.4505    5.3126 H   0  0  0  0  0  0  0  0  0  0  0  0
    3.6519   -5.9062    0.9484 H   0  0  0  0  0  0  0  0  0  0  0  0
    3.0066   -5.6506    2.5694 H   0  0  0  0  0  0  0  0  0  0  0  0
    6.1552   -6.5763    2.9437 H   0  0  0  0  0  0  0  0  0  0  0  0
    1.1535   -4.3423    0.5794 H   0  0  0  0  0  0  0  0  0  0  0  0
    3.0434    0.0241   -1.4299 H   0  0  0  0  0  0  0  0  0  0  0  0
    3.9056    0.8930   -0.1670 H   0  0  0  0  0  0  0  0  0  0  0  0
    1.5691    1.9611   -1.8146 H   0  0  0  0  0  0  0  0  0  0  0  0
    2.3467    2.8486   -0.4926 H   0  0  0  0  0  0  0  0  0  0  0  0
    3.2604    2.4326   -1.9366 H   0  0  0  0  0  0  0  0  0  0  0  0
    1.1753    1.9530    1.2897 H   0  0  0  0  0  0  0  0  0  0  0  0
    1.0476    0.5300    2.3133 H   0  0  0  0  0  0  0  0  0  0  0  0
    3.6586    2.0303    1.7784 H   0  0  0  0  0  0  0  0  0  0  0  0
    2.6374    2.2120    3.1991 H   0  0  0  0  0  0  0  0  0  0  0  0
    3.4341    0.6762    2.8955 H   0  0  0  0  0  0  0  0  0  0  0  0
    4.4999   -0.7504    1.5470 H   0  0  0  0  0  0  0  0  0  0  0  0
   -1.7474   -2.8823   -2.4586 H   0  0  0  0  0  0  0  0  0  0  0  0
   -0.1988   -2.0978   -2.7395 H   0  0  0  0  0  0  0  0  0  0  0  0
   -0.5464   -4.7871   -1.3294 H   0  0  0  0  0  0  0  0  0  0  0  0
    0.9931   -3.9910   -1.6984 H   0  0  0  0  0  0  0  0  0  0  0  0
   -0.0531   -4.5467   -3.0003 H   0  0  0  0  0  0  0  0  0  0  0  0
   -1.0545   -3.6709    0.6350 H   0  0  0  0  0  0  0  0  0  0  0  0
   -1.6622   -2.1508    1.2737 H   0  0  0  0  0  0  0  0  0  0  0  0
   -3.4569   -3.8094    0.8419 H   0  0  0  0  0  0  0  0  0  0  0  0
   -3.7018   -2.3384   -0.0873 H   0  0  0  0  0  0  0  0  0  0  0  0
   -3.0840   -3.7963   -0.8773 H   0  0  0  0  0  0  0  0  0  0  0  0
   -3.3554   -1.1099   -1.9104 H   0  0  0  0  0  0  0  0  0  0  0  0
   -2.1026    3.9727   -2.2906 H   0  0  0  0  0  0  0  0  0  0  0  0
   -2.8694    3.9601   -0.7049 H   0  0  0  0  0  0  0  0  0  0  0  0
   -0.2231    2.5242   -0.4903 H   0  0  0  0  0  0  0  0  0  0  0  0
   -5.2291    4.7409   -2.8591 H   0  0  0  0  0  0  0  0  0  0  0  0
   -7.8316    2.0470   -4.1150 H   0  0  0  0  0  0  0  0  0  0  0  0
  -11.6305    5.6515   -6.2856 H   0  0  0  0  0  0  0  0  0  0  0  0
  1  2  2  0  0  0  0
  2  3  1  0  0  0  0
  3  4  2  0  0  0  0
  3  5  1  0  0  0  0
  5  6  1  0  0  0  0
  6  7  1  0  0  0  0
  7  8  1  0  0  0  0
  7  9  2  0  0  0  0
  9 10  1  0  0  0  0
 10 11  1  0  0  0  0
 11 12  2  0  0  0  0
 12 13  1  0  0  0  0
 13 14  3  0  0  0  0
 12 15  1  0  0  0  0
 15 16  3  0  0  0  0
  1 17  1  0  0  0  0
 17 18  1  0  0  0  0
 18 19  1  0  0  0  0
 19 20  1  0  0  0  0
 20 21  2  0  0  0  0
 21 22  1  0  0  0  0
 22 23  1  0  0  0  0
 23 24  1  0  0  0  0
 21 25  1  0  0  0  0
 25 26  2  0  0  0  0
 26 27  1  0  0  0  0
 27 28  2  0  0  0  0
 28 29  1  0  0  0  0
 29 30  1  0  0  0  0
 30 31  1  0  0  0  0
 29 32  1  0  0  0  0
 32 33  1  0  0  0  0
 29 34  1  0  0  0  0
 34 35  2  0  0  0  0
 28 36  1  0  0  0  0
 36 37  2  0  0  0  0
 37 38  1  0  0  0  0
 38 39  1  0  0  0  0
 39 40  1  0  0  0  0
 38 41  1  0  0  0  0
 41 42  1  0  0  0  0
 37 43  1  0  0  0  0
 43 44  2  0  0  0  0
 44 45  1  0  0  0  0
 45 46  2  0  0  0  0
 46 47  1  0  0  0  0
 47 48  1  0  0  0  0
 48 49  2  0  0  0  0
 46 50  1  0  0  0  0
 50 51  2  0  0  0  0
 51 52  1  0  0  0  0
 51 53  1  0  0  0  0
 53 54  2  0  0  0  0
 54 55  1  0  0  0  0
 55 56  2  0  0  0  0
 55 57  1  0  0  0  0
 57 58  1  0  0  0  0
 58 59  1  0  0  0  0
 59 60  1  0  0  0  0
 59 61  2  0  0  0  0
 61 62  1  0  0  0  0
 62 63  1  0  0  0  0
 63 64  2  0  0  0  0
 64 65  1  0  0  0  0
 65 66  3  0  0  0  0
 64 67  1  0  0  0  0
 67 68  3  0  0  0  0
 11  2  1  0  0  0  0
 24 17  2  0  0  0  0
 34 26  1  0  0  0  0
 49 36  1  0  0  0  0
 63 54  1  0  0  0  0
 10  5  2  0  0  0  0
 23 19  2  0  0  0  0
 38 27  1  0  0  0  0
 48 44  1  0  0  0  0
 62 57  2  0  0  0  0
 35 20  1  0  0  0  0
 52 45  1  0  0  0  0
  1 69  1  0  0  0  0
  9 70  1  0  0  0  0
 22 71  1  0  0  0  0
 22 72  1  0  0  0  0
 24 73  1  0  0  0  0
 25 74  1  0  0  0  0
 30 75  1  0  0  0  0
 30 76  1  0  0  0  0
 31 77  1  0  0  0  0
 31 78  1  0  0  0  0
 31 79  1  0  0  0  0
 32 80  1  0  0  0  0
 32 81  1  0  0  0  0
 33 82  1  0  0  0  0
 33 83  1  0  0  0  0
 33 84  1  0  0  0  0
 35 85  1  0  0  0  0
 39 86  1  0  0  0  0
 39 87  1  0  0  0  0
 40 88  1  0  0  0  0
 40 89  1  0  0  0  0
 40 90  1  0  0  0  0
 41 91  1  0  0  0  0
 41 92  1  0  0  0  0
 42 93  1  0  0  0  0
 42 94  1  0  0  0  0
 42 95  1  0  0  0  0
 43 96  1  0  0  0  0
 47 97  1  0  0  0  0
 47 98  1  0  0  0  0
 49 99  1  0  0  0  0
 50100  1  0  0  0  0
 53101  1  0  0  0  0
 61102  1  0  0  0  0
M  END
