169

C         -1.43870        0.58060       -9.61950
C         -1.80850       -0.46000      -10.41870
C         -2.32490       -0.18950      -11.79260
O         -2.29010        0.86230      -12.38900
C         -2.90820       -1.46820      -12.19740
S         -3.78450       -2.05630      -13.54620
C         -3.83920       -3.63530      -12.80890
Cl        -4.62440       -4.92070      -13.60270
C         -3.20820       -3.70390      -11.59630
C         -2.67870       -2.45090      -11.24370
C         -1.87510       -1.88610      -10.17330
C         -1.11080       -2.62620       -9.30850
C         -0.08580       -2.09280       -8.50170
N          0.79850       -1.71240       -7.87600
C         -1.21880       -4.02910       -9.23390
N         -1.30310       -5.17030       -9.14630
C         -1.31580        0.61620       -8.21540
S         -2.20060       -0.48880       -7.16610
C         -1.51850        0.26000       -5.78860
C         -1.52040        0.08080       -4.38950
C         -0.62200        0.98420       -3.82190
C         -0.03060        1.89370       -4.87170
C         -0.66280        1.31740       -6.11710
C         -0.57300        1.53330       -7.47980
C          1.47710        1.79810       -5.00740
C          2.16460        2.79870       -5.68230
C          3.53260        2.71450       -5.85170
C          4.24680        1.63030       -5.35720
C          5.72660        1.52020       -5.58490
C          6.00730        0.83830       -6.92560
C          3.55120        0.62740       -4.69680
C          2.18130        0.70520       -4.52570
C         -0.47540        3.30940       -4.54580
C         -1.55580        3.90360       -5.18080
C         -1.95390        5.18170       -4.83190
C         -1.29200        5.89130       -3.83950
C         -1.75620        7.26080       -3.43510
C         -2.81250        7.16290       -2.33230
C         -0.21980        5.28410       -3.19740
C          0.18550        4.01010       -3.54440
C         -0.52350        0.80520       -2.44690
S          0.46420        1.48320       -1.18890
C         -0.24390        0.37630       -0.06020
C         -0.04250        0.06630        1.31970
C          0.86900        0.56730        2.24480
C          0.85160        0.01740        3.50550
C          1.77270        0.32710        4.67430
C          3.18820        0.01010        4.22250
C          3.94710        0.98070        3.58050
C          5.21300        0.68520        3.11160
C          5.75190       -0.58600        3.26280
C          7.14450       -0.89300        2.79320
C          8.15670       -0.61920        3.90730
C          4.98690       -1.55370        3.89950
C          3.71880       -1.26390        4.36850
C          1.65480        1.73680        5.21890
C          0.58730        2.56160        4.89810
C          0.49360        3.82920        5.44550
C          1.45520        4.30030        6.32800
C          1.33290        5.66100        6.95090
C          0.59990        5.57240        8.29090
C          2.51300        3.46250        6.66010
C          2.61190        2.19720        6.11610
C          1.24580       -0.63110        5.71230
C          0.18610       -1.38020        5.19460
C         -0.05850       -1.01460        3.83610
C         -0.96970       -1.51690        2.90810
C         -0.95260       -0.96770        1.64880
C         -1.79790       -1.34850        0.44480
C         -1.63710       -2.82920        0.16240
C         -0.65800       -3.29400       -0.70360
C         -0.51620       -4.64920       -0.93920
C         -1.33940       -5.57280       -0.31010
C         -1.16130       -7.04570       -0.53990
C         -0.18110       -7.63120        0.47860
C         -2.30270       -5.10340        0.57370
C         -2.45210       -3.75030        0.80830
C         -3.26260       -0.96470        0.58180
C         -3.71270       -0.12100        1.58620
C         -5.04810        0.23450        1.65340
C         -5.96160       -0.23340        0.71930
C         -7.40160        0.18860        0.77300
C         -7.61230        1.47420       -0.02940
C         -5.50090       -1.06410       -0.29470
C         -4.17000       -1.42580       -0.36460
C         -1.20460       -0.45420       -0.61090
C         -1.36540       -0.22440       -1.97520
S         -2.28240       -0.97350       -3.24550
S         -0.47960       -2.48180        6.31700
C          0.67610       -1.94300        7.52840
C          1.52060       -0.94180        7.02480
C          0.79440       -2.41730        8.84070
C          0.08590       -3.37470        9.52090
C         -1.04180       -4.16490        8.98890
O         -1.52930       -4.11480        7.87550
C         -1.44250       -5.02150       10.10180
S         -2.63410       -6.22010       10.36940
C         -2.05090       -6.41620       12.00060
Cl        -2.78830       -7.54560       13.04030
C         -0.99740       -5.60130       12.31540
C         -0.64860       -4.79660       11.21620
C          0.32830       -3.76960       10.89630
C          1.27600       -3.30780       11.77280
C          1.37310       -3.80610       13.08910
N          1.47600       -4.19570       14.16360
C          2.24490       -2.32020       11.50800
N          3.06410       -1.52670       11.36920
H         -1.28260        1.52530      -10.13200
H         -3.14430       -4.59910      -11.00640
H          0.03380        2.28680       -7.94830
H          1.62490        3.65190       -6.06820
H          4.05430        3.50330       -6.37490
H          6.17720        2.51510       -5.58530
H          6.18310        0.93800       -4.78190
H          5.56740       -0.15610       -6.94250
H          5.57600        1.41480       -7.74070
H          7.07860        0.74930       -7.09100
H          4.08640       -0.22840       -4.31140
H          1.66180       -0.09300       -4.01650
H         -2.08860        3.37230       -5.95570
H         -2.79210        5.63400       -5.34270
H         -0.90950        7.84620       -3.07130
H         -2.18370        7.77640       -4.29730
H         -2.40180        6.66130       -1.45880
H         -3.67140        6.59340       -2.68060
H         -3.14870        8.15450       -2.03850
H          0.30730        5.81620       -2.41860
H          1.02740        3.55630       -3.04180
H          1.56280        1.34690        1.97010
H          3.54950        1.97770        3.45610
H          5.78990        1.45340        2.61640
H          7.21170       -1.94150        2.49570
H          7.38760       -0.27510        1.92640
H          9.16580       -0.84110        3.56800
H          7.93840       -1.23630        4.77600
H          8.11310        0.42470        4.21000
H          5.38520       -2.55040        4.02610
H          3.14050       -2.03780        4.85170
H         -0.17480        2.21720        4.21410
H         -0.34100        4.46220        5.17870
H          0.78310        6.32690        6.28280
H          2.32670        6.08350        7.11330
H         -0.39880        5.16510        8.14910
H          1.13980        4.92200        8.97530
H          0.51290        6.55760        8.74310
H          3.26960        3.80710        7.35040
H          3.44610        1.56260        6.37800
H         -1.64760       -2.31180        3.17720
H         -0.00140       -2.59600       -1.20280
H          0.24330       -4.99230       -1.62710
H         -2.12330       -7.55350       -0.44580
H         -0.77990       -7.21950       -1.54800
H         -0.54990       -7.47760        1.49040
H          0.78890       -7.14670        0.39170
H         -0.05310       -8.69840        0.31310
H         -2.94950       -5.80570        1.07990
H         -3.21910       -3.40520        1.48670
H         -3.02240        0.25790        2.32550
H         -5.38430        0.88470        2.44870
H         -7.69930        0.35870        1.80960
H         -8.03380       -0.60020        0.36050
H         -7.00050        2.27750        0.37550
H         -8.65550        1.77920        0.00740
H         -7.33080        1.32150       -1.06900
H         -6.19300       -1.43610       -1.03650
H         -3.83160       -2.08070       -1.15470
H          2.29040       -0.49150        7.62560
H          1.58970       -1.93000        9.39290
H         -0.51890       -5.59470       13.27670
