97

C         -2.29050       -1.71550       -7.81600
C         -2.74110       -2.99040       -8.02930
C         -2.37470       -4.18380       -7.22700
O         -1.70150       -4.23110       -6.21670
C         -2.92890       -5.30470       -7.98440
S         -2.95870       -7.00800       -7.81590
C         -3.84380       -7.12880       -9.31340
Cl        -4.31280       -8.65530       -9.90520
C         -4.09590       -5.92220       -9.90710
C         -3.56330       -4.87160       -9.13850
C         -3.48830       -3.42380       -9.19710
C         -4.08900       -2.64790      -10.15270
C         -4.11050       -1.23870      -10.16920
N         -4.19160       -0.09520      -10.23320
C         -4.79710       -3.21770      -11.23180
N         -5.37170       -3.66230      -12.11980
C         -1.63900       -1.18730       -6.68330
S         -0.44720        0.07640       -7.06060
C          0.00790        0.13850       -5.41720
C          0.91720        0.80120       -4.57820
C          1.97310        1.70050       -4.84790
C          2.81490        2.13530       -3.76770
N          3.79680        2.92170       -4.17900
S          3.67150        3.10660       -5.78170
N          2.35990        2.18900       -6.01570
C          2.48490        1.75260       -2.44800
C          3.01140        2.11500       -1.19950
S          4.30860        3.05380       -0.54340
C          3.73340        2.66750        1.06930
C          4.19240        3.00650        2.33460
C          5.36020        3.91130        2.55450
C          4.89710        5.35610        2.76200
C          3.38700        2.44010        3.34000
S          2.06150        1.48230        2.67400
C          2.58860        1.85230        1.07690
C          2.18570        1.54050       -0.22310
N          1.18600        0.81940       -0.81980
C          1.36060        0.91730       -2.18520
C          0.66300        0.32760       -3.26390
N         -0.32590       -0.64830       -3.30790
C         -0.74990       -0.73140       -4.62180
C         -1.73710       -1.45010       -5.31620
C         -2.85530       -2.17320       -4.63000
C         -4.23190       -1.86370       -5.21620
C         -0.38460       -1.84250       -2.47220
C          0.98560       -2.29060       -1.97610
C         -0.02990        0.53360       -0.09230
C         -0.78290        1.82000        0.24260
C          3.63220        2.62860        4.70350
C          2.98050        2.14420        5.81240
C          1.82950        1.23820        5.81000
O          1.22210        0.80980        4.84120
C          1.54410        0.92940        7.21910
C          0.58690        0.10760        7.73820
C          0.50490       -0.05260        9.13990
C         -0.45730       -0.89100        9.73540
C         -0.51490       -1.03380       11.09550
C          0.38670       -0.34340       11.91840
C          1.33340        0.47940       11.37080
C          1.42140        0.64870        9.97440
C          2.40110        1.49590        9.40530
C          2.46420        1.63610        8.04490
C          3.35310        2.41510        7.18660
C          4.34170        3.25650        7.63380
C          5.19400        4.03460        6.82500
N          5.92370        4.70140        6.23800
C          4.63820        3.47200        8.99550
N          4.93320        3.69560       10.08260
H         -2.35510       -1.02690       -8.65130
H         -4.62550       -5.81500      -10.83500
H          5.99770        3.86520        1.66920
H          5.94850        3.59340        3.41640
H          4.26500        5.43530        3.64310
H          4.33570        5.70150        1.89700
H          5.75940        6.00160        2.90070
H         -2.85800       -1.86960       -3.58140
H         -2.67670       -3.25160       -4.67290
H         -4.34650       -2.27800       -6.21280
H         -4.38860       -0.78870       -5.27210
H         -5.00170       -2.29300       -4.57920
H         -1.07170       -1.70570       -1.63010
H         -0.79020       -2.63660       -3.10130
H          1.41560       -1.59110       -1.26630
H          1.66810       -2.39810       -2.81610
H          0.88550       -3.25630       -1.48780
H         -0.66780       -0.10150       -0.69820
H          0.23820        0.01110        0.83080
H         -1.02720        2.36310       -0.66810
H         -0.18340        2.46080        0.88330
H         -1.70400        1.57780        0.76490
H          4.49010        3.25740        4.89890
H         -0.09820       -0.41640        7.08820
H         -1.14900       -1.42030        9.09630
H         -1.25520       -1.67950       11.54390
H          0.32810       -0.46670       12.98950
H          2.02990        1.01330       12.00060
H          3.08030        2.00980       10.06640
