
  xtb     01212212573D
 energy: -259.722812638365 gnorm: 0.000282028196 xtb: 6.4.1 (unknown)
154170  0     0  0            999 V2000
   -0.6312    1.9866    9.1334 C   0  0  0  0  0  0  0  0  0  0  0  0
    0.3286    2.6346    9.8689 C   0  0  0  0  0  0  0  0  0  0  0  0
    1.6105    3.1528    9.3541 C   0  0  0  0  0  0  0  0  0  0  0  0
    2.0283    3.1053    8.2120 O   0  0  0  0  0  0  0  0  0  0  0  0
    2.2630    3.7366   10.5219 C   0  0  0  0  0  0  0  0  0  0  0  0
    3.7435    4.5339   10.8394 S   0  0  0  0  0  0  0  0  0  0  0  0
    3.2876    4.6842   12.5152 C   0  0  0  0  0  0  0  0  0  0  0  0
    4.3367    5.4445   13.6200 Cl  0  0  0  0  0  0  0  0  0  0  0  0
    2.0622    4.1487   12.8076 C   0  0  0  0  0  0  0  0  0  0  0  0
    1.4730    3.6022   11.6539 C   0  0  0  0  0  0  0  0  0  0  0  0
    0.2453    2.9150   11.2902 C   0  0  0  0  0  0  0  0  0  0  0  0
   -0.7597    2.6118   12.1720 C   0  0  0  0  0  0  0  0  0  0  0  0
   -1.9600    1.9412   11.8659 C   0  0  0  0  0  0  0  0  0  0  0  0
   -2.9585    1.3994   11.6944 N   0  0  0  0  0  0  0  0  0  0  0  0
   -0.6770    2.9586   13.5371 C   0  0  0  0  0  0  0  0  0  0  0  0
   -0.6348    3.2289   14.6515 N   0  0  0  0  0  0  0  0  0  0  0  0
   -0.6667    1.6337    7.7793 C   0  0  0  0  0  0  0  0  0  0  0  0
   -1.7531    0.9370    7.2264 C   0  0  0  0  0  0  0  0  0  0  0  0
   -1.5764    0.6471    5.8946 C   0  0  0  0  0  0  0  0  0  0  0  0
   -2.3738   -0.0209    4.7962 C   0  0  0  0  0  0  0  0  0  0  0  0
   -2.7355   -1.4717    5.0361 C   0  0  0  0  0  0  0  0  0  0  0  0
   -3.6730   -2.0763    4.2072 C   0  0  0  0  0  0  0  0  0  0  0  0
   -4.0015   -3.4066    4.3762 C   0  0  0  0  0  0  0  0  0  0  0  0
   -3.4059   -4.1663    5.3756 C   0  0  0  0  0  0  0  0  0  0  0  0
   -3.8147   -5.5937    5.5976 C   0  0  0  0  0  0  0  0  0  0  0  0
   -5.0231   -5.6598    6.5342 C   0  0  0  0  0  0  0  0  0  0  0  0
   -2.4644   -3.5583    6.1946 C   0  0  0  0  0  0  0  0  0  0  0  0
   -2.1243   -2.2280    6.0245 C   0  0  0  0  0  0  0  0  0  0  0  0
   -3.6174    0.8282    4.5724 C   0  0  0  0  0  0  0  0  0  0  0  0
   -3.6699    1.8079    3.5920 C   0  0  0  0  0  0  0  0  0  0  0  0
   -4.7972    2.5966    3.4517 C   0  0  0  0  0  0  0  0  0  0  0  0
   -5.8917    2.4358    4.2897 C   0  0  0  0  0  0  0  0  0  0  0  0
   -7.1263    3.2697    4.1052 C   0  0  0  0  0  0  0  0  0  0  0  0
   -8.0613    2.6214    3.0820 C   0  0  0  0  0  0  0  0  0  0  0  0
   -5.8308    1.4561    5.2728 C   0  0  0  0  0  0  0  0  0  0  0  0
   -4.7081    0.6643    5.4170 C   0  0  0  0  0  0  0  0  0  0  0  0
   -1.3899    0.0785    3.6574 C   0  0  0  0  0  0  0  0  0  0  0  0
   -0.2534    0.7912    4.0354 C   0  0  0  0  0  0  0  0  0  0  0  0
   -0.3560    1.1405    5.4008 C   0  0  0  0  0  0  0  0  0  0  0  0
    0.5815    1.9479    6.5792 S   0  0  0  0  0  0  0  0  0  0  0  0
    0.8912    1.0041    2.7588 S   0  0  0  0  0  0  0  0  0  0  0  0
   -0.1467    0.1071    1.6947 C   0  0  0  0  0  0  0  0  0  0  0  0
   -1.3069   -0.3412    2.3332 C   0  0  0  0  0  0  0  0  0  0  0  0
   -2.2832   -1.3500    1.3133 S   0  0  0  0  0  0  0  0  0  0  0  0
   -1.1101   -1.1875    0.0199 C   0  0  0  0  0  0  0  0  0  0  0  0
   -1.2205   -1.8334   -1.2034 C   0  0  0  0  0  0  0  0  0  0  0  0
   -2.3432   -2.7184   -1.4654 C   0  0  0  0  0  0  0  0  0  0  0  0
   -2.7756   -3.7637   -0.7023 C   0  0  0  0  0  0  0  0  0  0  0  0
   -3.9128   -4.4035   -1.2355 C   0  0  0  0  0  0  0  0  0  0  0  0
   -4.3651   -3.8352   -2.3855 C   0  0  0  0  0  0  0  0  0  0  0  0
   -5.4907   -4.2675   -3.2589 C   0  0  0  0  0  0  0  0  0  0  0  0
   -4.9653   -4.9767   -4.5095 C   0  0  0  0  0  0  0  0  0  0  0  0
   -3.3806   -2.4840   -2.8409 S   0  0  0  0  0  0  0  0  0  0  0  0
   -0.2108   -1.5813   -2.1475 C   0  0  0  0  0  0  0  0  0  0  0  0
    0.8177   -0.6518   -1.8468 C   0  0  0  0  0  0  0  0  0  0  0  0
    0.9358   -0.0172   -0.6187 C   0  0  0  0  0  0  0  0  0  0  0  0
    2.0139    0.9275   -0.3782 C   0  0  0  0  0  0  0  0  0  0  0  0
    3.3526    0.7348   -0.5555 C   0  0  0  0  0  0  0  0  0  0  0  0
    4.1206    1.8759   -0.2463 C   0  0  0  0  0  0  0  0  0  0  0  0
    3.3724    2.9441    0.1399 C   0  0  0  0  0  0  0  0  0  0  0  0
    3.8285    4.2856    0.5970 C   0  0  0  0  0  0  0  0  0  0  0  0
    3.7003    4.4137    2.1169 C   0  0  0  0  0  0  0  0  0  0  0  0
    1.6839    2.5565    0.1328 S   0  0  0  0  0  0  0  0  0  0  0  0
   -0.0352   -0.3230    0.3491 C   0  0  0  0  0  0  0  0  0  0  0  0
    1.9190   -0.3840   -3.1850 S   0  0  0  0  0  0  0  0  0  0  0  0
    1.0695   -1.5684   -4.1262 C   0  0  0  0  0  0  0  0  0  0  0  0
    1.2698   -2.1380   -5.3797 C   0  0  0  0  0  0  0  0  0  0  0  0
    0.3474   -3.1548   -5.6243 C   0  0  0  0  0  0  0  0  0  0  0  0
   -0.7821   -3.3978   -4.3381 S   0  0  0  0  0  0  0  0  0  0  0  0
   -0.0156   -2.1242   -3.4421 C   0  0  0  0  0  0  0  0  0  0  0  0
    0.6021   -3.7007   -6.9006 C   0  0  0  0  0  0  0  0  0  0  0  0
    0.0144   -4.9689   -7.8822 S   0  0  0  0  0  0  0  0  0  0  0  0
    1.2132   -4.5690   -9.1152 C   0  0  0  0  0  0  0  0  0  0  0  0
    2.0086   -3.4898   -8.7376 C   0  0  0  0  0  0  0  0  0  0  0  0
    1.6622   -2.9990   -7.4944 C   0  0  0  0  0  0  0  0  0  0  0  0
    2.1429   -1.8935   -6.5852 C   0  0  0  0  0  0  0  0  0  0  0  0
    3.6351   -2.0097   -6.3578 C   0  0  0  0  0  0  0  0  0  0  0  0
    4.1622   -2.5542   -5.1974 C   0  0  0  0  0  0  0  0  0  0  0  0
    5.5330   -2.6458   -5.0316 C   0  0  0  0  0  0  0  0  0  0  0  0
    6.4033   -2.2133   -6.0221 C   0  0  0  0  0  0  0  0  0  0  0  0
    7.8900   -2.2615   -5.8206 C   0  0  0  0  0  0  0  0  0  0  0  0
    8.3922   -0.9310   -5.2553 C   0  0  0  0  0  0  0  0  0  0  0  0
    5.8665   -1.6843   -7.1900 C   0  0  0  0  0  0  0  0  0  0  0  0
    4.5002   -1.5820   -7.3579 C   0  0  0  0  0  0  0  0  0  0  0  0
    1.7757   -0.5002   -7.0821 C   0  0  0  0  0  0  0  0  0  0  0  0
    0.8368   -0.3002   -8.0828 C   0  0  0  0  0  0  0  0  0  0  0  0
    0.4860    0.9824   -8.4636 C   0  0  0  0  0  0  0  0  0  0  0  0
    1.0534    2.0909   -7.8507 C   0  0  0  0  0  0  0  0  0  0  0  0
    0.6257    3.4792   -8.2287 C   0  0  0  0  0  0  0  0  0  0  0  0
   -0.5741    3.9140   -7.3841 C   0  0  0  0  0  0  0  0  0  0  0  0
    1.9863    1.8823   -6.8424 C   0  0  0  0  0  0  0  0  0  0  0  0
    2.3449    0.6043   -6.4608 C   0  0  0  0  0  0  0  0  0  0  0  0
    1.2532   -5.3406  -10.3036 C   0  0  0  0  0  0  0  0  0  0  0  0
    2.1168   -5.1805  -11.3711 C   0  0  0  0  0  0  0  0  0  0  0  0
    3.1212   -4.2027  -11.4622 C   0  0  0  0  0  0  0  0  0  0  0  0
    3.9513   -3.4171  -11.5786 N   0  0  0  0  0  0  0  0  0  0  0  0
    2.0335   -6.0350  -12.4902 C   0  0  0  0  0  0  0  0  0  0  0  0
    1.9822   -6.7184  -13.4099 N   0  0  0  0  0  0  0  0  0  0  0  0
    0.3050   -6.3928  -10.4105 C   0  0  0  0  0  0  0  0  0  0  0  0
   -0.4663   -7.2361  -10.4842 N   0  0  0  0  0  0  0  0  0  0  0  0
   -1.5190    1.6769    9.6725 H   0  0  0  0  0  0  0  0  0  0  0  0
    1.6307    4.1564   13.7908 H   0  0  0  0  0  0  0  0  0  0  0  0
   -2.6110    0.6633    7.8144 H   0  0  0  0  0  0  0  0  0  0  0  0
   -4.1533   -1.4971    3.4319 H   0  0  0  0  0  0  0  0  0  0  0  0
   -4.7319   -3.8613    3.7224 H   0  0  0  0  0  0  0  0  0  0  0  0
   -2.9873   -6.1539    6.0373 H   0  0  0  0  0  0  0  0  0  0  0  0
   -4.0739   -6.0572    4.6436 H   0  0  0  0  0  0  0  0  0  0  0  0
   -4.7808   -5.2131    7.4958 H   0  0  0  0  0  0  0  0  0  0  0  0
   -5.3233   -6.6922    6.6964 H   0  0  0  0  0  0  0  0  0  0  0  0
   -5.8628   -5.1162    6.1069 H   0  0  0  0  0  0  0  0  0  0  0  0
   -1.9871   -4.1323    6.9760 H   0  0  0  0  0  0  0  0  0  0  0  0
   -1.3834   -1.7782    6.6692 H   0  0  0  0  0  0  0  0  0  0  0  0
   -2.8300    1.9630    2.9308 H   0  0  0  0  0  0  0  0  0  0  0  0
   -4.8217    3.3537    2.6809 H   0  0  0  0  0  0  0  0  0  0  0  0
   -7.6499    3.3724    5.0575 H   0  0  0  0  0  0  0  0  0  0  0  0
   -6.8497    4.2671    3.7574 H   0  0  0  0  0  0  0  0  0  0  0  0
   -8.9544    3.2267    2.9460 H   0  0  0  0  0  0  0  0  0  0  0  0
   -7.5600    2.5204    2.1220 H   0  0  0  0  0  0  0  0  0  0  0  0
   -8.3601    1.6308    3.4174 H   0  0  0  0  0  0  0  0  0  0  0  0
   -6.6705    1.3152    5.9381 H   0  0  0  0  0  0  0  0  0  0  0  0
   -4.6781   -0.0931    6.1866 H   0  0  0  0  0  0  0  0  0  0  0  0
   -2.2748   -4.0840    0.1940 H   0  0  0  0  0  0  0  0  0  0  0  0
   -4.3787   -5.2582   -0.7783 H   0  0  0  0  0  0  0  0  0  0  0  0
   -6.0811   -3.3990   -3.5600 H   0  0  0  0  0  0  0  0  0  0  0  0
   -6.1362   -4.9439   -2.6951 H   0  0  0  0  0  0  0  0  0  0  0  0
   -4.3252   -4.3080   -5.0809 H   0  0  0  0  0  0  0  0  0  0  0  0
   -4.3850   -5.8535   -4.2314 H   0  0  0  0  0  0  0  0  0  0  0  0
   -5.7923   -5.2918   -5.1403 H   0  0  0  0  0  0  0  0  0  0  0  0
    3.7753   -0.2045   -0.8646 H   0  0  0  0  0  0  0  0  0  0  0  0
    5.1939    1.9007   -0.3094 H   0  0  0  0  0  0  0  0  0  0  0  0
    4.8705    4.4242    0.3012 H   0  0  0  0  0  0  0  0  0  0  0  0
    3.2287    5.0638    0.1191 H   0  0  0  0  0  0  0  0  0  0  0  0
    2.6639    4.2841    2.4205 H   0  0  0  0  0  0  0  0  0  0  0  0
    4.3002    3.6543    2.6129 H   0  0  0  0  0  0  0  0  0  0  0  0
    4.0392    5.3935    2.4429 H   0  0  0  0  0  0  0  0  0  0  0  0
    2.7970   -3.0968   -9.3516 H   0  0  0  0  0  0  0  0  0  0  0  0
    3.5049   -2.9058   -4.4157 H   0  0  0  0  0  0  0  0  0  0  0  0
    5.9300   -3.0639   -4.1175 H   0  0  0  0  0  0  0  0  0  0  0  0
    8.1464   -3.0669   -5.1297 H   0  0  0  0  0  0  0  0  0  0  0  0
    8.3857   -2.4567   -6.7734 H   0  0  0  0  0  0  0  0  0  0  0  0
    7.9179   -0.7235   -4.2986 H   0  0  0  0  0  0  0  0  0  0  0  0
    9.4694   -0.9615   -5.1104 H   0  0  0  0  0  0  0  0  0  0  0  0
    8.1559   -0.1173   -5.9372 H   0  0  0  0  0  0  0  0  0  0  0  0
    6.5260   -1.3492   -7.9771 H   0  0  0  0  0  0  0  0  0  0  0  0
    4.0994   -1.1567   -8.2663 H   0  0  0  0  0  0  0  0  0  0  0  0
    0.3751   -1.1444   -8.5735 H   0  0  0  0  0  0  0  0  0  0  0  0
   -0.2419    1.1211   -9.2501 H   0  0  0  0  0  0  0  0  0  0  0  0
    0.3512    3.5078   -9.2850 H   0  0  0  0  0  0  0  0  0  0  0  0
    1.4498    4.1773   -8.0698 H   0  0  0  0  0  0  0  0  0  0  0  0
   -0.8857    4.9198   -7.6555 H   0  0  0  0  0  0  0  0  0  0  0  0
   -1.4113    3.2371   -7.5390 H   0  0  0  0  0  0  0  0  0  0  0  0
   -0.3168    3.9025   -6.3273 H   0  0  0  0  0  0  0  0  0  0  0  0
    2.4384    2.7304   -6.3488 H   0  0  0  0  0  0  0  0  0  0  0  0
    3.0741    0.4601   -5.6768 H   0  0  0  0  0  0  0  0  0  0  0  0
  1  2  2  0  0  0  0
  2  3  1  0  0  0  0
  3  4  2  0  0  0  0
  3  5  1  0  0  0  0
  5  6  1  0  0  0  0
  6  7  1  0  0  0  0
  7  8  1  0  0  0  0
  7  9  2  0  0  0  0
  9 10  1  0  0  0  0
 10 11  1  0  0  0  0
 11 12  2  0  0  0  0
 12 13  1  0  0  0  0
 13 14  3  0  0  0  0
 12 15  1  0  0  0  0
 15 16  3  0  0  0  0
  1 17  1  0  0  0  0
 17 18  2  0  0  0  0
 18 19  1  0  0  0  0
 19 20  1  0  0  0  0
 20 21  1  0  0  0  0
 21 22  2  0  0  0  0
 22 23  1  0  0  0  0
 23 24  2  0  0  0  0
 24 25  1  0  0  0  0
 25 26  1  0  0  0  0
 24 27  1  0  0  0  0
 27 28  2  0  0  0  0
 20 29  1  0  0  0  0
 29 30  2  0  0  0  0
 30 31  1  0  0  0  0
 31 32  2  0  0  0  0
 32 33  1  0  0  0  0
 33 34  1  0  0  0  0
 32 35  1  0  0  0  0
 35 36  2  0  0  0  0
 20 37  1  0  0  0  0
 37 38  2  0  0  0  0
 38 39  1  0  0  0  0
 39 40  1  0  0  0  0
 38 41  1  0  0  0  0
 41 42  1  0  0  0  0
 42 43  2  0  0  0  0
 43 44  1  0  0  0  0
 44 45  1  0  0  0  0
 45 46  2  0  0  0  0
 46 47  1  0  0  0  0
 47 48  2  0  0  0  0
 48 49  1  0  0  0  0
 49 50  2  0  0  0  0
 50 51  1  0  0  0  0
 51 52  1  0  0  0  0
 50 53  1  0  0  0  0
 46 54  1  0  0  0  0
 54 55  2  0  0  0  0
 55 56  1  0  0  0  0
 56 57  1  0  0  0  0
 57 58  2  0  0  0  0
 58 59  1  0  0  0  0
 59 60  2  0  0  0  0
 60 61  1  0  0  0  0
 61 62  1  0  0  0  0
 60 63  1  0  0  0  0
 56 64  2  0  0  0  0
 55 65  1  0  0  0  0
 65 66  1  0  0  0  0
 66 67  1  0  0  0  0
 67 68  2  0  0  0  0
 68 69  1  0  0  0  0
 69 70  1  0  0  0  0
 68 71  1  0  0  0  0
 71 72  1  0  0  0  0
 72 73  1  0  0  0  0
 73 74  2  0  0  0  0
 74 75  1  0  0  0  0
 75 76  1  0  0  0  0
 76 77  1  0  0  0  0
 77 78  2  0  0  0  0
 78 79  1  0  0  0  0
 79 80  2  0  0  0  0
 80 81  1  0  0  0  0
 81 82  1  0  0  0  0
 80 83  1  0  0  0  0
 83 84  2  0  0  0  0
 76 85  1  0  0  0  0
 85 86  2  0  0  0  0
 86 87  1  0  0  0  0
 87 88  2  0  0  0  0
 88 89  1  0  0  0  0
 89 90  1  0  0  0  0
 88 91  1  0  0  0  0
 91 92  2  0  0  0  0
 73 93  1  0  0  0  0
 93 94  2  0  0  0  0
 94 95  1  0  0  0  0
 95 96  3  0  0  0  0
 94 97  1  0  0  0  0
 97 98  3  0  0  0  0
 93 99  1  0  0  0  0
 99100  3  0  0  0  0
 11  2  1  0  0  0  0
 40 17  1  0  0  0  0
 64 42  1  0  0  0  0
 70 66  2  0  0  0  0
 75 71  2  0  0  0  0
 84 77  1  0  0  0  0
 92 85  1  0  0  0  0
 10  5  2  0  0  0  0
 39 19  2  0  0  0  0
 64 45  1  0  0  0  0
 76 67  1  0  0  0  0
 28 21  1  0  0  0  0
 36 29  1  0  0  0  0
 43 37  1  0  0  0  0
 53 47  1  0  0  0  0
 70 54  1  0  0  0  0
 63 57  1  0  0  0  0
  1101  1  0  0  0  0
  9102  1  0  0  0  0
 18103  1  0  0  0  0
 22104  1  0  0  0  0
 23105  1  0  0  0  0
 25106  1  0  0  0  0
 25107  1  0  0  0  0
 26108  1  0  0  0  0
 26109  1  0  0  0  0
 26110  1  0  0  0  0
 27111  1  0  0  0  0
 28112  1  0  0  0  0
 30113  1  0  0  0  0
 31114  1  0  0  0  0
 33115  1  0  0  0  0
 33116  1  0  0  0  0
 34117  1  0  0  0  0
 34118  1  0  0  0  0
 34119  1  0  0  0  0
 35120  1  0  0  0  0
 36121  1  0  0  0  0
 48122  1  0  0  0  0
 49123  1  0  0  0  0
 51124  1  0  0  0  0
 51125  1  0  0  0  0
 52126  1  0  0  0  0
 52127  1  0  0  0  0
 52128  1  0  0  0  0
 58129  1  0  0  0  0
 59130  1  0  0  0  0
 61131  1  0  0  0  0
 61132  1  0  0  0  0
 62133  1  0  0  0  0
 62134  1  0  0  0  0
 62135  1  0  0  0  0
 74136  1  0  0  0  0
 78137  1  0  0  0  0
 79138  1  0  0  0  0
 81139  1  0  0  0  0
 81140  1  0  0  0  0
 82141  1  0  0  0  0
 82142  1  0  0  0  0
 82143  1  0  0  0  0
 83144  1  0  0  0  0
 84145  1  0  0  0  0
 86146  1  0  0  0  0
 87147  1  0  0  0  0
 89148  1  0  0  0  0
 89149  1  0  0  0  0
 90150  1  0  0  0  0
 90151  1  0  0  0  0
 90152  1  0  0  0  0
 91153  1  0  0  0  0
 92154  1  0  0  0  0
M  END
