111

C         -4.75450        9.00160        5.99320
C         -4.19280        9.36740        7.18610
C         -4.49610       10.73670        7.70290
O         -5.32310       11.50670        7.27220
C         -3.54350       10.91820        8.79680
S         -3.12110       12.17900        9.87450
C         -1.92980       11.13810       10.60610
Cl        -0.97120       11.70850       11.89290
C         -1.87140        9.88710       10.05360
C         -2.80070        9.76560        9.00580
C         -3.26380        8.73180        8.09070
C         -3.00090        7.39580        8.27170
C         -2.07480        6.94210        9.23260
N         -1.29720        6.53960        9.97530
C         -3.63410        6.33390        7.60150
N         -4.11660        5.41210        7.11480
C         -4.41220        7.97490        5.09930
S         -5.57600        7.55670        3.83440
C         -4.51450        6.35190        3.23330
C         -4.43460        5.34210        2.27850
S         -5.43280        4.61890        1.05030
C         -4.15820        3.49280        0.74400
C         -3.92840        2.39840       -0.11090
C         -4.68570        1.81350       -1.15040
C         -4.13010        0.70590       -1.88140
N         -4.92910        0.29360       -2.85310
S         -6.26220        1.21060       -2.84870
N         -5.87560        2.17100       -1.60670
C         -2.89800        0.15320       -1.46410
C         -2.21690       -1.01950       -1.82510
S         -2.37040       -2.31850       -2.95250
C         -0.98030       -3.09180       -2.22620
C         -0.28800       -4.27460       -2.52770
C         -0.75420       -5.28390       -3.52240
C         -2.20370       -5.70180       -3.27670
C          0.80220       -4.43910       -1.68500
S          0.90830       -3.16960       -0.46530
C         -0.44260       -2.35650       -1.16020
C         -1.14080       -1.16490       -0.93920
N         -1.10820       -0.10420       -0.07010
C         -2.17180        0.72000       -0.38150
C         -2.63580        1.91860        0.20240
N         -2.05290        2.73080        1.17210
C         -3.00890        3.67180        1.52650
C         -3.16750        4.72490        2.43880
N         -2.48500        5.32980        3.46610
C         -3.29820        6.31870        3.95950
C         -3.24140        7.23270        5.00020
C         -1.30360        4.86810        4.15350
C         -0.07990        5.72660        3.84250
C         -0.65510        3.11400        1.07350
C         -0.48380        4.40190        0.26820
C         -0.33690       -0.15340        1.15360
C          1.16020        0.03840        0.91790
C          1.79450       -5.44490       -1.63530
C          2.37510       -6.05160       -2.71220
C          2.38390       -5.49020       -4.08460
O          1.76020       -4.53690       -4.50300
C          3.41050       -6.25590       -4.81650
C          3.81410       -6.05480       -6.13420
C          4.81360       -6.90160       -6.54860
C          5.37610       -7.87610       -5.71300
C          4.98600       -8.08700       -4.41200
C          3.96880       -7.23580       -3.97090
C          3.31300       -7.15450       -2.67000
C          3.48730       -8.01660       -1.61860
C          4.39750       -9.09300       -1.61010
N          5.12400       -9.97910       -1.53540
C          2.75150       -7.96160       -0.41610
N          2.17350       -7.98940        0.57590
C          6.34210       -8.34140       -6.77330
C          7.81570       -7.87860       -6.65650
C          7.79770       -6.57340       -5.90010
C          7.26330       -5.65360       -6.69220
C          6.91010       -6.32040       -7.99880
C          8.03910       -7.35970       -8.08600
C          5.71290       -7.25830       -7.70520
H         -5.55900        9.65530        5.66830
H         -1.19540        9.12240       10.38710
H         -0.11300       -6.16470       -3.46970
H         -0.65460       -4.85720       -4.52360
H         -2.48240       -6.48070       -3.98170
H         -2.88320       -4.86430       -3.40570
H         -2.31900       -6.09280       -2.26780
H         -2.38630        7.40120        5.62890
H         -1.50960        4.89810        5.22880
H         -1.12980        3.82670        3.87620
H          0.16570        5.68930        2.78470
H         -0.26890        6.76240        4.11300
H          0.77400        5.37040        4.41240
H         -0.22910        3.23050        2.07300
H         -0.12770        2.31770        0.55580
H          0.57220        4.64740        0.18760
H         -0.88710        4.27040       -0.73380
H         -1.00450        5.23250        0.73800
H         -0.49040       -1.13950        1.60720
H         -0.73010        0.59620        1.84130
H          1.55420       -0.77400        0.31450
H          1.37650        0.97300        0.40600
H          1.67810        0.03740        1.87280
H          2.16800       -5.68030       -0.64500
H          3.35650       -5.29040       -6.74260
H          5.43090       -8.83610       -3.77820
H          6.25750       -9.38420       -7.07230
H          8.49890       -8.63810       -6.28630
H          8.11250       -6.46920       -4.87830
H          7.04190       -4.62730       -6.46430
H          6.76910       -5.66120       -8.85140
H          7.87490       -8.11550       -8.85270
H          9.01970       -6.90570       -8.22080
H          5.21540       -7.59370       -8.61310
