
  xtb     02022203303D
 energy: -202.045032397935 gnorm: 0.000161688885 xtb: 6.4.1 (unknown)
111126  0     0  0            999 V2000
   -4.7545    9.0016    5.9932 C   0  0  0  0  0  0  0  0  0  0  0  0
   -4.1928    9.3674    7.1861 C   0  0  0  0  0  0  0  0  0  0  0  0
   -4.4961   10.7367    7.7029 C   0  0  0  0  0  0  0  0  0  0  0  0
   -5.3231   11.5067    7.2722 O   0  0  0  0  0  0  0  0  0  0  0  0
   -3.5435   10.9182    8.7968 C   0  0  0  0  0  0  0  0  0  0  0  0
   -3.1211   12.1790    9.8745 S   0  0  0  0  0  0  0  0  0  0  0  0
   -1.9298   11.1381   10.6061 C   0  0  0  0  0  0  0  0  0  0  0  0
   -0.9712   11.7085   11.8929 Cl  0  0  0  0  0  0  0  0  0  0  0  0
   -1.8714    9.8871   10.0536 C   0  0  0  0  0  0  0  0  0  0  0  0
   -2.8007    9.7656    9.0058 C   0  0  0  0  0  0  0  0  0  0  0  0
   -3.2638    8.7318    8.0907 C   0  0  0  0  0  0  0  0  0  0  0  0
   -3.0009    7.3958    8.2717 C   0  0  0  0  0  0  0  0  0  0  0  0
   -2.0748    6.9421    9.2326 C   0  0  0  0  0  0  0  0  0  0  0  0
   -1.2972    6.5396    9.9753 N   0  0  0  0  0  0  0  0  0  0  0  0
   -3.6341    6.3339    7.6015 C   0  0  0  0  0  0  0  0  0  0  0  0
   -4.1166    5.4121    7.1148 N   0  0  0  0  0  0  0  0  0  0  0  0
   -4.4122    7.9749    5.0993 C   0  0  0  0  0  0  0  0  0  0  0  0
   -5.5760    7.5567    3.8344 S   0  0  0  0  0  0  0  0  0  0  0  0
   -4.5145    6.3519    3.2333 C   0  0  0  0  0  0  0  0  0  0  0  0
   -4.4346    5.3421    2.2785 C   0  0  0  0  0  0  0  0  0  0  0  0
   -5.4328    4.6189    1.0503 S   0  0  0  0  0  0  0  0  0  0  0  0
   -4.1582    3.4928    0.7440 C   0  0  0  0  0  0  0  0  0  0  0  0
   -3.9284    2.3984   -0.1109 C   0  0  0  0  0  0  0  0  0  0  0  0
   -4.6857    1.8135   -1.1504 C   0  0  0  0  0  0  0  0  0  0  0  0
   -4.1301    0.7059   -1.8814 C   0  0  0  0  0  0  0  0  0  0  0  0
   -4.9291    0.2936   -2.8531 N   0  0  0  0  0  0  0  0  0  0  0  0
   -6.2622    1.2106   -2.8487 S   0  0  0  0  0  0  0  0  0  0  0  0
   -5.8756    2.1710   -1.6067 N   0  0  0  0  0  0  0  0  0  0  0  0
   -2.8980    0.1532   -1.4641 C   0  0  0  0  0  0  0  0  0  0  0  0
   -2.2169   -1.0195   -1.8251 C   0  0  0  0  0  0  0  0  0  0  0  0
   -2.3704   -2.3185   -2.9525 S   0  0  0  0  0  0  0  0  0  0  0  0
   -0.9803   -3.0918   -2.2262 C   0  0  0  0  0  0  0  0  0  0  0  0
   -0.2880   -4.2746   -2.5277 C   0  0  0  0  0  0  0  0  0  0  0  0
   -0.7542   -5.2839   -3.5224 C   0  0  0  0  0  0  0  0  0  0  0  0
   -2.2037   -5.7018   -3.2767 C   0  0  0  0  0  0  0  0  0  0  0  0
    0.8022   -4.4391   -1.6850 C   0  0  0  0  0  0  0  0  0  0  0  0
    0.9083   -3.1696   -0.4653 S   0  0  0  0  0  0  0  0  0  0  0  0
   -0.4426   -2.3565   -1.1602 C   0  0  0  0  0  0  0  0  0  0  0  0
   -1.1408   -1.1649   -0.9392 C   0  0  0  0  0  0  0  0  0  0  0  0
   -1.1082   -0.1042   -0.0701 N   0  0  0  0  0  0  0  0  0  0  0  0
   -2.1718    0.7200   -0.3815 C   0  0  0  0  0  0  0  0  0  0  0  0
   -2.6358    1.9186    0.2024 C   0  0  0  0  0  0  0  0  0  0  0  0
   -2.0529    2.7308    1.1721 N   0  0  0  0  0  0  0  0  0  0  0  0
   -3.0089    3.6718    1.5265 C   0  0  0  0  0  0  0  0  0  0  0  0
   -3.1675    4.7249    2.4388 C   0  0  0  0  0  0  0  0  0  0  0  0
   -2.4850    5.3298    3.4661 N   0  0  0  0  0  0  0  0  0  0  0  0
   -3.2982    6.3187    3.9595 C   0  0  0  0  0  0  0  0  0  0  0  0
   -3.2414    7.2327    5.0002 C   0  0  0  0  0  0  0  0  0  0  0  0
   -1.3036    4.8681    4.1535 C   0  0  0  0  0  0  0  0  0  0  0  0
   -0.0799    5.7266    3.8425 C   0  0  0  0  0  0  0  0  0  0  0  0
   -0.6551    3.1140    1.0735 C   0  0  0  0  0  0  0  0  0  0  0  0
   -0.4838    4.4019    0.2682 C   0  0  0  0  0  0  0  0  0  0  0  0
   -0.3369   -0.1534    1.1536 C   0  0  0  0  0  0  0  0  0  0  0  0
    1.1602    0.0384    0.9179 C   0  0  0  0  0  0  0  0  0  0  0  0
    1.7945   -5.4449   -1.6353 C   0  0  0  0  0  0  0  0  0  0  0  0
    2.3751   -6.0516   -2.7122 C   0  0  0  0  0  0  0  0  0  0  0  0
    2.3839   -5.4902   -4.0846 C   0  0  0  0  0  0  0  0  0  0  0  0
    1.7602   -4.5369   -4.5030 O   0  0  0  0  0  0  0  0  0  0  0  0
    3.4105   -6.2559   -4.8165 C   0  0  0  0  0  0  0  0  0  0  0  0
    3.8141   -6.0548   -6.1342 C   0  0  0  0  0  0  0  0  0  0  0  0
    4.8136   -6.9016   -6.5486 C   0  0  0  0  0  0  0  0  0  0  0  0
    5.3761   -7.8761   -5.7130 C   0  0  0  0  0  0  0  0  0  0  0  0
    4.9860   -8.0870   -4.4120 C   0  0  0  0  0  0  0  0  0  0  0  0
    3.9688   -7.2358   -3.9709 C   0  0  0  0  0  0  0  0  0  0  0  0
    3.3130   -7.1545   -2.6700 C   0  0  0  0  0  0  0  0  0  0  0  0
    3.4873   -8.0166   -1.6186 C   0  0  0  0  0  0  0  0  0  0  0  0
    4.3975   -9.0930   -1.6101 C   0  0  0  0  0  0  0  0  0  0  0  0
    5.1240   -9.9791   -1.5354 N   0  0  0  0  0  0  0  0  0  0  0  0
    2.7515   -7.9616   -0.4161 C   0  0  0  0  0  0  0  0  0  0  0  0
    2.1735   -7.9894    0.5759 N   0  0  0  0  0  0  0  0  0  0  0  0
    6.3421   -8.3414   -6.7733 C   0  0  0  0  0  0  0  0  0  0  0  0
    7.8157   -7.8786   -6.6565 C   0  0  0  0  0  0  0  0  0  0  0  0
    7.7977   -6.5734   -5.9001 C   0  0  0  0  0  0  0  0  0  0  0  0
    7.2633   -5.6536   -6.6922 C   0  0  0  0  0  0  0  0  0  0  0  0
    6.9101   -6.3204   -7.9988 C   0  0  0  0  0  0  0  0  0  0  0  0
    8.0391   -7.3597   -8.0860 C   0  0  0  0  0  0  0  0  0  0  0  0
    5.7129   -7.2583   -7.7052 C   0  0  0  0  0  0  0  0  0  0  0  0
   -5.5590    9.6553    5.6683 H   0  0  0  0  0  0  0  0  0  0  0  0
   -1.1954    9.1224   10.3871 H   0  0  0  0  0  0  0  0  0  0  0  0
   -0.1130   -6.1647   -3.4697 H   0  0  0  0  0  0  0  0  0  0  0  0
   -0.6546   -4.8572   -4.5236 H   0  0  0  0  0  0  0  0  0  0  0  0
   -2.4824   -6.4807   -3.9817 H   0  0  0  0  0  0  0  0  0  0  0  0
   -2.8832   -4.8643   -3.4057 H   0  0  0  0  0  0  0  0  0  0  0  0
   -2.3190   -6.0928   -2.2678 H   0  0  0  0  0  0  0  0  0  0  0  0
   -2.3863    7.4012    5.6289 H   0  0  0  0  0  0  0  0  0  0  0  0
   -1.5096    4.8981    5.2288 H   0  0  0  0  0  0  0  0  0  0  0  0
   -1.1298    3.8267    3.8762 H   0  0  0  0  0  0  0  0  0  0  0  0
    0.1657    5.6893    2.7847 H   0  0  0  0  0  0  0  0  0  0  0  0
   -0.2689    6.7624    4.1130 H   0  0  0  0  0  0  0  0  0  0  0  0
    0.7740    5.3704    4.4124 H   0  0  0  0  0  0  0  0  0  0  0  0
   -0.2291    3.2305    2.0730 H   0  0  0  0  0  0  0  0  0  0  0  0
   -0.1277    2.3177    0.5558 H   0  0  0  0  0  0  0  0  0  0  0  0
    0.5722    4.6474    0.1876 H   0  0  0  0  0  0  0  0  0  0  0  0
   -0.8871    4.2704   -0.7338 H   0  0  0  0  0  0  0  0  0  0  0  0
   -1.0045    5.2325    0.7380 H   0  0  0  0  0  0  0  0  0  0  0  0
   -0.4904   -1.1395    1.6072 H   0  0  0  0  0  0  0  0  0  0  0  0
   -0.7301    0.5962    1.8413 H   0  0  0  0  0  0  0  0  0  0  0  0
    1.5542   -0.7740    0.3145 H   0  0  0  0  0  0  0  0  0  0  0  0
    1.3765    0.9730    0.4060 H   0  0  0  0  0  0  0  0  0  0  0  0
    1.6781    0.0374    1.8728 H   0  0  0  0  0  0  0  0  0  0  0  0
    2.1680   -5.6803   -0.6450 H   0  0  0  0  0  0  0  0  0  0  0  0
    3.3565   -5.2904   -6.7426 H   0  0  0  0  0  0  0  0  0  0  0  0
    5.4309   -8.8361   -3.7782 H   0  0  0  0  0  0  0  0  0  0  0  0
    6.2575   -9.3842   -7.0723 H   0  0  0  0  0  0  0  0  0  0  0  0
    8.4989   -8.6381   -6.2863 H   0  0  0  0  0  0  0  0  0  0  0  0
    8.1125   -6.4692   -4.8783 H   0  0  0  0  0  0  0  0  0  0  0  0
    7.0419   -4.6273   -6.4643 H   0  0  0  0  0  0  0  0  0  0  0  0
    6.7691   -5.6612   -8.8514 H   0  0  0  0  0  0  0  0  0  0  0  0
    7.8749   -8.1155   -8.8527 H   0  0  0  0  0  0  0  0  0  0  0  0
    9.0197   -6.9057   -8.2208 H   0  0  0  0  0  0  0  0  0  0  0  0
    5.2154   -7.5937   -8.6131 H   0  0  0  0  0  0  0  0  0  0  0  0
  1  2  2  0  0  0  0
  2  3  1  0  0  0  0
  3  4  2  0  0  0  0
  3  5  1  0  0  0  0
  5  6  1  0  0  0  0
  6  7  1  0  0  0  0
  7  8  1  0  0  0  0
  7  9  2  0  0  0  0
  9 10  1  0  0  0  0
 10 11  1  0  0  0  0
 11 12  2  0  0  0  0
 12 13  1  0  0  0  0
 13 14  3  0  0  0  0
 12 15  1  0  0  0  0
 15 16  3  0  0  0  0
  1 17  1  0  0  0  0
 17 18  1  0  0  0  0
 18 19  1  0  0  0  0
 19 20  1  0  0  0  0
 20 21  1  0  0  0  0
 21 22  1  0  0  0  0
 22 23  1  0  0  0  0
 23 24  1  0  0  0  0
 24 25  1  0  0  0  0
 25 26  2  0  0  0  0
 26 27  1  0  0  0  0
 27 28  1  0  0  0  0
 25 29  1  0  0  0  0
 29 30  1  0  0  0  0
 30 31  1  0  0  0  0
 31 32  1  0  0  0  0
 32 33  1  0  0  0  0
 33 34  1  0  0  0  0
 34 35  1  0  0  0  0
 33 36  2  0  0  0  0
 36 37  1  0  0  0  0
 37 38  1  0  0  0  0
 38 39  1  0  0  0  0
 39 40  1  0  0  0  0
 40 41  1  0  0  0  0
 41 42  1  0  0  0  0
 42 43  1  0  0  0  0
 43 44  1  0  0  0  0
 44 45  1  0  0  0  0
 45 46  1  0  0  0  0
 46 47  1  0  0  0  0
 47 48  1  0  0  0  0
 46 49  1  0  0  0  0
 49 50  1  0  0  0  0
 43 51  1  0  0  0  0
 51 52  1  0  0  0  0
 40 53  1  0  0  0  0
 53 54  1  0  0  0  0
 36 55  1  0  0  0  0
 55 56  2  0  0  0  0
 56 57  1  0  0  0  0
 57 58  2  0  0  0  0
 57 59  1  0  0  0  0
 59 60  2  0  0  0  0
 60 61  1  0  0  0  0
 61 62  2  0  0  0  0
 62 63  1  0  0  0  0
 63 64  2  0  0  0  0
 64 65  1  0  0  0  0
 65 66  2  0  0  0  0
 66 67  1  0  0  0  0
 67 68  3  0  0  0  0
 66 69  1  0  0  0  0
 69 70  3  0  0  0  0
 62 71  1  0  0  0  0
 71 72  1  0  0  0  0
 72 73  1  0  0  0  0
 73 74  2  0  0  0  0
 74 75  1  0  0  0  0
 75 76  1  0  0  0  0
 75 77  1  0  0  0  0
 11  2  1  0  0  0  0
 48 17  2  0  0  0  0
 65 56  1  0  0  0  0
 77 71  1  0  0  0  0
 10  5  2  0  0  0  0
 47 19  2  0  0  0  0
 64 59  1  0  0  0  0
 76 72  1  0  0  0  0
 45 20  2  0  0  0  0
 77 61  1  0  0  0  0
 44 22  2  0  0  0  0
 42 23  2  0  0  0  0
 28 24  2  0  0  0  0
 41 29  2  0  0  0  0
 39 30  2  0  0  0  0
 38 32  2  0  0  0  0
  1 78  1  0  0  0  0
  9 79  1  0  0  0  0
 34 80  1  0  0  0  0
 34 81  1  0  0  0  0
 35 82  1  0  0  0  0
 35 83  1  0  0  0  0
 35 84  1  0  0  0  0
 48 85  1  0  0  0  0
 49 86  1  0  0  0  0
 49 87  1  0  0  0  0
 50 88  1  0  0  0  0
 50 89  1  0  0  0  0
 50 90  1  0  0  0  0
 51 91  1  0  0  0  0
 51 92  1  0  0  0  0
 52 93  1  0  0  0  0
 52 94  1  0  0  0  0
 52 95  1  0  0  0  0
 53 96  1  0  0  0  0
 53 97  1  0  0  0  0
 54 98  1  0  0  0  0
 54 99  1  0  0  0  0
 54100  1  0  0  0  0
 55101  1  0  0  0  0
 60102  1  0  0  0  0
 63103  1  0  0  0  0
 71104  1  0  0  0  0
 72105  1  0  0  0  0
 73106  1  0  0  0  0
 74107  1  0  0  0  0
 75108  1  0  0  0  0
 76109  1  0  0  0  0
 76110  1  0  0  0  0
 77111  1  0  0  0  0
M  END
