94

C          8.05460       -0.78770       -1.85860
C          8.75580        0.22990       -1.26320
C          8.20100        1.29480       -0.40690
O          7.03880        1.46220       -0.08280
C          9.35700        2.10080       -0.03100
S          9.63270        3.49720        0.91980
C         11.33360        3.39530        0.55230
Cl        12.41410        4.54710        1.18840
C         11.66460        2.34240       -0.25760
C         10.52090        1.59660       -0.59240
C         10.19090        0.41890       -1.37640
C         11.10770       -0.33060       -2.06740
C         10.83130       -1.47540       -2.84020
N         10.67700       -2.41280       -3.48640
C         12.48100       -0.00640       -2.06630
N         13.60300        0.23330       -2.08180
C          6.69220       -1.10540       -1.84060
C          6.15430       -2.20940       -2.52460
C          6.91560       -3.14970       -3.40040
C          7.08700       -2.56350       -4.80470
C          4.78070       -2.29780       -2.34050
S          3.58120       -3.43760       -2.92450
C          2.36840       -2.54690       -2.07200
C          0.98410       -2.56350       -1.87010
C          0.00290       -3.42930       -2.39990
C         -1.37180       -3.17670       -2.09890
N         -2.18720       -4.04160       -2.68200
S         -1.29460       -5.08780       -3.53630
N          0.16420       -4.47520       -3.19540
C         -1.69140       -2.10620       -1.23610
C         -2.93500       -1.68870       -0.74850
S         -4.60640       -2.09190       -0.90090
C         -5.00320       -0.82040        0.23900
C         -6.21040       -0.37560        0.79190
C         -7.56300       -0.84020        0.37560
C         -7.68750       -1.09190       -1.12410
C         -5.98920        0.65950        1.70440
S         -4.28590        1.11520        1.80220
C         -3.86560       -0.13260        0.69580
C         -2.69000       -0.62600        0.12650
N         -1.34670       -0.37740        0.19400
C         -0.69880       -1.25770       -0.65450
C          0.66300       -1.45410       -1.02510
N          1.83910       -0.77680       -0.76130
C          2.86410       -1.43860       -1.37780
C          4.24560       -1.28500       -1.52580
S          5.45790       -0.19420       -0.97070
C          2.14880        0.44880       -0.06190
C          2.67560        0.17740        1.34720
C         -0.88070        0.62490        1.12350
C         -1.00650        2.03450        0.54430
C         -6.87500        1.44340        2.46060
C         -8.08230        1.07160        3.00120
C         -8.47100       -0.31270        3.32720
O         -7.86230       -1.33670        3.09620
C         -9.71450       -0.19260        4.12500
C        -10.47360       -1.20230        4.68150
C        -11.59810       -0.83760        5.40490
F        -12.36660       -1.78470        5.95700
C        -11.93700        0.50600        5.56420
F        -13.02570        0.82880        6.27200
C        -11.17160        1.52100        5.00930
C        -10.04790        1.16300        4.28150
C         -9.05550        1.97310        3.57730
C         -9.09820        3.33400        3.41820
C         -8.18880        4.07850        2.63720
N         -7.50310        4.74310        1.99960
C        -10.08060        4.16670        3.99300
N        -10.84800        4.89310        4.44120
H          8.64480       -1.47620       -2.44860
H         12.66760        2.13450       -0.57990
H          6.35250       -4.08230       -3.47020
H          7.89670       -3.37330       -2.97910
H          7.64480       -1.63070       -4.76780
H          7.63050       -3.26430       -5.43170
H          6.11610       -2.37070       -5.25500
H         -7.79420       -1.75890        0.92480
H         -8.29790       -0.09150        0.68190
H         -7.34760       -0.22580       -1.68780
H         -8.72920       -1.27740       -1.37320
H         -7.10680       -1.95690       -1.43070
H          2.93720        0.95100       -0.63180
H          1.28210        1.10250       -0.05700
H          1.99630       -0.45620        1.91460
H          3.63760       -0.32490        1.29190
H          2.81230        1.11600        1.87630
H          0.13590        0.39880        1.43040
H         -1.51490        0.55650        2.01350
H         -0.55710        2.75420        1.22260
H         -0.52120        2.11150       -0.42680
H         -2.05420        2.29290        0.41560
H         -6.52160        2.44600        2.67440
H        -10.20750       -2.24020        4.55950
H        -11.47080        2.54450        5.16540
