139

C         -8.73910       -0.93420       -1.40110
C         -9.54100       -1.93450       -0.92190
C         -9.09520       -3.27380       -0.48020
O         -7.97270       -3.73890       -0.52790
C        -10.30710       -3.91320        0.01930
S        -10.70400       -5.42010        0.72630
C        -12.36750       -4.91220        0.84260
Cl       -13.53330       -5.95610        1.51240
C        -12.59870       -3.65230        0.35960
C        -11.40660       -3.07750       -0.11490
C        -10.97610       -1.82780       -0.71650
C        -11.81240       -0.78280       -1.00860
C        -11.44000        0.44190       -1.59780
N        -11.21460        1.46210       -2.07480
C        -13.19590       -0.84250       -0.73520
N        -14.32290       -0.86500       -0.52210
C         -7.34690       -0.87960       -1.57780
C         -6.70670        0.29450       -1.98010
C         -5.33320        0.15490       -2.01630
S         -4.01740        1.25090       -2.34560
C         -2.90300       -0.02480       -1.98860
C         -1.48470       -0.11250       -1.83920
C         -0.49500        0.86170       -1.95040
C          0.77210        0.51800       -1.54000
C          1.97380        1.43320       -1.37160
C          1.54240        2.69090       -0.63570
C          1.79850        3.97060       -1.09300
C          1.32790        5.06000       -0.37420
C          0.57400        4.88330        0.76470
C          0.28670        3.59450        1.21950
O         -0.49210        3.51660        2.33380
C         -1.04400        2.27280        2.71170
C         -2.12720        1.78530        1.75110
C          0.80160        2.50780        0.52840
C          2.68810        1.70550       -2.68650
C          2.13680        1.34430       -3.90970
C          2.83460        1.59630       -5.07600
C          4.08140        2.19560       -5.05460
C          4.64460        2.55660       -3.83460
O          5.84590        3.16630       -3.66040
C          6.69310        3.39150       -4.76900
C          7.41610        2.12670       -5.22360
C          3.93620        2.30470       -2.65950
C          2.86680        0.55350       -0.52910
C          2.34990       -0.73150       -0.46190
C          1.05000       -0.78150       -1.05390
C          0.08130       -1.78300       -1.03340
C         -1.19550       -1.42730       -1.40060
C         -2.46140       -2.26270       -1.32030
C         -2.76930       -2.81890        0.05900
C         -3.77230       -3.76850        0.18700
C         -4.10290       -4.25400        1.44050
C         -3.42870       -3.81710        2.56130
C         -2.41430       -2.86650        2.44210
O         -1.81250       -2.49750        3.60730
C         -0.66240       -1.67830        3.57930
C          0.58520       -2.41610        3.10150
C         -2.10590       -2.35510        1.18650
C         -2.35480       -3.37280       -2.35410
C         -2.86580       -3.21440       -3.63660
C         -2.71940       -4.22940       -4.56190
C         -2.06150       -5.40380       -4.23920
C         -1.53730       -5.56520       -2.96080
O         -0.86790       -6.66080       -2.52200
C         -0.69070       -7.75550       -3.40040
C          0.06600       -8.83630       -2.64470
C         -1.68920       -4.54010       -2.02700
C         -3.50160       -1.23110       -1.66430
C         -4.89230       -1.13960       -1.66450
S         -6.20340       -2.18290       -1.27580
S          3.28920       -1.83010        0.49090
C          4.37800       -0.52210        0.87260
C          5.46670       -0.40380        1.70960
C          5.94870        0.90860        1.77300
S          5.03510        1.99290        0.72750
C          4.01800        0.69140        0.24200
C          7.00360        1.25830        2.62490
C          7.54630        2.48640        2.91640
C          7.11410        3.76830        2.35160
O          6.27800        3.96320        1.48970
C          7.90640        4.80430        3.04580
C          7.84800        6.17390        2.89660
C          8.68950        6.95960        3.67640
Cl         8.64360        8.67010        3.52450
C          9.56480        6.35230        4.58040
Br        10.70530        7.42090        5.64490
C          9.62390        4.97140        4.72730
C          8.78570        4.18740        3.95220
C          8.60050        2.73780        3.87900
C          9.31530        1.81650        4.59990
C          9.16090        0.41570        4.53460
N          9.10220       -0.73150        4.54360
C         10.33160        2.15070        5.52040
N         11.16530        2.35510        6.28220
H         -9.23360       -0.00630       -1.66440
H        -13.56630       -3.18680        0.35600
H         -7.24040        1.19930       -2.20930
H         -0.73160        1.86140       -2.28270
H          2.35490        4.12810       -2.00250
H          1.54070        6.05880       -0.72380
H          0.18410        5.72220        1.31850
H         -0.25360        1.51910        2.82890
H         -1.48120        2.46180        3.69590
H         -1.71520        1.57220        0.76670
H         -2.89090        2.55130        1.64330
H         -2.59040        0.88280        2.14250
H          0.62600        1.49910        0.87130
H          1.17090        0.86770       -3.95920
H          2.40120        1.31740       -6.02510
H          4.59250        2.37550       -5.98690
H          6.13540        3.84290       -5.59900
H          7.42070        4.12330       -4.40720
H          6.70880        1.37270       -5.56050
H          7.98900        1.71400       -4.39710
H          8.09370        2.36500       -6.03890
H          4.39000        2.60660       -1.72900
H          0.31710       -2.77400       -0.67760
H         -4.28850       -4.13160       -0.68770
H         -4.89170       -4.98360        1.53720
H         -3.66500       -4.19370        3.54360
H         -0.53190       -1.36440        4.61880
H         -0.84000       -0.78230        2.97130
H          0.47280       -2.74860        2.07270
H          0.76020       -3.28770        3.72670
H          1.44760       -1.75790        3.16530
H         -1.34870       -1.59610        1.07340
H         -3.38020       -2.30680       -3.91220
H         -3.12450       -4.10840       -5.55560
H         -1.96590       -6.17740       -4.98420
H         -0.11950       -7.44040       -4.28500
H         -1.66750       -8.13610       -3.72950
H          1.03000       -8.45550       -2.31880
H         -0.49990       -9.14080       -1.76870
H          0.22080       -9.69770       -3.28790
H         -1.28940       -4.69450       -1.03720
H          5.89780       -1.20790        2.27870
H          7.41760        0.40800        3.15340
H          7.16320        6.62150        2.19390
H         10.31360        4.54720        5.43880
