94

C          1.14590        7.82630        1.33750
C          0.11280        8.36770        0.61230
C         -0.70810        7.64530       -0.35480
O         -0.64600        6.45090       -0.62750
C         -1.62380        8.62760       -0.94380
C         -2.58310        8.45930       -1.92390
C         -3.32080        9.56450       -2.31770
C         -3.10930       10.81740       -1.74650
C         -3.93240       11.99040       -2.17300
C         -2.13970       10.97720       -0.75530
C         -1.39510        9.88390       -0.35180
C         -0.32780        9.74940        0.64150
C          0.12920       10.75440        1.45250
C          1.13500       10.62830        2.43400
N          1.93820       10.61110        3.25500
C         -0.36240       12.07710        1.42920
N         -0.71300       13.16970        1.46340
C          1.63890        6.51470        1.38360
C          2.73280        6.19020        2.18940
C          3.11020        4.86100        2.16230
S          4.41210        4.03260        2.99730
C          3.91090        2.55960        2.24660
C          4.29000        1.21330        2.19430
C          5.40350        0.54660        2.75210
C          5.61080       -0.83500        2.43650
N          6.71640       -1.31880        2.97990
S          7.43360       -0.13590        3.82050
N          6.36060        1.03820        3.52290
C          4.63490       -1.51170        1.67120
C          4.51970       -2.86520        1.33240
C          3.28500       -3.02200        0.68740
N          2.65630       -1.80950        0.58430
C          1.25160       -1.76140        0.25070
C          0.39720       -1.41640        1.46740
C          3.46920       -0.85560        1.17570
C          3.35380        0.54900        1.34530
N          2.45990        1.49290        0.86820
C          2.79940        2.70550        1.40720
C          2.33200        4.02170        1.33790
Se         0.98800        4.98460        0.46590
C          1.57410        1.44860       -0.27330
C          2.32700        1.10430       -1.55540
C          3.03280       -4.35020        0.33780
C          4.10230       -5.18800        0.71040
S          5.40940       -4.33410        1.50150
C          3.94580       -6.53700        0.42130
C          2.76370       -6.86450       -0.22790
Se         1.67420       -5.32630       -0.47850
C          2.35690       -8.18340       -0.50300
C          1.27110       -8.64300       -1.19470
C          0.73680       -9.99560       -0.89700
O          1.29190      -10.88270       -0.28990
C         -0.64000       -9.99240       -1.44020
C         -1.61250      -10.94200       -1.32250
C         -2.88170      -10.70010       -1.89630
C         -3.92080      -11.64570       -1.79870
C         -5.14290      -11.38550       -2.35270
F         -6.13150      -12.28540       -2.25570
C         -5.37860      -10.17190       -3.02840
F         -6.58700       -9.94240       -3.56060
C         -4.38970       -9.23540       -3.14130
C         -3.11850       -9.47330       -2.58170
C         -2.08730       -8.51270       -2.69840
C         -0.86600       -8.77210       -2.13900
C          0.37530       -8.00200       -2.12600
C          0.72010       -7.04240       -3.04780
C          2.04470       -6.58570       -3.20510
N          3.12210       -6.22830       -3.38110
C         -0.17530       -6.50530       -3.99190
N         -0.87640       -6.02180       -4.76200
H          1.69080        8.50450        1.98480
H         -2.74240        7.48790       -2.36580
H         -4.07460        9.45740       -3.08390
H         -3.38670       12.91990       -2.03220
H         -4.22770       11.90200       -3.21570
H         -4.83960       12.04010       -1.56990
H         -1.98560       11.95270       -0.32310
H          3.23650        6.93250        2.78560
H          1.07480       -1.07430       -0.57670
H          0.98110       -2.76270       -0.10610
H          0.52260       -2.17490        2.23670
H         -0.65160       -1.37950        1.18590
H          0.68310       -0.45570        1.88940
H          1.14150        2.45140       -0.37100
H          0.74520        0.76340       -0.09340
H          1.63510        1.06820       -2.39220
H          2.83230        0.14450       -1.47360
H          3.07660        1.86500       -1.76030
H          4.68870       -7.27890        0.65870
H          2.92970       -8.95550        0.00390
H         -1.41870      -11.86520       -0.79810
H         -3.75640      -12.57960       -1.28430
H         -4.58560       -8.31310       -3.66550
H         -2.29150       -7.58920       -3.21710
