
  xtb     02102219003D
 energy: -211.503599148603 gnorm: 0.000649198897 xtb: 6.4.1 (unknown)
120133  0     0  0            999 V2000
    6.5156   -2.4924   -3.7798 C   0  0  0  0  0  0  0  0  0  0  0  0
    6.3152   -2.5794   -5.1335 C   0  0  0  0  0  0  0  0  0  0  0  0
    5.2198   -1.9575   -5.8851 C   0  0  0  0  0  0  0  0  0  0  0  0
    4.2636   -1.3474   -5.4337 O   0  0  0  0  0  0  0  0  0  0  0  0
    5.5113   -2.2051   -7.3050 C   0  0  0  0  0  0  0  0  0  0  0  0
    4.8097   -1.8041   -8.4243 C   0  0  0  0  0  0  0  0  0  0  0  0
    5.2973   -2.1650   -9.6714 C   0  0  0  0  0  0  0  0  0  0  0  0
    6.4647   -2.9117   -9.8027 C   0  0  0  0  0  0  0  0  0  0  0  0
    6.9706   -3.3091  -11.1526 C   0  0  0  0  0  0  0  0  0  0  0  0
    7.1673   -3.3137   -8.6651 C   0  0  0  0  0  0  0  0  0  0  0  0
    6.6923   -2.9627   -7.4150 C   0  0  0  0  0  0  0  0  0  0  0  0
    7.1974   -3.2431   -6.0706 C   0  0  0  0  0  0  0  0  0  0  0  0
    8.2742   -4.0382   -5.7729 C   0  0  0  0  0  0  0  0  0  0  0  0
    8.7088   -4.3865   -4.4762 C   0  0  0  0  0  0  0  0  0  0  0  0
    9.1157   -4.7410   -3.4616 N   0  0  0  0  0  0  0  0  0  0  0  0
    9.0891   -4.6565   -6.7440 C   0  0  0  0  0  0  0  0  0  0  0  0
    9.7943   -5.1833   -7.4814 N   0  0  0  0  0  0  0  0  0  0  0  0
    5.7167   -1.9291   -2.7784 C   0  0  0  0  0  0  0  0  0  0  0  0
    6.1029   -1.9533   -1.4269 C   0  0  0  0  0  0  0  0  0  0  0  0
    7.4217   -2.4339   -0.9896 C   0  0  0  0  0  0  0  0  0  0  0  0
    8.5428   -1.6855   -1.3390 C   0  0  0  0  0  0  0  0  0  0  0  0
    9.8075   -2.0971   -0.9675 C   0  0  0  0  0  0  0  0  0  0  0  0
    9.9605   -3.2698   -0.2489 C   0  0  0  0  0  0  0  0  0  0  0  0
    8.8497   -4.0181    0.0927 C   0  0  0  0  0  0  0  0  0  0  0  0
    7.5694   -3.6185   -0.2653 C   0  0  0  0  0  0  0  0  0  0  0  0
    6.3957   -4.5044    0.0408 C   0  0  0  0  0  0  0  0  0  0  0  0
    6.0372   -5.3545   -1.1805 C   0  0  0  0  0  0  0  0  0  0  0  0
    5.1091   -1.4402   -0.6023 C   0  0  0  0  0  0  0  0  0  0  0  0
    4.9993   -1.2238    1.1345 S   0  0  0  0  0  0  0  0  0  0  0  0
    3.4054   -0.5852    0.9190 C   0  0  0  0  0  0  0  0  0  0  0  0
    2.3196   -0.1684    1.7004 C   0  0  0  0  0  0  0  0  0  0  0  0
    2.0989   -0.2115    3.0961 C   0  0  0  0  0  0  0  0  0  0  0  0
    0.7786    0.0440    3.5997 C   0  0  0  0  0  0  0  0  0  0  0  0
    0.6983   -0.1178    4.9107 N   0  0  0  0  0  0  0  0  0  0  0  0
    2.1572   -0.5449    5.4665 S   0  0  0  0  0  0  0  0  0  0  0  0
    2.9478   -0.5463    4.0543 N   0  0  0  0  0  0  0  0  0  0  0  0
   -0.2268    0.4675    2.7013 C   0  0  0  0  0  0  0  0  0  0  0  0
   -1.5645    0.8434    2.8996 C   0  0  0  0  0  0  0  0  0  0  0  0
   -2.7379    0.8929    4.1698 S   0  0  0  0  0  0  0  0  0  0  0  0
   -3.8975    1.5488    3.0357 C   0  0  0  0  0  0  0  0  0  0  0  0
   -5.2458    1.8980    3.1668 C   0  0  0  0  0  0  0  0  0  0  0  0
   -5.9912    1.7083    4.4139 C   0  0  0  0  0  0  0  0  0  0  0  0
   -7.1403    0.9142    4.4939 C   0  0  0  0  0  0  0  0  0  0  0  0
   -7.5910    0.0335    3.3606 C   0  0  0  0  0  0  0  0  0  0  0  0
   -6.6769   -1.1888    3.2488 C   0  0  0  0  0  0  0  0  0  0  0  0
   -7.8120    0.8532    5.7077 C   0  0  0  0  0  0  0  0  0  0  0  0
   -7.3637    1.5422    6.8211 C   0  0  0  0  0  0  0  0  0  0  0  0
   -6.1966    2.2807    6.7473 C   0  0  0  0  0  0  0  0  0  0  0  0
   -5.5130    2.3589    5.5494 C   0  0  0  0  0  0  0  0  0  0  0  0
   -5.7611    2.3817    1.9621 C   0  0  0  0  0  0  0  0  0  0  0  0
   -4.5726    2.3119    0.6565 S   0  0  0  0  0  0  0  0  0  0  0  0
   -3.3792    1.7099    1.7411 C   0  0  0  0  0  0  0  0  0  0  0  0
   -2.0475    1.2999    1.6662 C   0  0  0  0  0  0  0  0  0  0  0  0
   -1.0696    1.2018    0.7088 N   0  0  0  0  0  0  0  0  0  0  0  0
    0.0485    0.6585    1.3177 C   0  0  0  0  0  0  0  0  0  0  0  0
    1.2823    0.1991    0.7948 C   0  0  0  0  0  0  0  0  0  0  0  0
    1.7176   -0.0361   -0.4930 N   0  0  0  0  0  0  0  0  0  0  0  0
    2.9989   -0.5142   -0.4208 C   0  0  0  0  0  0  0  0  0  0  0  0
    3.9643   -1.0143   -1.2998 C   0  0  0  0  0  0  0  0  0  0  0  0
    4.1157   -1.2379   -3.0041 S   0  0  0  0  0  0  0  0  0  0  0  0
    0.9602   -0.1606   -1.7195 C   0  0  0  0  0  0  0  0  0  0  0  0
    1.3436    0.9020   -2.7499 C   0  0  0  0  0  0  0  0  0  0  0  0
   -1.1262    2.0805   -0.4406 C   0  0  0  0  0  0  0  0  0  0  0  0
   -1.0667    3.5479   -0.0160 C   0  0  0  0  0  0  0  0  0  0  0  0
   -7.0596    2.7985    1.6211 C   0  0  0  0  0  0  0  0  0  0  0  0
   -8.0120    3.3213    2.4611 C   0  0  0  0  0  0  0  0  0  0  0  0
   -7.7319    4.0334    3.7244 C   0  0  0  0  0  0  0  0  0  0  0  0
   -6.6473    4.3027    4.1971 O   0  0  0  0  0  0  0  0  0  0  0  0
   -9.0448    4.4994    4.2148 C   0  0  0  0  0  0  0  0  0  0  0  0
   -9.3356    5.1842    5.3785 C   0  0  0  0  0  0  0  0  0  0  0  0
  -10.6536    5.5343    5.6277 C   0  0  0  0  0  0  0  0  0  0  0  0
  -11.6278    5.1988    4.6995 C   0  0  0  0  0  0  0  0  0  0  0  0
  -12.8988    5.5536    4.9527 F   0  0  0  0  0  0  0  0  0  0  0  0
  -11.3593    4.5151    3.5214 C   0  0  0  0  0  0  0  0  0  0  0  0
  -10.0421    4.1594    3.2847 C   0  0  0  0  0  0  0  0  0  0  0  0
   -9.4248    3.4206    2.1832 C   0  0  0  0  0  0  0  0  0  0  0  0
  -10.0962    2.8314    1.1418 C   0  0  0  0  0  0  0  0  0  0  0  0
   -9.4995    2.0091    0.1640 C   0  0  0  0  0  0  0  0  0  0  0  0
   -9.0879    1.3031   -0.6433 N   0  0  0  0  0  0  0  0  0  0  0  0
  -11.4848    2.9464    0.9267 C   0  0  0  0  0  0  0  0  0  0  0  0
  -12.6060    3.0100    0.6877 N   0  0  0  0  0  0  0  0  0  0  0  0
    7.4309   -2.9244   -3.3923 H   0  0  0  0  0  0  0  0  0  0  0  0
    3.9057   -1.2241   -8.3188 H   0  0  0  0  0  0  0  0  0  0  0  0
    4.7637   -1.8612  -10.5601 H   0  0  0  0  0  0  0  0  0  0  0  0
    8.0496   -3.1830  -11.2106 H   0  0  0  0  0  0  0  0  0  0  0  0
    6.5002   -2.7231  -11.9377 H   0  0  0  0  0  0  0  0  0  0  0  0
    6.7521   -4.3620  -11.3324 H   0  0  0  0  0  0  0  0  0  0  0  0
    8.0713   -3.8895   -8.7822 H   0  0  0  0  0  0  0  0  0  0  0  0
    8.4100   -0.7718   -1.9019 H   0  0  0  0  0  0  0  0  0  0  0  0
   10.6689   -1.5084   -1.2447 H   0  0  0  0  0  0  0  0  0  0  0  0
   10.9458   -3.6054    0.0370 H   0  0  0  0  0  0  0  0  0  0  0  0
    8.9745   -4.9401    0.6415 H   0  0  0  0  0  0  0  0  0  0  0  0
    5.5298   -3.9106    0.3363 H   0  0  0  0  0  0  0  0  0  0  0  0
    6.6511   -5.1636    0.8721 H   0  0  0  0  0  0  0  0  0  0  0  0
    5.2490   -6.0614   -0.9318 H   0  0  0  0  0  0  0  0  0  0  0  0
    5.6914   -4.7263   -1.9987 H   0  0  0  0  0  0  0  0  0  0  0  0
    6.9092   -5.9067   -1.5231 H   0  0  0  0  0  0  0  0  0  0  0  0
   -7.5879    0.5658    2.4091 H   0  0  0  0  0  0  0  0  0  0  0  0
   -8.6132   -0.3004    3.5496 H   0  0  0  0  0  0  0  0  0  0  0  0
   -7.0182   -1.8416    2.4491 H   0  0  0  0  0  0  0  0  0  0  0  0
   -6.6766   -1.7487    4.1814 H   0  0  0  0  0  0  0  0  0  0  0  0
   -5.6551   -0.8832    3.0344 H   0  0  0  0  0  0  0  0  0  0  0  0
   -8.7033    0.2459    5.7809 H   0  0  0  0  0  0  0  0  0  0  0  0
   -7.9172    1.4864    7.7467 H   0  0  0  0  0  0  0  0  0  0  0  0
   -5.8206    2.7989    7.6161 H   0  0  0  0  0  0  0  0  0  0  0  0
   -4.6164    2.9538    5.4746 H   0  0  0  0  0  0  0  0  0  0  0  0
    1.1792   -1.1461   -2.1450 H   0  0  0  0  0  0  0  0  0  0  0  0
   -0.1036   -0.1330   -1.4802 H   0  0  0  0  0  0  0  0  0  0  0  0
    0.6383    0.8811   -3.5758 H   0  0  0  0  0  0  0  0  0  0  0  0
    2.3350    0.7007   -3.1454 H   0  0  0  0  0  0  0  0  0  0  0  0
    1.3512    1.9003   -2.3171 H   0  0  0  0  0  0  0  0  0  0  0  0
   -2.0619    1.8853   -0.9738 H   0  0  0  0  0  0  0  0  0  0  0  0
   -0.2877    1.8767   -1.0955 H   0  0  0  0  0  0  0  0  0  0  0  0
   -1.0783    4.1817   -0.8983 H   0  0  0  0  0  0  0  0  0  0  0  0
   -0.1531    3.7416    0.5425 H   0  0  0  0  0  0  0  0  0  0  0  0
   -1.9169    3.8106    0.6072 H   0  0  0  0  0  0  0  0  0  0  0  0
   -7.3115    2.6903    0.5718 H   0  0  0  0  0  0  0  0  0  0  0  0
   -8.5471    5.4286    6.0728 H   0  0  0  0  0  0  0  0  0  0  0  0
  -10.9377    6.0624    6.5241 H   0  0  0  0  0  0  0  0  0  0  0  0
  -12.1638    4.2902    2.8409 H   0  0  0  0  0  0  0  0  0  0  0  0
  1  2  2  0  0  0  0
  2  3  1  0  0  0  0
  3  4  2  0  0  0  0
  3  5  1  0  0  0  0
  5  6  2  0  0  0  0
  6  7  1  0  0  0  0
  7  8  2  0  0  0  0
  8  9  1  0  0  0  0
  8 10  1  0  0  0  0
 10 11  2  0  0  0  0
 11 12  1  0  0  0  0
 12 13  2  0  0  0  0
 13 14  1  0  0  0  0
 14 15  3  0  0  0  0
 13 16  1  0  0  0  0
 16 17  3  0  0  0  0
  1 18  1  0  0  0  0
 18 19  2  0  0  0  0
 19 20  1  0  0  0  0
 20 21  2  0  0  0  0
 21 22  1  0  0  0  0
 22 23  2  0  0  0  0
 23 24  1  0  0  0  0
 24 25  2  0  0  0  0
 25 26  1  0  0  0  0
 26 27  1  0  0  0  0
 19 28  1  0  0  0  0
 28 29  1  0  0  0  0
 29 30  1  0  0  0  0
 30 31  1  0  0  0  0
 31 32  1  0  0  0  0
 32 33  1  0  0  0  0
 33 34  2  0  0  0  0
 34 35  1  0  0  0  0
 35 36  1  0  0  0  0
 33 37  1  0  0  0  0
 37 38  1  0  0  0  0
 38 39  1  0  0  0  0
 39 40  1  0  0  0  0
 40 41  1  0  0  0  0
 41 42  1  0  0  0  0
 42 43  2  0  0  0  0
 43 44  1  0  0  0  0
 44 45  1  0  0  0  0
 43 46  1  0  0  0  0
 46 47  2  0  0  0  0
 47 48  1  0  0  0  0
 48 49  2  0  0  0  0
 41 50  2  0  0  0  0
 50 51  1  0  0  0  0
 51 52  1  0  0  0  0
 52 53  1  0  0  0  0
 53 54  1  0  0  0  0
 54 55  1  0  0  0  0
 55 56  1  0  0  0  0
 56 57  1  0  0  0  0
 57 58  1  0  0  0  0
 58 59  1  0  0  0  0
 59 60  1  0  0  0  0
 57 61  1  0  0  0  0
 61 62  1  0  0  0  0
 54 63  1  0  0  0  0
 63 64  1  0  0  0  0
 50 65  1  0  0  0  0
 65 66  2  0  0  0  0
 66 67  1  0  0  0  0
 67 68  2  0  0  0  0
 67 69  1  0  0  0  0
 69 70  2  0  0  0  0
 70 71  1  0  0  0  0
 71 72  2  0  0  0  0
 72 73  1  0  0  0  0
 72 74  1  0  0  0  0
 74 75  2  0  0  0  0
 75 76  1  0  0  0  0
 76 77  2  0  0  0  0
 77 78  1  0  0  0  0
 78 79  3  0  0  0  0
 77 80  1  0  0  0  0
 80 81  3  0  0  0  0
 12  2  1  0  0  0  0
 60 18  1  0  0  0  0
 76 66  1  0  0  0  0
 11  5  1  0  0  0  0
 25 20  1  0  0  0  0
 59 28  2  0  0  0  0
 75 69  1  0  0  0  0
 58 30  2  0  0  0  0
 56 31  2  0  0  0  0
 36 32  2  0  0  0  0
 55 37  2  0  0  0  0
 53 38  2  0  0  0  0
 52 40  2  0  0  0  0
 49 42  1  0  0  0  0
  1 82  1  0  0  0  0
  6 83  1  0  0  0  0
  7 84  1  0  0  0  0
  9 85  1  0  0  0  0
  9 86  1  0  0  0  0
  9 87  1  0  0  0  0
 10 88  1  0  0  0  0
 21 89  1  0  0  0  0
 22 90  1  0  0  0  0
 23 91  1  0  0  0  0
 24 92  1  0  0  0  0
 26 93  1  0  0  0  0
 26 94  1  0  0  0  0
 27 95  1  0  0  0  0
 27 96  1  0  0  0  0
 27 97  1  0  0  0  0
 44 98  1  0  0  0  0
 44 99  1  0  0  0  0
 45100  1  0  0  0  0
 45101  1  0  0  0  0
 45102  1  0  0  0  0
 46103  1  0  0  0  0
 47104  1  0  0  0  0
 48105  1  0  0  0  0
 49106  1  0  0  0  0
 61107  1  0  0  0  0
 61108  1  0  0  0  0
 62109  1  0  0  0  0
 62110  1  0  0  0  0
 62111  1  0  0  0  0
 63112  1  0  0  0  0
 63113  1  0  0  0  0
 64114  1  0  0  0  0
 64115  1  0  0  0  0
 64116  1  0  0  0  0
 65117  1  0  0  0  0
 70118  1  0  0  0  0
 71119  1  0  0  0  0
 74120  1  0  0  0  0
M  END
