
  xtb     02112203403D
 energy: -182.721200269571 gnorm: 0.000442912052 xtb: 6.4.1 (unknown)
 94106  0     0  0            999 V2000
    1.1459    7.8263    1.3375 C   0  0  0  0  0  0  0  0  0  0  0  0
    0.1128    8.3677    0.6123 C   0  0  0  0  0  0  0  0  0  0  0  0
   -0.7081    7.6453   -0.3548 C   0  0  0  0  0  0  0  0  0  0  0  0
   -0.6460    6.4509   -0.6275 O   0  0  0  0  0  0  0  0  0  0  0  0
   -1.6238    8.6276   -0.9438 C   0  0  0  0  0  0  0  0  0  0  0  0
   -2.5831    8.4593   -1.9239 C   0  0  0  0  0  0  0  0  0  0  0  0
   -3.3208    9.5645   -2.3177 C   0  0  0  0  0  0  0  0  0  0  0  0
   -3.1093   10.8174   -1.7465 C   0  0  0  0  0  0  0  0  0  0  0  0
   -3.9324   11.9904   -2.1730 C   0  0  0  0  0  0  0  0  0  0  0  0
   -2.1397   10.9772   -0.7553 C   0  0  0  0  0  0  0  0  0  0  0  0
   -1.3951    9.8839   -0.3518 C   0  0  0  0  0  0  0  0  0  0  0  0
   -0.3278    9.7494    0.6415 C   0  0  0  0  0  0  0  0  0  0  0  0
    0.1292   10.7544    1.4525 C   0  0  0  0  0  0  0  0  0  0  0  0
    1.1350   10.6283    2.4340 C   0  0  0  0  0  0  0  0  0  0  0  0
    1.9382   10.6111    3.2550 N   0  0  0  0  0  0  0  0  0  0  0  0
   -0.3624   12.0771    1.4292 C   0  0  0  0  0  0  0  0  0  0  0  0
   -0.7130   13.1697    1.4634 N   0  0  0  0  0  0  0  0  0  0  0  0
    1.6389    6.5147    1.3836 C   0  0  0  0  0  0  0  0  0  0  0  0
    2.7328    6.1902    2.1894 C   0  0  0  0  0  0  0  0  0  0  0  0
    3.1102    4.8610    2.1623 C   0  0  0  0  0  0  0  0  0  0  0  0
    4.4121    4.0326    2.9973 S   0  0  0  0  0  0  0  0  0  0  0  0
    3.9109    2.5596    2.2466 C   0  0  0  0  0  0  0  0  0  0  0  0
    4.2900    1.2133    2.1943 C   0  0  0  0  0  0  0  0  0  0  0  0
    5.4035    0.5466    2.7521 C   0  0  0  0  0  0  0  0  0  0  0  0
    5.6108   -0.8350    2.4365 C   0  0  0  0  0  0  0  0  0  0  0  0
    6.7164   -1.3188    2.9799 N   0  0  0  0  0  0  0  0  0  0  0  0
    7.4336   -0.1359    3.8205 S   0  0  0  0  0  0  0  0  0  0  0  0
    6.3606    1.0382    3.5229 N   0  0  0  0  0  0  0  0  0  0  0  0
    4.6349   -1.5117    1.6712 C   0  0  0  0  0  0  0  0  0  0  0  0
    4.5197   -2.8652    1.3324 C   0  0  0  0  0  0  0  0  0  0  0  0
    3.2850   -3.0220    0.6874 C   0  0  0  0  0  0  0  0  0  0  0  0
    2.6563   -1.8095    0.5843 N   0  0  0  0  0  0  0  0  0  0  0  0
    1.2516   -1.7614    0.2507 C   0  0  0  0  0  0  0  0  0  0  0  0
    0.3972   -1.4164    1.4674 C   0  0  0  0  0  0  0  0  0  0  0  0
    3.4692   -0.8556    1.1757 C   0  0  0  0  0  0  0  0  0  0  0  0
    3.3538    0.5490    1.3453 C   0  0  0  0  0  0  0  0  0  0  0  0
    2.4599    1.4929    0.8682 N   0  0  0  0  0  0  0  0  0  0  0  0
    2.7994    2.7055    1.4072 C   0  0  0  0  0  0  0  0  0  0  0  0
    2.3320    4.0217    1.3379 C   0  0  0  0  0  0  0  0  0  0  0  0
    0.9880    4.9846    0.4659 Se  0  0  0  0  0  2  0  0  0  0  0  0
    1.5741    1.4486   -0.2733 C   0  0  0  0  0  0  0  0  0  0  0  0
    2.3270    1.1043   -1.5554 C   0  0  0  0  0  0  0  0  0  0  0  0
    3.0328   -4.3502    0.3378 C   0  0  0  0  0  0  0  0  0  0  0  0
    4.1023   -5.1880    0.7104 C   0  0  0  0  0  0  0  0  0  0  0  0
    5.4094   -4.3341    1.5015 S   0  0  0  0  0  0  0  0  0  0  0  0
    3.9458   -6.5370    0.4213 C   0  0  0  0  0  0  0  0  0  0  0  0
    2.7637   -6.8645   -0.2279 C   0  0  0  0  0  0  0  0  0  0  0  0
    1.6742   -5.3263   -0.4785 Se  0  0  0  0  0  2  0  0  0  0  0  0
    2.3569   -8.1834   -0.5030 C   0  0  0  0  0  0  0  0  0  0  0  0
    1.2711   -8.6430   -1.1947 C   0  0  0  0  0  0  0  0  0  0  0  0
    0.7368   -9.9956   -0.8970 C   0  0  0  0  0  0  0  0  0  0  0  0
    1.2919  -10.8827   -0.2899 O   0  0  0  0  0  0  0  0  0  0  0  0
   -0.6400   -9.9924   -1.4402 C   0  0  0  0  0  0  0  0  0  0  0  0
   -1.6125  -10.9420   -1.3225 C   0  0  0  0  0  0  0  0  0  0  0  0
   -2.8817  -10.7001   -1.8963 C   0  0  0  0  0  0  0  0  0  0  0  0
   -3.9208  -11.6457   -1.7987 C   0  0  0  0  0  0  0  0  0  0  0  0
   -5.1429  -11.3855   -2.3527 C   0  0  0  0  0  0  0  0  0  0  0  0
   -6.1315  -12.2854   -2.2557 F   0  0  0  0  0  0  0  0  0  0  0  0
   -5.3786  -10.1719   -3.0284 C   0  0  0  0  0  0  0  0  0  0  0  0
   -6.5870   -9.9424   -3.5606 F   0  0  0  0  0  0  0  0  0  0  0  0
   -4.3897   -9.2354   -3.1413 C   0  0  0  0  0  0  0  0  0  0  0  0
   -3.1185   -9.4733   -2.5817 C   0  0  0  0  0  0  0  0  0  0  0  0
   -2.0873   -8.5127   -2.6984 C   0  0  0  0  0  0  0  0  0  0  0  0
   -0.8660   -8.7721   -2.1390 C   0  0  0  0  0  0  0  0  0  0  0  0
    0.3753   -8.0020   -2.1260 C   0  0  0  0  0  0  0  0  0  0  0  0
    0.7201   -7.0424   -3.0478 C   0  0  0  0  0  0  0  0  0  0  0  0
    2.0447   -6.5857   -3.2051 C   0  0  0  0  0  0  0  0  0  0  0  0
    3.1221   -6.2283   -3.3811 N   0  0  0  0  0  0  0  0  0  0  0  0
   -0.1753   -6.5053   -3.9919 C   0  0  0  0  0  0  0  0  0  0  0  0
   -0.8764   -6.0218   -4.7620 N   0  0  0  0  0  0  0  0  0  0  0  0
    1.6908    8.5045    1.9848 H   0  0  0  0  0  0  0  0  0  0  0  0
   -2.7424    7.4879   -2.3658 H   0  0  0  0  0  0  0  0  0  0  0  0
   -4.0746    9.4574   -3.0839 H   0  0  0  0  0  0  0  0  0  0  0  0
   -3.3867   12.9199   -2.0322 H   0  0  0  0  0  0  0  0  0  0  0  0
   -4.2277   11.9020   -3.2157 H   0  0  0  0  0  0  0  0  0  0  0  0
   -4.8396   12.0401   -1.5699 H   0  0  0  0  0  0  0  0  0  0  0  0
   -1.9856   11.9527   -0.3231 H   0  0  0  0  0  0  0  0  0  0  0  0
    3.2365    6.9325    2.7856 H   0  0  0  0  0  0  0  0  0  0  0  0
    1.0748   -1.0743   -0.5767 H   0  0  0  0  0  0  0  0  0  0  0  0
    0.9811   -2.7627   -0.1061 H   0  0  0  0  0  0  0  0  0  0  0  0
    0.5226   -2.1749    2.2367 H   0  0  0  0  0  0  0  0  0  0  0  0
   -0.6516   -1.3795    1.1859 H   0  0  0  0  0  0  0  0  0  0  0  0
    0.6831   -0.4557    1.8894 H   0  0  0  0  0  0  0  0  0  0  0  0
    1.1415    2.4514   -0.3710 H   0  0  0  0  0  0  0  0  0  0  0  0
    0.7452    0.7634   -0.0934 H   0  0  0  0  0  0  0  0  0  0  0  0
    1.6351    1.0682   -2.3922 H   0  0  0  0  0  0  0  0  0  0  0  0
    2.8323    0.1445   -1.4736 H   0  0  0  0  0  0  0  0  0  0  0  0
    3.0766    1.8650   -1.7603 H   0  0  0  0  0  0  0  0  0  0  0  0
    4.6887   -7.2789    0.6587 H   0  0  0  0  0  0  0  0  0  0  0  0
    2.9297   -8.9555    0.0039 H   0  0  0  0  0  0  0  0  0  0  0  0
   -1.4187  -11.8652   -0.7981 H   0  0  0  0  0  0  0  0  0  0  0  0
   -3.7564  -12.5796   -1.2843 H   0  0  0  0  0  0  0  0  0  0  0  0
   -4.5856   -8.3131   -3.6655 H   0  0  0  0  0  0  0  0  0  0  0  0
   -2.2915   -7.5892   -3.2171 H   0  0  0  0  0  0  0  0  0  0  0  0
  1  2  2  0  0  0  0
  2  3  1  0  0  0  0
  3  4  2  0  0  0  0
  3  5  1  0  0  0  0
  5  6  2  0  0  0  0
  6  7  1  0  0  0  0
  7  8  2  0  0  0  0
  8  9  1  0  0  0  0
  8 10  1  0  0  0  0
 10 11  2  0  0  0  0
 11 12  1  0  0  0  0
 12 13  2  0  0  0  0
 13 14  1  0  0  0  0
 14 15  3  0  0  0  0
 13 16  1  0  0  0  0
 16 17  3  0  0  0  0
  1 18  1  0  0  0  0
 18 19  2  0  0  0  0
 19 20  1  0  0  0  0
 20 21  1  0  0  0  0
 21 22  1  0  0  0  0
 22 23  1  0  0  0  0
 23 24  1  0  0  0  0
 24 25  1  0  0  0  0
 25 26  2  0  0  0  0
 26 27  1  0  0  0  0
 27 28  1  0  0  0  0
 25 29  1  0  0  0  0
 29 30  1  0  0  0  0
 30 31  2  0  0  0  0
 31 32  1  0  0  0  0
 32 33  1  0  0  0  0
 33 34  1  0  0  0  0
 32 35  1  0  0  0  0
 35 36  1  0  0  0  0
 36 37  1  0  0  0  0
 37 38  1  0  0  0  0
 38 39  1  0  0  0  0
 39 40  1  0  0  0  0
 37 41  1  0  0  0  0
 41 42  1  0  0  0  0
 31 43  1  0  0  0  0
 43 44  2  0  0  0  0
 44 45  1  0  0  0  0
 44 46  1  0  0  0  0
 46 47  2  0  0  0  0
 47 48  1  0  0  0  0
 47 49  1  0  0  0  0
 49 50  2  0  0  0  0
 50 51  1  0  0  0  0
 51 52  2  0  0  0  0
 51 53  1  0  0  0  0
 53 54  2  0  0  0  0
 54 55  1  0  0  0  0
 55 56  2  0  0  0  0
 56 57  1  0  0  0  0
 57 58  1  0  0  0  0
 57 59  2  0  0  0  0
 59 60  1  0  0  0  0
 59 61  1  0  0  0  0
 61 62  2  0  0  0  0
 62 63  1  0  0  0  0
 63 64  2  0  0  0  0
 64 65  1  0  0  0  0
 65 66  2  0  0  0  0
 66 67  1  0  0  0  0
 67 68  3  0  0  0  0
 66 69  1  0  0  0  0
 69 70  3  0  0  0  0
 12  2  1  0  0  0  0
 40 18  1  0  0  0  0
 48 43  1  0  0  0  0
 65 50  1  0  0  0  0
 11  5  1  0  0  0  0
 39 20  2  0  0  0  0
 64 53  1  0  0  0  0
 38 22  2  0  0  0  0
 62 55  1  0  0  0  0
 36 23  2  0  0  0  0
 28 24  2  0  0  0  0
 35 29  2  0  0  0  0
 45 30  1  0  0  0  0
  1 71  1  0  0  0  0
  6 72  1  0  0  0  0
  7 73  1  0  0  0  0
  9 74  1  0  0  0  0
  9 75  1  0  0  0  0
  9 76  1  0  0  0  0
 10 77  1  0  0  0  0
 19 78  1  0  0  0  0
 33 79  1  0  0  0  0
 33 80  1  0  0  0  0
 34 81  1  0  0  0  0
 34 82  1  0  0  0  0
 34 83  1  0  0  0  0
 41 84  1  0  0  0  0
 41 85  1  0  0  0  0
 42 86  1  0  0  0  0
 42 87  1  0  0  0  0
 42 88  1  0  0  0  0
 46 89  1  0  0  0  0
 49 90  1  0  0  0  0
 54 91  1  0  0  0  0
 56 92  1  0  0  0  0
 61 93  1  0  0  0  0
 63 94  1  0  0  0  0
M  END
