88

C          0.82230       -2.12650        7.39330
C          1.57730       -2.77590        8.33130
C          3.02010       -3.12000        8.28960
O          3.86550       -2.75600        7.49730
C          3.24330       -4.02710        9.42730
C          4.40370       -4.68080        9.79620
C          4.36850       -5.50420       10.90950
C          3.19690       -5.67810       11.64460
C          3.17950       -6.59690       12.82440
C          2.03220       -5.01160       11.26680
C          2.05430       -4.18160       10.15880
C          1.01520       -3.36360        9.53830
C         -0.23650       -3.15780       10.05770
C         -1.23160       -2.31010        9.52580
N         -2.09130       -1.63430        9.17250
C         -0.70530       -3.75250       11.24880
N         -1.15460       -4.20250       12.20460
C          1.15920       -1.51080        6.17210
C          2.37100       -1.25510        5.55730
C          2.26670       -0.63180        4.31890
S          3.51550       -0.15400        3.19030
C          2.29050        0.40340        2.10940
C          2.18300        0.98890        0.84110
C          3.18130        1.44390       -0.04810
C          2.78190        2.06210       -1.27620
N          3.81420        2.47700       -1.99370
S          5.17250        2.11710       -1.19190
N          4.49660        1.41730        0.10050
C          1.40770        2.10420       -1.59980
C          0.76530        2.49580       -2.78060
C         -0.59590        2.20220       -2.62200
N         -0.81700        1.68170       -1.37350
C         -2.07510        1.03180       -1.08850
C         -1.93610       -0.48800       -1.09690
C          0.40200        1.60270       -0.72040
C          0.79170        1.12960        0.56090
N          0.08250        0.67900        1.66490
C          0.98770        0.23870        2.59480
C          0.96200       -0.34650        3.86540
Se        -0.30680       -0.88630        5.11590
C         -1.27530        0.95740        2.07650
C         -1.54910        2.45790        2.13080
C         -1.33890        2.48040       -3.77180
C         -0.51430        2.99770       -4.79730
S          1.16650        3.14280       -4.32930
C         -1.13210        3.28160       -6.00590
C         -2.49150        3.00860       -6.03360
Se        -3.10140        2.33680       -4.34830
C         -3.46500        3.11500       -7.03770
C         -3.39650        3.47040       -8.36290
C         -2.20740        3.82850       -9.16030
O         -1.05700        3.97370       -8.80210
C         -2.69270        3.98490      -10.55010
C         -1.95440        4.28240      -11.67830
C         -2.63060        4.36590      -12.88440
F         -1.95640        4.64810      -14.00570
C         -4.00860        4.15560      -12.94130
F         -4.63660        4.23770      -14.11970
C         -4.74930        3.86060      -11.80640
C         -4.07920        3.77470      -10.59550
C         -4.55310        3.48280       -9.24240
C         -5.86780        3.28560       -8.90580
C         -6.37940        3.04140       -7.61310
N         -6.89280        2.84490       -6.60390
C         -6.93340        3.31420       -9.83160
N         -7.84860        3.31910      -10.52420
H         -0.24410       -2.09670        7.59510
H          5.30720       -4.54410        9.22210
H          5.26320       -6.02530       11.21740
H          2.37890       -6.33390       13.51080
H          4.12900       -6.56810       13.35370
H          3.01420       -7.62160       12.48960
H          1.13200       -5.15790       11.84130
H          3.30890       -1.53330        6.00550
H         -2.76930        1.33270       -1.88160
H         -2.49110        1.39660       -0.14990
H         -1.61850       -0.82520       -2.08080
H         -2.89200       -0.94970       -0.86590
H         -1.19810       -0.81980       -0.37010
H         -1.38690        0.53820        3.08300
H         -1.98920        0.43680        1.43780
H         -2.57760        2.63610        2.43240
H         -0.89000        2.92900        2.85630
H         -1.37790        2.92680        1.16450
H         -0.61120        3.67060       -6.86340
H         -4.45420        2.83570       -6.69010
H         -0.88920        4.44280      -11.62760
H         -5.81070        3.70640      -11.90730
