
  xtb     02102218423D
 energy: -215.382188259611 gnorm: 0.000615972625 xtb: 6.4.1 (unknown)
120133  0     0  0            999 V2000
    1.3263    2.9279    7.3132 C   0  0  0  0  0  0  0  0  0  0  0  0
    1.4812    1.8816    8.1863 C   0  0  0  0  0  0  0  0  0  0  0  0
    1.0968    0.4879    7.9386 C   0  0  0  0  0  0  0  0  0  0  0  0
    0.6294    0.0189    6.9132 O   0  0  0  0  0  0  0  0  0  0  0  0
    1.3755   -0.2379    9.1869 C   0  0  0  0  0  0  0  0  0  0  0  0
    1.1812   -1.5718    9.4846 C   0  0  0  0  0  0  0  0  0  0  0  0
    1.5319   -2.0227   10.7485 C   0  0  0  0  0  0  0  0  0  0  0  0
    2.0652   -1.1596   11.7008 C   0  0  0  0  0  0  0  0  0  0  0  0
    2.4326   -1.6521   13.0642 C   0  0  0  0  0  0  0  0  0  0  0  0
    2.2571    0.1887   11.3911 C   0  0  0  0  0  0  0  0  0  0  0  0
    1.9149    0.6520   10.1345 C   0  0  0  0  0  0  0  0  0  0  0  0
    2.0180    1.9797    9.5275 C   0  0  0  0  0  0  0  0  0  0  0  0
    2.5768    3.0837   10.1188 C   0  0  0  0  0  0  0  0  0  0  0  0
    3.0850    3.1004   11.4346 C   0  0  0  0  0  0  0  0  0  0  0  0
    3.5120    3.1834   12.4973 N   0  0  0  0  0  0  0  0  0  0  0  0
    2.7612    4.3441    9.5117 C   0  0  0  0  0  0  0  0  0  0  0  0
    2.9710    5.3943    9.0947 N   0  0  0  0  0  0  0  0  0  0  0  0
    0.9040    2.9428    5.9791 C   0  0  0  0  0  0  0  0  0  0  0  0
    0.8827    4.1330    5.2309 C   0  0  0  0  0  0  0  0  0  0  0  0
    1.1357    5.4521    5.8295 C   0  0  0  0  0  0  0  0  0  0  0  0
    0.1855    5.9700    6.7057 C   0  0  0  0  0  0  0  0  0  0  0  0
    0.3758    7.2012    7.3012 C   0  0  0  0  0  0  0  0  0  0  0  0
    1.5263    7.9210    7.0304 C   0  0  0  0  0  0  0  0  0  0  0  0
    2.4747    7.4048    6.1677 C   0  0  0  0  0  0  0  0  0  0  0  0
    2.2994    6.1723    5.5536 C   0  0  0  0  0  0  0  0  0  0  0  0
    3.3909    5.5995    4.6954 C   0  0  0  0  0  0  0  0  0  0  0  0
    4.2611    4.6409    5.5119 C   0  0  0  0  0  0  0  0  0  0  0  0
    0.5610    3.8950    3.9002 C   0  0  0  0  0  0  0  0  0  0  0  0
    0.3949    4.9446    2.5037 S   0  0  0  0  0  0  0  0  0  0  0  0
    0.0108    3.5540    1.5462 C   0  0  0  0  0  0  0  0  0  0  0  0
   -0.3278    3.2319    0.2240 C   0  0  0  0  0  0  0  0  0  0  0  0
   -0.5644    4.0484   -0.9046 C   0  0  0  0  0  0  0  0  0  0  0  0
   -0.9815    3.4341   -2.1319 C   0  0  0  0  0  0  0  0  0  0  0  0
   -1.2163    4.3201   -3.0865 N   0  0  0  0  0  0  0  0  0  0  0  0
   -0.9325    5.8000   -2.4947 S   0  0  0  0  0  0  0  0  0  0  0  0
   -0.4988    5.3671   -0.9967 N   0  0  0  0  0  0  0  0  0  0  0  0
   -1.0244    2.0237   -2.2096 C   0  0  0  0  0  0  0  0  0  0  0  0
   -1.2120    1.1657   -3.3001 C   0  0  0  0  0  0  0  0  0  0  0  0
   -1.5490    1.2589   -4.9952 S   0  0  0  0  0  0  0  0  0  0  0  0
   -1.3655   -0.4830   -5.0920 C   0  0  0  0  0  0  0  0  0  0  0  0
   -1.4325   -1.3799   -6.1479 C   0  0  0  0  0  0  0  0  0  0  0  0
   -1.6550   -1.0305   -7.5586 C   0  0  0  0  0  0  0  0  0  0  0  0
   -2.9005   -0.6044   -8.0230 C   0  0  0  0  0  0  0  0  0  0  0  0
   -4.0994   -0.5607   -7.1196 C   0  0  0  0  0  0  0  0  0  0  0  0
   -4.7127   -1.9566   -6.9842 C   0  0  0  0  0  0  0  0  0  0  0  0
   -3.0359   -0.3072   -9.3723 C   0  0  0  0  0  0  0  0  0  0  0  0
   -1.9703   -0.4209  -10.2452 C   0  0  0  0  0  0  0  0  0  0  0  0
   -0.7383   -0.8445   -9.7783 C   0  0  0  0  0  0  0  0  0  0  0  0
   -0.5846   -1.1521   -8.4410 C   0  0  0  0  0  0  0  0  0  0  0  0
   -1.2001   -2.7028   -5.7220 C   0  0  0  0  0  0  0  0  0  0  0  0
   -0.8709   -2.7981   -3.9951 S   0  0  0  0  0  0  0  0  0  0  0  0
   -1.0652   -1.0902   -3.8564 C   0  0  0  0  0  0  0  0  0  0  0  0
   -0.9837   -0.1384   -2.8385 C   0  0  0  0  0  0  0  0  0  0  0  0
   -0.6807   -0.1127   -1.5033 N   0  0  0  0  0  0  0  0  0  0  0  0
   -0.7187    1.2008   -1.0840 C   0  0  0  0  0  0  0  0  0  0  0  0
   -0.4929    1.8161    0.1736 C   0  0  0  0  0  0  0  0  0  0  0  0
   -0.3040    1.3040    1.4464 N   0  0  0  0  0  0  0  0  0  0  0  0
    0.0066    2.3559    2.2697 C   0  0  0  0  0  0  0  0  0  0  0  0
    0.3174    2.5388    3.6193 C   0  0  0  0  0  0  0  0  0  0  0  0
    0.4831    1.5345    5.0116 S   0  0  0  0  0  0  0  0  0  0  0  0
   -0.8740    0.1235    2.0619 C   0  0  0  0  0  0  0  0  0  0  0  0
   -2.2953    0.3988    2.5512 C   0  0  0  0  0  0  0  0  0  0  0  0
   -0.1139   -1.2854   -0.8752 C   0  0  0  0  0  0  0  0  0  0  0  0
   -1.1836   -2.3150   -0.5088 C   0  0  0  0  0  0  0  0  0  0  0  0
   -1.3075   -3.7815   -6.6000 C   0  0  0  0  0  0  0  0  0  0  0  0
   -1.1601   -5.1320   -6.3823 C   0  0  0  0  0  0  0  0  0  0  0  0
   -0.7513   -5.7594   -5.1269 C   0  0  0  0  0  0  0  0  0  0  0  0
   -0.5265   -5.2192   -4.0568 O   0  0  0  0  0  0  0  0  0  0  0  0
   -0.6529   -7.2055   -5.4105 C   0  0  0  0  0  0  0  0  0  0  0  0
   -0.2890   -8.2283   -4.5600 C   0  0  0  0  0  0  0  0  0  0  0  0
   -0.2642   -9.5236   -5.0625 C   0  0  0  0  0  0  0  0  0  0  0  0
    0.1827  -10.8265   -4.0363 Cl  0  0  0  0  0  0  0  0  0  0  0  0
   -0.6008   -9.7675   -6.3974 C   0  0  0  0  0  0  0  0  0  0  0  0
   -0.5622  -11.3728   -7.0075 Cl  0  0  0  0  0  0  0  0  0  0  0  0
   -0.9700   -8.7319   -7.2504 C   0  0  0  0  0  0  0  0  0  0  0  0
   -0.9976   -7.4401   -6.7531 C   0  0  0  0  0  0  0  0  0  0  0  0
   -1.3474   -6.1641   -7.3789 C   0  0  0  0  0  0  0  0  0  0  0  0
   -1.8084   -6.0112   -8.6620 C   0  0  0  0  0  0  0  0  0  0  0  0
   -2.2250   -4.7995   -9.2534 C   0  0  0  0  0  0  0  0  0  0  0  0
   -2.6038   -3.8664   -9.8069 N   0  0  0  0  0  0  0  0  0  0  0  0
   -1.9597   -7.0759   -9.5751 C   0  0  0  0  0  0  0  0  0  0  0  0
   -2.0951   -7.8947  -10.3684 N   0  0  0  0  0  0  0  0  0  0  0  0
    1.5845    3.9141    7.6813 H   0  0  0  0  0  0  0  0  0  0  0  0
    0.7684   -2.2384    8.7430 H   0  0  0  0  0  0  0  0  0  0  0  0
    1.3903   -3.0636   11.0006 H   0  0  0  0  0  0  0  0  0  0  0  0
    3.4454   -1.3447   13.3185 H   0  0  0  0  0  0  0  0  0  0  0  0
    2.3659   -2.7351   13.1236 H   0  0  0  0  0  0  0  0  0  0  0  0
    1.7629   -1.2217   13.8084 H   0  0  0  0  0  0  0  0  0  0  0  0
    2.6695    0.8450   12.1405 H   0  0  0  0  0  0  0  0  0  0  0  0
   -0.7083    5.3971    6.9105 H   0  0  0  0  0  0  0  0  0  0  0  0
   -0.3680    7.5925    7.9788 H   0  0  0  0  0  0  0  0  0  0  0  0
    1.6882    8.8798    7.4989 H   0  0  0  0  0  0  0  0  0  0  0  0
    3.3781    7.9631    5.9697 H   0  0  0  0  0  0  0  0  0  0  0  0
    4.0133    6.4115    4.3158 H   0  0  0  0  0  0  0  0  0  0  0  0
    2.9709    5.0684    3.8400 H   0  0  0  0  0  0  0  0  0  0  0  0
    5.1049    4.2960    4.9186 H   0  0  0  0  0  0  0  0  0  0  0  0
    3.6853    3.7738    5.8287 H   0  0  0  0  0  0  0  0  0  0  0  0
    4.6378    5.1406    6.4014 H   0  0  0  0  0  0  0  0  0  0  0  0
   -4.8434    0.1172   -7.5410 H   0  0  0  0  0  0  0  0  0  0  0  0
   -3.8243   -0.1881   -6.1319 H   0  0  0  0  0  0  0  0  0  0  0  0
   -4.0201   -2.6347   -6.4899 H   0  0  0  0  0  0  0  0  0  0  0  0
   -5.6290   -1.9132   -6.4001 H   0  0  0  0  0  0  0  0  0  0  0  0
   -4.9419   -2.3631   -7.9665 H   0  0  0  0  0  0  0  0  0  0  0  0
   -3.9996    0.0107   -9.7427 H   0  0  0  0  0  0  0  0  0  0  0  0
   -2.1024   -0.1884  -11.2908 H   0  0  0  0  0  0  0  0  0  0  0  0
    0.0986   -0.9423  -10.4530 H   0  0  0  0  0  0  0  0  0  0  0  0
    0.3725   -1.4851   -8.0641 H   0  0  0  0  0  0  0  0  0  0  0  0
   -0.8923   -0.7037    1.3644 H   0  0  0  0  0  0  0  0  0  0  0  0
   -0.2369   -0.1404    2.9108 H   0  0  0  0  0  0  0  0  0  0  0  0
   -2.7026   -0.4961    3.0130 H   0  0  0  0  0  0  0  0  0  0  0  0
   -2.2995    1.1987    3.2870 H   0  0  0  0  0  0  0  0  0  0  0  0
   -2.9342    0.6882    1.7188 H   0  0  0  0  0  0  0  0  0  0  0  0
    0.4762   -0.9736   -0.0123 H   0  0  0  0  0  0  0  0  0  0  0  0
    0.5731   -1.7444   -1.5945 H   0  0  0  0  0  0  0  0  0  0  0  0
   -1.5836   -2.7717   -1.4096 H   0  0  0  0  0  0  0  0  0  0  0  0
   -0.7456   -3.0989    0.1025 H   0  0  0  0  0  0  0  0  0  0  0  0
   -2.0095   -1.8602    0.0338 H   0  0  0  0  0  0  0  0  0  0  0  0
   -1.5564   -3.4769   -7.6097 H   0  0  0  0  0  0  0  0  0  0  0  0
   -0.0314   -8.0256   -3.5325 H   0  0  0  0  0  0  0  0  0  0  0  0
   -1.2223   -8.9600   -8.2728 H   0  0  0  0  0  0  0  0  0  0  0  0
  1  2  2  0  0  0  0
  2  3  1  0  0  0  0
  3  4  2  0  0  0  0
  3  5  1  0  0  0  0
  5  6  2  0  0  0  0
  6  7  1  0  0  0  0
  7  8  2  0  0  0  0
  8  9  1  0  0  0  0
  8 10  1  0  0  0  0
 10 11  2  0  0  0  0
 11 12  1  0  0  0  0
 12 13  2  0  0  0  0
 13 14  1  0  0  0  0
 14 15  3  0  0  0  0
 13 16  1  0  0  0  0
 16 17  3  0  0  0  0
  1 18  1  0  0  0  0
 18 19  2  0  0  0  0
 19 20  1  0  0  0  0
 20 21  2  0  0  0  0
 21 22  1  0  0  0  0
 22 23  2  0  0  0  0
 23 24  1  0  0  0  0
 24 25  2  0  0  0  0
 25 26  1  0  0  0  0
 26 27  1  0  0  0  0
 19 28  1  0  0  0  0
 28 29  1  0  0  0  0
 29 30  1  0  0  0  0
 30 31  1  0  0  0  0
 31 32  1  0  0  0  0
 32 33  1  0  0  0  0
 33 34  2  0  0  0  0
 34 35  1  0  0  0  0
 35 36  1  0  0  0  0
 33 37  1  0  0  0  0
 37 38  1  0  0  0  0
 38 39  1  0  0  0  0
 39 40  1  0  0  0  0
 40 41  1  0  0  0  0
 41 42  1  0  0  0  0
 42 43  2  0  0  0  0
 43 44  1  0  0  0  0
 44 45  1  0  0  0  0
 43 46  1  0  0  0  0
 46 47  2  0  0  0  0
 47 48  1  0  0  0  0
 48 49  2  0  0  0  0
 41 50  2  0  0  0  0
 50 51  1  0  0  0  0
 51 52  1  0  0  0  0
 52 53  1  0  0  0  0
 53 54  1  0  0  0  0
 54 55  1  0  0  0  0
 55 56  1  0  0  0  0
 56 57  1  0  0  0  0
 57 58  1  0  0  0  0
 58 59  1  0  0  0  0
 59 60  1  0  0  0  0
 57 61  1  0  0  0  0
 61 62  1  0  0  0  0
 54 63  1  0  0  0  0
 63 64  1  0  0  0  0
 50 65  1  0  0  0  0
 65 66  2  0  0  0  0
 66 67  1  0  0  0  0
 67 68  2  0  0  0  0
 67 69  1  0  0  0  0
 69 70  2  0  0  0  0
 70 71  1  0  0  0  0
 71 72  1  0  0  0  0
 71 73  2  0  0  0  0
 73 74  1  0  0  0  0
 73 75  1  0  0  0  0
 75 76  2  0  0  0  0
 76 77  1  0  0  0  0
 77 78  2  0  0  0  0
 78 79  1  0  0  0  0
 79 80  3  0  0  0  0
 78 81  1  0  0  0  0
 81 82  3  0  0  0  0
 12  2  1  0  0  0  0
 60 18  1  0  0  0  0
 77 66  1  0  0  0  0
 11  5  1  0  0  0  0
 25 20  1  0  0  0  0
 59 28  2  0  0  0  0
 76 69  1  0  0  0  0
 58 30  2  0  0  0  0
 56 31  2  0  0  0  0
 36 32  2  0  0  0  0
 55 37  2  0  0  0  0
 53 38  2  0  0  0  0
 52 40  2  0  0  0  0
 49 42  1  0  0  0  0
  1 83  1  0  0  0  0
  6 84  1  0  0  0  0
  7 85  1  0  0  0  0
  9 86  1  0  0  0  0
  9 87  1  0  0  0  0
  9 88  1  0  0  0  0
 10 89  1  0  0  0  0
 21 90  1  0  0  0  0
 22 91  1  0  0  0  0
 23 92  1  0  0  0  0
 24 93  1  0  0  0  0
 26 94  1  0  0  0  0
 26 95  1  0  0  0  0
 27 96  1  0  0  0  0
 27 97  1  0  0  0  0
 27 98  1  0  0  0  0
 44 99  1  0  0  0  0
 44100  1  0  0  0  0
 45101  1  0  0  0  0
 45102  1  0  0  0  0
 45103  1  0  0  0  0
 46104  1  0  0  0  0
 47105  1  0  0  0  0
 48106  1  0  0  0  0
 49107  1  0  0  0  0
 61108  1  0  0  0  0
 61109  1  0  0  0  0
 62110  1  0  0  0  0
 62111  1  0  0  0  0
 62112  1  0  0  0  0
 63113  1  0  0  0  0
 63114  1  0  0  0  0
 64115  1  0  0  0  0
 64116  1  0  0  0  0
 64117  1  0  0  0  0
 65118  1  0  0  0  0
 70119  1  0  0  0  0
 75120  1  0  0  0  0
M  END
