147

C          0.10000        1.07800        7.78740
C          1.12080        0.83510        8.67460
C          2.43150        0.25710        8.35770
O          2.86710       -0.03620        7.25730
C          3.12540        0.09140        9.64490
C          4.37510       -0.43620        9.90190
C          4.80550       -0.49550       11.21830
C          4.00480       -0.03870       12.26210
C          4.47760       -0.14040       13.67770
C          2.74450        0.49550       11.99200
C          2.30280        0.56340       10.68290
C          1.05580        1.06380       10.10290
C          0.04370        1.66670       10.80740
C          0.06060        1.86690       12.20310
N          0.00320        2.05860       13.33410
C         -1.14220        2.19460       10.25830
N         -2.13180        2.65310        9.89440
C          0.01640        0.88830        6.40520
S          1.32190        0.28690        5.38840
C          0.28190        0.36270        4.03900
C          0.36750        0.11860        2.64980
C         -0.85850        0.34890        2.05090
C         -1.90030        0.71490        3.09460
C         -1.01460        0.80320        4.33580
C         -1.16690        1.14190        5.67030
C         -2.39280        1.74760        6.26500
C         -2.82550       -0.45450        3.40890
C         -3.94970       -0.26090        4.20430
C         -4.75160       -1.32570        4.56420
C         -4.45410       -2.61810        4.15090
C         -5.35850       -3.76330        4.50190
C         -6.49580       -3.87450        3.48410
C         -3.32870       -2.80950        3.36280
C         -2.51980       -1.74680        3.00250
C         -2.57680        2.02860        2.73910
C         -1.86810        3.18530        3.06530
C         -2.35740        4.44490        2.79630
C         -3.59040        4.59310        2.17540
C         -4.13190        5.95310        1.84440
C         -3.62560        6.41000        0.47490
C         -4.27630        3.44570        1.81920
C         -3.79850        2.16190        2.07500
C         -4.67430        1.03150        1.60770
C         -0.82340        0.14100        0.65300
C         -1.82870        0.26260       -0.30810
C         -1.53570       -0.06780       -1.60950
S         -2.69310       -0.05130       -2.92890
C         -1.46550       -0.64320       -3.99450
C         -1.38280       -1.02400       -5.35360
C         -0.06780       -1.42470       -5.63260
C          0.79600       -1.29630       -4.39600
C          1.83450       -0.18950       -4.52460
C          3.02700       -0.24450       -3.81660
C          3.93920        0.79140       -3.89720
C          3.68580        1.90790       -4.68220
C          4.65740        3.05110       -4.73570
C          4.31340        4.09440       -3.67060
C          2.48640        1.96270       -5.38000
C          1.56990        0.93160       -5.30020
C          1.42190       -2.64240       -4.09450
C          0.95690       -3.46040       -3.07600
C          1.54140       -4.69400       -2.84880
C          2.59050       -5.14480       -3.63720
C          3.25490       -6.46110       -3.35420
C          4.39620       -6.27790       -2.35140
C          3.04220       -4.32640       -4.66540
C          2.46560       -3.09310       -4.89520
C         -0.23240       -0.82450       -3.39270
C         -0.24050       -0.50160       -2.01910
C          0.77810       -0.58620       -1.06870
C          0.47910       -0.27390        0.23610
S          1.62040       -0.36470        1.56280
C          0.10450       -1.85740       -6.93170
C         -1.07360       -1.79320       -7.67340
S         -2.41500       -1.16530       -6.70240
C         -1.39140       -2.13440       -8.99730
C         -0.64800       -2.67770      -10.01500
C          0.78260       -3.08140      -10.01130
O          1.59830       -2.99020       -9.11320
C          1.03120       -3.62590      -11.34770
C         -0.16340       -3.55000      -12.13170
C          0.00210       -4.03830      -13.38970
S          1.61970       -4.59660      -13.62520
C          2.09480       -4.16790      -11.99960
C          3.46660       -4.40100      -11.49510
C         -1.21540       -2.96570      -11.32530
C         -2.49270       -2.75680      -11.78300
C         -3.57620       -2.20470      -11.07390
N         -4.51260       -1.76660      -10.57170
C         -2.85620       -3.10370      -13.10060
N         -3.17740       -3.37770      -14.16810
H         -0.81530        1.45360        8.22390
H          4.99120       -0.78990        9.08960
H          5.77970       -0.90460       11.44350
H          4.17030       -1.09810       14.09930
H          5.56190       -0.08170       13.73250
H          4.04470        0.64760       14.28880
H          2.13480        0.84390       12.81000
H         -3.02140        0.97760        6.71290
H         -2.14910        2.47420        7.03650
H         -2.95950        2.25630        5.48920
H         -4.21570        0.73380        4.52250
H         -5.62270       -1.15050        5.17960
H         -4.79050       -4.69550        4.51090
H         -5.78060       -3.61000        5.49720
H         -7.08210       -2.95840        3.46980
H         -6.09530       -4.03930        2.48620
H         -7.15280       -4.70340        3.73640
H         -3.07430       -3.80480        3.02740
H         -1.64880       -1.93440        2.39250
H         -0.90670        3.08950        3.54890
H         -1.78220        5.31580        3.07400
H         -3.81390        6.67080        2.60330
H         -5.22320        5.92620        1.83460
H         -4.01610        7.39590        0.23420
H         -3.94190        5.71240       -0.29740
H         -2.53880        6.45530        0.46930
H         -5.22970        3.54320        1.31780
H         -5.09410        1.27620        0.63200
H         -5.50940        0.89930        2.29640
H         -4.15180        0.08360        1.54110
H         -2.81050        0.60280       -0.03510
H          3.25570       -1.10830       -3.20950
H          4.86430        0.72790       -3.34220
H          5.67150        2.68420       -4.56600
H          4.62330        3.51930       -5.72150
H          4.35540        3.65040       -2.67850
H          5.01510        4.92420       -3.71040
H          3.30890        4.48050       -3.82930
H          2.26630        2.82270       -5.99610
H          0.64310        1.00090       -5.85090
H          0.13650       -3.13890       -2.45170
H          1.17080       -5.31650       -2.04680
H          3.65310       -6.88110       -4.27990
H          2.52630       -7.16390       -2.94510
H          4.87830       -7.23050       -2.14480
H          4.01710       -5.87030       -1.41680
H          5.14050       -5.59040       -2.74720
H          3.85360       -4.66000       -5.29610
H          2.83340       -2.46880       -5.69570
H          1.76680       -0.90440       -1.35460
H          1.02310       -2.21540       -7.35750
H         -2.42890       -1.93480       -9.24050
H         -0.69820       -4.11440      -14.19680
H          4.19680       -3.86910      -12.10430
H          3.71340       -5.46190      -11.52970
H          3.53090       -4.05040      -10.46760
