
  xtb     02012216143D
 energy: -237.873474401644 gnorm: 0.000937628149 xtb: 6.4.1 (unknown)
150164  0     0  0            999 V2000
   -6.8670    2.8111   -4.5311 C   0  0  0  0  0  0  0  0  0  0  0  0
   -7.0519    2.6461   -5.8710 C   0  0  0  0  0  0  0  0  0  0  0  0
   -7.8284    3.6487   -6.6480 C   0  0  0  0  0  0  0  0  0  0  0  0
   -8.5374    4.5217   -6.1983 O   0  0  0  0  0  0  0  0  0  0  0  0
   -7.4977    3.3756   -8.0595 C   0  0  0  0  0  0  0  0  0  0  0  0
   -7.8408    4.0811   -9.1956 C   0  0  0  0  0  0  0  0  0  0  0  0
   -7.3765    3.6257  -10.4211 C   0  0  0  0  0  0  0  0  0  0  0  0
   -6.5782    2.4895  -10.5185 C   0  0  0  0  0  0  0  0  0  0  0  0
   -6.0796    2.0108  -11.8448 C   0  0  0  0  0  0  0  0  0  0  0  0
   -6.2402    1.7765   -9.3670 C   0  0  0  0  0  0  0  0  0  0  0  0
   -6.7024    2.2161   -8.1418 C   0  0  0  0  0  0  0  0  0  0  0  0
   -6.5446    1.6624   -6.7990 C   0  0  0  0  0  0  0  0  0  0  0  0
   -6.2511    0.3545   -6.5078 C   0  0  0  0  0  0  0  0  0  0  0  0
   -5.8694   -0.5990   -7.4709 C   0  0  0  0  0  0  0  0  0  0  0  0
   -5.5439   -1.4119   -8.2137 N   0  0  0  0  0  0  0  0  0  0  0  0
   -6.4028   -0.1952   -5.2199 C   0  0  0  0  0  0  0  0  0  0  0  0
   -6.5729   -0.6807   -4.1928 N   0  0  0  0  0  0  0  0  0  0  0  0
   -5.8531    2.2666   -3.7144 C   0  0  0  0  0  0  0  0  0  0  0  0
   -4.3014    1.8136   -4.4102 S   0  0  0  0  0  0  0  0  0  0  0  0
   -3.7231    1.4191   -2.8537 C   0  0  0  0  0  0  0  0  0  0  0  0
   -2.4946    1.0213   -2.2808 C   0  0  0  0  0  0  0  0  0  0  0  0
   -2.6346    0.9646   -0.9069 C   0  0  0  0  0  0  0  0  0  0  0  0
   -4.0926    1.1522   -0.5156 C   0  0  0  0  0  0  0  0  0  0  0  0
   -4.6745    1.5945   -1.8471 C   0  0  0  0  0  0  0  0  0  0  0  0
   -5.8798    2.1105   -2.3253 C   0  0  0  0  0  0  0  0  0  0  0  0
   -7.0775    2.4204   -1.4989 C   0  0  0  0  0  0  0  0  0  0  0  0
   -4.5221   -0.2745   -0.1722 C   0  0  0  0  0  0  0  0  0  0  0  0
   -4.1479   -0.8259    1.0476 C   0  0  0  0  0  0  0  0  0  0  0  0
   -4.4616   -2.1345    1.3576 C   0  0  0  0  0  0  0  0  0  0  0  0
   -5.1534   -2.9349    0.4577 C   0  0  0  0  0  0  0  0  0  0  0  0
   -5.4556   -4.3702    0.7772 C   0  0  0  0  0  0  0  0  0  0  0  0
   -4.3143   -5.2739    0.3062 C   0  0  0  0  0  0  0  0  0  0  0  0
   -5.5167   -2.3838   -0.7627 C   0  0  0  0  0  0  0  0  0  0  0  0
   -5.2027   -1.0747   -1.0808 C   0  0  0  0  0  0  0  0  0  0  0  0
   -4.2938    2.1800    0.5813 C   0  0  0  0  0  0  0  0  0  0  0  0
   -3.3857    3.2371    0.6099 C   0  0  0  0  0  0  0  0  0  0  0  0
   -3.4560    4.2350    1.5588 C   0  0  0  0  0  0  0  0  0  0  0  0
   -4.4585    4.2121    2.5184 C   0  0  0  0  0  0  0  0  0  0  0  0
   -4.5216    5.2495    3.6011 C   0  0  0  0  0  0  0  0  0  0  0  0
   -3.7423    4.7810    4.8316 C   0  0  0  0  0  0  0  0  0  0  0  0
   -5.3791    3.1793    2.4695 C   0  0  0  0  0  0  0  0  0  0  0  0
   -5.3316    2.1641    1.5176 C   0  0  0  0  0  0  0  0  0  0  0  0
   -6.4160    1.1263    1.5872 C   0  0  0  0  0  0  0  0  0  0  0  0
   -1.4140    0.6995   -0.2456 C   0  0  0  0  0  0  0  0  0  0  0  0
   -1.1065    0.6917    1.1164 C   0  0  0  0  0  0  0  0  0  0  0  0
    0.1908    0.4377    1.4936 C   0  0  0  0  0  0  0  0  0  0  0  0
    0.7628    0.3890    3.1515 S   0  0  0  0  0  0  0  0  0  0  0  0
    2.3587    0.0417    2.5796 C   0  0  0  0  0  0  0  0  0  0  0  0
    3.6227   -0.2102    3.1637 C   0  0  0  0  0  0  0  0  0  0  0  0
    4.5401   -0.4663    2.1314 C   0  0  0  0  0  0  0  0  0  0  0  0
    3.8685   -0.3734    0.7768 C   0  0  0  0  0  0  0  0  0  0  0  0
    3.8111   -1.7124    0.0572 C   0  0  0  0  0  0  0  0  0  0  0  0
    3.7886   -1.7804   -1.3291 C   0  0  0  0  0  0  0  0  0  0  0  0
    3.6775   -3.0003   -1.9698 C   0  0  0  0  0  0  0  0  0  0  0  0
    3.5786   -4.1813   -1.2468 C   0  0  0  0  0  0  0  0  0  0  0  0
    3.5088   -5.5078   -1.9459 C   0  0  0  0  0  0  0  0  0  0  0  0
    4.9164   -6.0580   -2.1847 C   0  0  0  0  0  0  0  0  0  0  0  0
    3.5940   -4.1071    0.1398 C   0  0  0  0  0  0  0  0  0  0  0  0
    3.7020   -2.8900    0.7852 C   0  0  0  0  0  0  0  0  0  0  0  0
    4.5691    0.6932   -0.0399 C   0  0  0  0  0  0  0  0  0  0  0  0
    4.0186    1.9498   -0.2411 C   0  0  0  0  0  0  0  0  0  0  0  0
    4.7042    2.9048   -0.9715 C   0  0  0  0  0  0  0  0  0  0  0  0
    5.9558    2.6350   -1.5061 C   0  0  0  0  0  0  0  0  0  0  0  0
    6.6754    3.6547   -2.3404 C   0  0  0  0  0  0  0  0  0  0  0  0
    6.3165    3.4832   -3.8181 C   0  0  0  0  0  0  0  0  0  0  0  0
    6.5075    1.3776   -1.2917 C   0  0  0  0  0  0  0  0  0  0  0  0
    5.8265    0.4199   -0.5673 C   0  0  0  0  0  0  0  0  0  0  0  0
    2.4597   -0.0242    1.2014 C   0  0  0  0  0  0  0  0  0  0  0  0
    1.2293    0.1941    0.5467 C   0  0  0  0  0  0  0  0  0  0  0  0
    0.9341    0.2440   -0.8166 C   0  0  0  0  0  0  0  0  0  0  0  0
   -0.3624    0.5022   -1.1916 C   0  0  0  0  0  0  0  0  0  0  0  0
   -0.8986    0.6818   -2.8523 S   0  0  0  0  0  0  0  0  0  0  0  0
    5.8024   -0.7216    2.6115 C   0  0  0  0  0  0  0  0  0  0  0  0
    5.8696   -0.6764    4.0133 C   0  0  0  0  0  0  0  0  0  0  0  0
    4.3070   -0.2971    4.7274 S   0  0  0  0  0  0  0  0  0  0  0  0
    7.0678   -0.9149    4.6973 C   0  0  0  0  0  0  0  0  0  0  0  0
    7.3387   -0.9462    6.0426 C   0  0  0  0  0  0  0  0  0  0  0  0
    6.3596   -0.7484    7.1189 C   0  0  0  0  0  0  0  0  0  0  0  0
    5.1755   -0.4819    7.0028 O   0  0  0  0  0  0  0  0  0  0  0  0
    7.0939   -0.9429    8.3786 C   0  0  0  0  0  0  0  0  0  0  0  0
    6.6308   -0.8873    9.6780 C   0  0  0  0  0  0  0  0  0  0  0  0
    7.5298   -1.1202   10.7078 C   0  0  0  0  0  0  0  0  0  0  0  0
    8.8675   -1.4048   10.4484 C   0  0  0  0  0  0  0  0  0  0  0  0
    9.8209   -1.6785   11.5679 C   0  0  0  0  0  0  0  0  0  0  0  0
    9.3267   -1.4574    9.1313 C   0  0  0  0  0  0  0  0  0  0  0  0
    8.4421   -1.2253    8.0941 C   0  0  0  0  0  0  0  0  0  0  0  0
    8.6298   -1.2133    6.6425 C   0  0  0  0  0  0  0  0  0  0  0  0
    9.8269   -1.4042    6.0007 C   0  0  0  0  0  0  0  0  0  0  0  0
   11.0498   -1.6467    6.6602 C   0  0  0  0  0  0  0  0  0  0  0  0
   12.0791   -1.8516    7.1269 N   0  0  0  0  0  0  0  0  0  0  0  0
   10.0311   -1.3769    4.6057 C   0  0  0  0  0  0  0  0  0  0  0  0
   10.2885   -1.3671    3.4858 N   0  0  0  0  0  0  0  0  0  0  0  0
   -7.5375    3.5252   -4.0621 H   0  0  0  0  0  0  0  0  0  0  0  0
   -8.4570    4.9639   -9.1208 H   0  0  0  0  0  0  0  0  0  0  0  0
   -7.6367    4.1644  -11.3206 H   0  0  0  0  0  0  0  0  0  0  0  0
   -6.3463    2.7021  -12.6397 H   0  0  0  0  0  0  0  0  0  0  0  0
   -6.5072    1.0350  -12.0728 H   0  0  0  0  0  0  0  0  0  0  0  0
   -4.9969    1.8972  -11.8240 H   0  0  0  0  0  0  0  0  0  0  0  0
   -5.6147    0.9011   -9.4481 H   0  0  0  0  0  0  0  0  0  0  0  0
   -7.7150    3.1510   -1.9895 H   0  0  0  0  0  0  0  0  0  0  0  0
   -7.6643    1.5148   -1.3439 H   0  0  0  0  0  0  0  0  0  0  0  0
   -6.7706    2.8068   -0.5307 H   0  0  0  0  0  0  0  0  0  0  0  0
   -3.6248   -0.2222    1.7719 H   0  0  0  0  0  0  0  0  0  0  0  0
   -4.1645   -2.5391    2.3150 H   0  0  0  0  0  0  0  0  0  0  0  0
   -5.5888   -4.4904    1.8545 H   0  0  0  0  0  0  0  0  0  0  0  0
   -6.3804   -4.6721    0.2818 H   0  0  0  0  0  0  0  0  0  0  0  0
   -4.5324   -6.3141    0.5368 H   0  0  0  0  0  0  0  0  0  0  0  0
   -3.3840   -4.9961    0.7971 H   0  0  0  0  0  0  0  0  0  0  0  0
   -4.1754   -5.1773   -0.7682 H   0  0  0  0  0  0  0  0  0  0  0  0
   -6.0555   -2.9811   -1.4834 H   0  0  0  0  0  0  0  0  0  0  0  0
   -5.5080   -0.6904   -2.0416 H   0  0  0  0  0  0  0  0  0  0  0  0
   -2.6023    3.2740   -0.1333 H   0  0  0  0  0  0  0  0  0  0  0  0
   -2.7302    5.0349    1.5520 H   0  0  0  0  0  0  0  0  0  0  0  0
   -5.5612    5.4315    3.8812 H   0  0  0  0  0  0  0  0  0  0  0  0
   -4.0951    6.1873    3.2399 H   0  0  0  0  0  0  0  0  0  0  0  0
   -4.1635    3.8549    5.2163 H   0  0  0  0  0  0  0  0  0  0  0  0
   -3.7819    5.5328    5.6163 H   0  0  0  0  0  0  0  0  0  0  0  0
   -2.7008    4.6016    4.5742 H   0  0  0  0  0  0  0  0  0  0  0  0
   -6.1777    3.1583    3.1988 H   0  0  0  0  0  0  0  0  0  0  0  0
   -6.1629    0.3694    2.3299 H   0  0  0  0  0  0  0  0  0  0  0  0
   -6.5732    0.6212    0.6415 H   0  0  0  0  0  0  0  0  0  0  0  0
   -7.3496    1.5940    1.8967 H   0  0  0  0  0  0  0  0  0  0  0  0
   -1.8605    0.9127    1.8534 H   0  0  0  0  0  0  0  0  0  0  0  0
    3.8718   -0.8771   -1.9160 H   0  0  0  0  0  0  0  0  0  0  0  0
    3.6636   -3.0332   -3.0499 H   0  0  0  0  0  0  0  0  0  0  0  0
    2.9987   -5.3949   -2.9045 H   0  0  0  0  0  0  0  0  0  0  0  0
    2.9431   -6.2172   -1.3386 H   0  0  0  0  0  0  0  0  0  0  0  0
    5.4370   -6.1889   -1.2387 H   0  0  0  0  0  0  0  0  0  0  0  0
    5.4924   -5.3695   -2.7990 H   0  0  0  0  0  0  0  0  0  0  0  0
    4.8686   -7.0191   -2.6912 H   0  0  0  0  0  0  0  0  0  0  0  0
    3.5154   -5.0133    0.7234 H   0  0  0  0  0  0  0  0  0  0  0  0
    3.7027   -2.8570    1.8651 H   0  0  0  0  0  0  0  0  0  0  0  0
    3.0489    2.1898    0.1690 H   0  0  0  0  0  0  0  0  0  0  0  0
    4.2573    3.8770   -1.1238 H   0  0  0  0  0  0  0  0  0  0  0  0
    7.7540    3.5391   -2.2168 H   0  0  0  0  0  0  0  0  0  0  0  0
    6.3996    4.6604   -2.0172 H   0  0  0  0  0  0  0  0  0  0  0  0
    6.5953    2.4897   -4.1623 H   0  0  0  0  0  0  0  0  0  0  0  0
    5.2458    3.6078   -3.9644 H   0  0  0  0  0  0  0  0  0  0  0  0
    6.8382    4.2198   -4.4246 H   0  0  0  0  0  0  0  0  0  0  0  0
    7.4830    1.1472   -1.6953 H   0  0  0  0  0  0  0  0  0  0  0  0
    6.2657   -0.5558   -0.4198 H   0  0  0  0  0  0  0  0  0  0  0  0
    1.7101    0.0978   -1.5493 H   0  0  0  0  0  0  0  0  0  0  0  0
    6.6678   -0.9401    2.0121 H   0  0  0  0  0  0  0  0  0  0  0  0
    7.8986   -1.1131    4.0307 H   0  0  0  0  0  0  0  0  0  0  0  0
    5.5927   -0.6673    9.8744 H   0  0  0  0  0  0  0  0  0  0  0  0
    7.1887   -1.0817   11.7320 H   0  0  0  0  0  0  0  0  0  0  0  0
   10.7929   -1.2359   11.3622 H   0  0  0  0  0  0  0  0  0  0  0  0
    9.9633   -2.7542   11.6753 H   0  0  0  0  0  0  0  0  0  0  0  0
    9.4432   -1.2896   12.5099 H   0  0  0  0  0  0  0  0  0  0  0  0
   10.3651   -1.6805    8.9466 H   0  0  0  0  0  0  0  0  0  0  0  0
  1  2  2  0  0  0  0
  2  3  1  0  0  0  0
  3  4  2  0  0  0  0
  3  5  1  0  0  0  0
  5  6  2  0  0  0  0
  6  7  1  0  0  0  0
  7  8  2  0  0  0  0
  8  9  1  0  0  0  0
  8 10  1  0  0  0  0
 10 11  2  0  0  0  0
 11 12  1  0  0  0  0
 12 13  2  0  0  0  0
 13 14  1  0  0  0  0
 14 15  3  0  0  0  0
 13 16  1  0  0  0  0
 16 17  3  0  0  0  0
  1 18  1  0  0  0  0
 18 19  1  0  0  0  0
 19 20  1  0  0  0  0
 20 21  1  0  0  0  0
 21 22  2  0  0  0  0
 22 23  1  0  0  0  0
 23 24  1  0  0  0  0
 24 25  1  0  0  0  0
 25 26  1  0  0  0  0
 23 27  1  0  0  0  0
 27 28  2  0  0  0  0
 28 29  1  0  0  0  0
 29 30  2  0  0  0  0
 30 31  1  0  0  0  0
 31 32  1  0  0  0  0
 30 33  1  0  0  0  0
 33 34  2  0  0  0  0
 23 35  1  0  0  0  0
 35 36  2  0  0  0  0
 36 37  1  0  0  0  0
 37 38  2  0  0  0  0
 38 39  1  0  0  0  0
 39 40  1  0  0  0  0
 38 41  1  0  0  0  0
 41 42  2  0  0  0  0
 42 43  1  0  0  0  0
 22 44  1  0  0  0  0
 44 45  2  0  0  0  0
 45 46  1  0  0  0  0
 46 47  1  0  0  0  0
 47 48  1  0  0  0  0
 48 49  1  0  0  0  0
 49 50  2  0  0  0  0
 50 51  1  0  0  0  0
 51 52  1  0  0  0  0
 52 53  2  0  0  0  0
 53 54  1  0  0  0  0
 54 55  2  0  0  0  0
 55 56  1  0  0  0  0
 56 57  1  0  0  0  0
 55 58  1  0  0  0  0
 58 59  2  0  0  0  0
 51 60  1  0  0  0  0
 60 61  2  0  0  0  0
 61 62  1  0  0  0  0
 62 63  2  0  0  0  0
 63 64  1  0  0  0  0
 64 65  1  0  0  0  0
 63 66  1  0  0  0  0
 66 67  2  0  0  0  0
 51 68  1  0  0  0  0
 68 69  1  0  0  0  0
 69 70  1  0  0  0  0
 70 71  2  0  0  0  0
 71 72  1  0  0  0  0
 50 73  1  0  0  0  0
 73 74  2  0  0  0  0
 74 75  1  0  0  0  0
 74 76  1  0  0  0  0
 76 77  2  0  0  0  0
 77 78  1  0  0  0  0
 78 79  2  0  0  0  0
 78 80  1  0  0  0  0
 80 81  2  0  0  0  0
 81 82  1  0  0  0  0
 82 83  2  0  0  0  0
 83 84  1  0  0  0  0
 83 85  1  0  0  0  0
 85 86  2  0  0  0  0
 86 87  1  0  0  0  0
 87 88  2  0  0  0  0
 88 89  1  0  0  0  0
 89 90  3  0  0  0  0
 88 91  1  0  0  0  0
 91 92  3  0  0  0  0
 12  2  1  0  0  0  0
 25 18  2  0  0  0  0
 34 27  1  0  0  0  0
 42 35  1  0  0  0  0
 71 44  1  0  0  0  0
 87 77  1  0  0  0  0
 11  5  1  0  0  0  0
 24 20  2  0  0  0  0
 69 46  2  0  0  0  0
 86 80  1  0  0  0  0
 72 21  1  0  0  0  0
 68 48  2  0  0  0  0
 75 49  1  0  0  0  0
 59 52  1  0  0  0  0
 67 60  1  0  0  0  0
  1 93  1  0  0  0  0
  6 94  1  0  0  0  0
  7 95  1  0  0  0  0
  9 96  1  0  0  0  0
  9 97  1  0  0  0  0
  9 98  1  0  0  0  0
 10 99  1  0  0  0  0
 26100  1  0  0  0  0
 26101  1  0  0  0  0
 26102  1  0  0  0  0
 28103  1  0  0  0  0
 29104  1  0  0  0  0
 31105  1  0  0  0  0
 31106  1  0  0  0  0
 32107  1  0  0  0  0
 32108  1  0  0  0  0
 32109  1  0  0  0  0
 33110  1  0  0  0  0
 34111  1  0  0  0  0
 36112  1  0  0  0  0
 37113  1  0  0  0  0
 39114  1  0  0  0  0
 39115  1  0  0  0  0
 40116  1  0  0  0  0
 40117  1  0  0  0  0
 40118  1  0  0  0  0
 41119  1  0  0  0  0
 43120  1  0  0  0  0
 43121  1  0  0  0  0
 43122  1  0  0  0  0
 45123  1  0  0  0  0
 53124  1  0  0  0  0
 54125  1  0  0  0  0
 56126  1  0  0  0  0
 56127  1  0  0  0  0
 57128  1  0  0  0  0
 57129  1  0  0  0  0
 57130  1  0  0  0  0
 58131  1  0  0  0  0
 59132  1  0  0  0  0
 61133  1  0  0  0  0
 62134  1  0  0  0  0
 64135  1  0  0  0  0
 64136  1  0  0  0  0
 65137  1  0  0  0  0
 65138  1  0  0  0  0
 65139  1  0  0  0  0
 66140  1  0  0  0  0
 67141  1  0  0  0  0
 70142  1  0  0  0  0
 73143  1  0  0  0  0
 76144  1  0  0  0  0
 81145  1  0  0  0  0
 82146  1  0  0  0  0
 84147  1  0  0  0  0
 84148  1  0  0  0  0
 84149  1  0  0  0  0
 85150  1  0  0  0  0
M  END
