
  xtb     02102218343D
 energy: -187.689574726284 gnorm: 0.000874223104 xtb: 6.4.1 (unknown)
118128  0     0  0            999 V2000
   -8.0848   -0.9789    1.3730 C   0  0  0  0  0  0  0  0  0  0  0  0
   -9.2116   -1.3291    0.6752 C   0  0  0  0  0  0  0  0  0  0  0  0
   -9.3469   -1.6828   -0.7572 C   0  0  0  0  0  0  0  0  0  0  0  0
   -8.5226   -1.5973   -1.6470 O   0  0  0  0  0  0  0  0  0  0  0  0
  -10.7220   -2.1858   -0.9148 C   0  0  0  0  0  0  0  0  0  0  0  0
  -11.3310   -2.6961   -2.0450 C   0  0  0  0  0  0  0  0  0  0  0  0
  -12.6452   -3.1238   -1.9476 C   0  0  0  0  0  0  0  0  0  0  0  0
  -13.3428   -3.0472   -0.7440 C   0  0  0  0  0  0  0  0  0  0  0  0
  -14.7512   -3.5426   -0.6541 C   0  0  0  0  0  0  0  0  0  0  0  0
  -12.7202   -2.5279    0.3907 C   0  0  0  0  0  0  0  0  0  0  0  0
  -11.4087   -2.0933    0.3065 C   0  0  0  0  0  0  0  0  0  0  0  0
  -10.5120   -1.5078    1.3011 C   0  0  0  0  0  0  0  0  0  0  0  0
  -10.8838   -1.1453    2.5699 C   0  0  0  0  0  0  0  0  0  0  0  0
  -10.0728   -0.5061    3.5317 C   0  0  0  0  0  0  0  0  0  0  0  0
   -9.5019    0.0300    4.3724 N   0  0  0  0  0  0  0  0  0  0  0  0
  -12.1797   -1.3314    3.0967 C   0  0  0  0  0  0  0  0  0  0  0  0
  -13.2077   -1.4514    3.5943 N   0  0  0  0  0  0  0  0  0  0  0  0
   -6.7598   -0.7512    0.9633 C   0  0  0  0  0  0  0  0  0  0  0  0
   -5.5990   -0.4203    2.2552 S   0  0  0  0  0  0  0  0  0  0  0  0
   -4.3511   -0.2577    1.1043 C   0  0  0  0  0  0  0  0  0  0  0  0
   -2.9469   -0.0020    1.1325 C   0  0  0  0  0  0  0  0  0  0  0  0
   -2.4965   -0.0136   -0.2086 C   0  0  0  0  0  0  0  0  0  0  0  0
   -3.6429   -0.2938   -1.1690 C   0  0  0  0  0  0  0  0  0  0  0  0
   -4.7963   -0.4232   -0.2053 C   0  0  0  0  0  0  0  0  0  0  0  0
   -6.1470   -0.7157   -0.2859 C   0  0  0  0  0  0  0  0  0  0  0  0
   -3.8052    0.9136   -2.1134 C   0  0  0  0  0  0  0  0  0  0  0  0
   -4.9576    0.8085   -3.1035 C   0  0  0  0  0  0  0  0  0  0  0  0
   -3.4958   -1.6452   -1.9007 C   0  0  0  0  0  0  0  0  0  0  0  0
   -2.3548   -1.7423   -2.9046 C   0  0  0  0  0  0  0  0  0  0  0  0
   -1.1719    0.2413   -0.4850 C   0  0  0  0  0  0  0  0  0  0  0  0
   -0.3136    0.4740    0.5867 C   0  0  0  0  0  0  0  0  0  0  0  0
    1.1182    0.6823    0.5869 C   0  0  0  0  0  0  0  0  0  0  0  0
    1.5477    0.8250    1.9199 C   0  0  0  0  0  0  0  0  0  0  0  0
    0.3676    0.7897    2.8660 C   0  0  0  0  0  0  0  0  0  0  0  0
    0.2471    2.2038    3.4844 C   0  0  0  0  0  0  0  0  0  0  0  0
   -0.9897    2.4552    4.3362 C   0  0  0  0  0  0  0  0  0  0  0  0
    0.5204   -0.2896    3.9480 C   0  0  0  0  0  0  0  0  0  0  0  0
    0.7784   -1.6711    3.3573 C   0  0  0  0  0  0  0  0  0  0  0  0
   -0.7710    0.4917    1.9190 C   0  0  0  0  0  0  0  0  0  0  0  0
   -2.0941    0.2403    2.2056 C   0  0  0  0  0  0  0  0  0  0  0  0
    2.8784    1.0048    2.2227 C   0  0  0  0  0  0  0  0  0  0  0  0
    3.7756    1.0322    1.1590 C   0  0  0  0  0  0  0  0  0  0  0  0
    5.1949    1.1920    1.1301 C   0  0  0  0  0  0  0  0  0  0  0  0
    5.6657    1.1615   -0.1828 C   0  0  0  0  0  0  0  0  0  0  0  0
    4.5242    0.9598   -1.1391 C   0  0  0  0  0  0  0  0  0  0  0  0
    3.3491    0.8930   -0.1831 C   0  0  0  0  0  0  0  0  0  0  0  0
    2.0166    0.7173   -0.4768 C   0  0  0  0  0  0  0  0  0  0  0  0
    4.6838   -0.3517   -1.9316 C   0  0  0  0  0  0  0  0  0  0  0  0
    4.8143   -1.5774   -1.0356 C   0  0  0  0  0  0  0  0  0  0  0  0
    4.3966    2.1421   -2.1178 C   0  0  0  0  0  0  0  0  0  0  0  0
    4.2545    3.4854   -1.4126 C   0  0  0  0  0  0  0  0  0  0  0  0
    7.0340    1.3223   -0.2820 C   0  0  0  0  0  0  0  0  0  0  0  0
    7.6400    1.4808    0.9636 C   0  0  0  0  0  0  0  0  0  0  0  0
    6.4443    1.4106    2.2686 S   0  0  0  0  0  0  0  0  0  0  0  0
    8.9725    1.6546    1.3648 C   0  0  0  0  0  0  0  0  0  0  0  0
   10.1285    1.8471    0.6479 C   0  0  0  0  0  0  0  0  0  0  0  0
   10.2803    2.0696   -0.8066 C   0  0  0  0  0  0  0  0  0  0  0  0
    9.4460    1.9802   -1.6815 O   0  0  0  0  0  0  0  0  0  0  0  0
   11.6980    2.4490   -0.9994 C   0  0  0  0  0  0  0  0  0  0  0  0
   12.3724    2.8201   -2.1484 C   0  0  0  0  0  0  0  0  0  0  0  0
   11.7477    2.8709   -3.3298 F   0  0  0  0  0  0  0  0  0  0  0  0
   13.7202    3.1509   -2.0864 C   0  0  0  0  0  0  0  0  0  0  0  0
   14.3778    3.1079   -0.8694 C   0  0  0  0  0  0  0  0  0  0  0  0
   13.7219    2.7353    0.2975 C   0  0  0  0  0  0  0  0  0  0  0  0
   12.3788    2.4028    0.2293 C   0  0  0  0  0  0  0  0  0  0  0  0
   11.4352    1.9752    1.2632 C   0  0  0  0  0  0  0  0  0  0  0  0
   11.7778    1.6884    2.5599 C   0  0  0  0  0  0  0  0  0  0  0  0
   13.0806    1.8200    3.0856 C   0  0  0  0  0  0  0  0  0  0  0  0
   14.1108    1.9036    3.5856 N   0  0  0  0  0  0  0  0  0  0  0  0
   10.9165    1.1850    3.5583 C   0  0  0  0  0  0  0  0  0  0  0  0
   10.3020    0.7556    4.4290 N   0  0  0  0  0  0  0  0  0  0  0  0
   -8.2135   -0.8712    2.4440 H   0  0  0  0  0  0  0  0  0  0  0  0
  -10.7850   -2.7540   -2.9741 H   0  0  0  0  0  0  0  0  0  0  0  0
  -13.1422   -3.5264   -2.8182 H   0  0  0  0  0  0  0  0  0  0  0  0
  -14.7528   -4.5955   -0.3698 H   0  0  0  0  0  0  0  0  0  0  0  0
  -15.2589   -3.4523   -1.6114 H   0  0  0  0  0  0  0  0  0  0  0  0
  -15.3083   -2.9925    0.1001 H   0  0  0  0  0  0  0  0  0  0  0  0
  -13.2712   -2.4783    1.3158 H   0  0  0  0  0  0  0  0  0  0  0  0
   -6.6981   -0.9136   -1.1861 H   0  0  0  0  0  0  0  0  0  0  0  0
   -3.9506    1.8006   -1.4904 H   0  0  0  0  0  0  0  0  0  0  0  0
   -2.8702    1.0519   -2.6588 H   0  0  0  0  0  0  0  0  0  0  0  0
   -4.9963    1.7121   -3.7085 H   0  0  0  0  0  0  0  0  0  0  0  0
   -5.9078    0.7072   -2.5879 H   0  0  0  0  0  0  0  0  0  0  0  0
   -4.8314   -0.0390   -3.7713 H   0  0  0  0  0  0  0  0  0  0  0  0
   -3.3616   -2.4191   -1.1398 H   0  0  0  0  0  0  0  0  0  0  0  0
   -4.4399   -1.8495   -2.4079 H   0  0  0  0  0  0  0  0  0  0  0  0
   -2.4195   -0.9619   -3.6579 H   0  0  0  0  0  0  0  0  0  0  0  0
   -1.3906   -1.6778   -2.4083 H   0  0  0  0  0  0  0  0  0  0  0  0
   -2.4058   -2.7038   -3.4113 H   0  0  0  0  0  0  0  0  0  0  0  0
   -0.7952    0.2645   -1.4953 H   0  0  0  0  0  0  0  0  0  0  0  0
    0.2622    2.9294    2.6665 H   0  0  0  0  0  0  0  0  0  0  0  0
    1.1389    2.3741    4.0916 H   0  0  0  0  0  0  0  0  0  0  0  0
   -1.8942    2.3971    3.7371 H   0  0  0  0  0  0  0  0  0  0  0  0
   -1.0602    1.7446    5.1552 H   0  0  0  0  0  0  0  0  0  0  0  0
   -0.9329    3.4543    4.7629 H   0  0  0  0  0  0  0  0  0  0  0  0
    1.3469   -0.0150    4.6063 H   0  0  0  0  0  0  0  0  0  0  0  0
   -0.3897   -0.3246    4.5475 H   0  0  0  0  0  0  0  0  0  0  0  0
    0.8652   -2.4078    4.1524 H   0  0  0  0  0  0  0  0  0  0  0  0
    1.7004   -1.6786    2.7801 H   0  0  0  0  0  0  0  0  0  0  0  0
   -0.0384   -1.9666    2.7021 H   0  0  0  0  0  0  0  0  0  0  0  0
   -2.4766    0.2156    3.2139 H   0  0  0  0  0  0  0  0  0  0  0  0
    3.2294    1.1135    3.2377 H   0  0  0  0  0  0  0  0  0  0  0  0
    1.6746    0.6071   -1.4947 H   0  0  0  0  0  0  0  0  0  0  0  0
    3.8172   -0.4710   -2.5849 H   0  0  0  0  0  0  0  0  0  0  0  0
    5.5711   -0.2665   -2.5616 H   0  0  0  0  0  0  0  0  0  0  0  0
    5.6884   -1.4955   -0.3937 H   0  0  0  0  0  0  0  0  0  0  0  0
    3.9345   -1.6915   -0.4056 H   0  0  0  0  0  0  0  0  0  0  0  0
    4.9206   -2.4727   -1.6432 H   0  0  0  0  0  0  0  0  0  0  0  0
    3.5268    1.9732   -2.7559 H   0  0  0  0  0  0  0  0  0  0  0  0
    5.2834    2.1598   -2.7538 H   0  0  0  0  0  0  0  0  0  0  0  0
    5.1327    3.6972   -0.8071 H   0  0  0  0  0  0  0  0  0  0  0  0
    4.1474    4.2807   -2.1461 H   0  0  0  0  0  0  0  0  0  0  0  0
    3.3796    3.4926   -0.7656 H   0  0  0  0  0  0  0  0  0  0  0  0
    7.5960    1.3347   -1.1969 H   0  0  0  0  0  0  0  0  0  0  0  0
    9.0886    1.6553    2.4427 H   0  0  0  0  0  0  0  0  0  0  0  0
   14.2337    3.4384   -2.9903 H   0  0  0  0  0  0  0  0  0  0  0  0
   15.4237    3.3696   -0.8250 H   0  0  0  0  0  0  0  0  0  0  0  0
   14.2613    2.7159    1.2293 H   0  0  0  0  0  0  0  0  0  0  0  0
  1  2  2  0  0  0  0
  2  3  1  0  0  0  0
  3  4  2  0  0  0  0
  3  5  1  0  0  0  0
  5  6  2  0  0  0  0
  6  7  1  0  0  0  0
  7  8  2  0  0  0  0
  8  9  1  0  0  0  0
  8 10  1  0  0  0  0
 10 11  2  0  0  0  0
 11 12  1  0  0  0  0
 12 13  2  0  0  0  0
 13 14  1  0  0  0  0
 14 15  3  0  0  0  0
 13 16  1  0  0  0  0
 16 17  3  0  0  0  0
  1 18  1  0  0  0  0
 18 19  1  0  0  0  0
 19 20  1  0  0  0  0
 20 21  1  0  0  0  0
 21 22  2  0  0  0  0
 22 23  1  0  0  0  0
 23 24  1  0  0  0  0
 24 25  1  0  0  0  0
 23 26  1  0  0  0  0
 26 27  1  0  0  0  0
 23 28  1  0  0  0  0
 28 29  1  0  0  0  0
 22 30  1  0  0  0  0
 30 31  2  0  0  0  0
 31 32  1  0  0  0  0
 32 33  2  0  0  0  0
 33 34  1  0  0  0  0
 34 35  1  0  0  0  0
 35 36  1  0  0  0  0
 34 37  1  0  0  0  0
 37 38  1  0  0  0  0
 34 39  1  0  0  0  0
 39 40  2  0  0  0  0
 33 41  1  0  0  0  0
 41 42  2  0  0  0  0
 42 43  1  0  0  0  0
 43 44  2  0  0  0  0
 44 45  1  0  0  0  0
 45 46  1  0  0  0  0
 46 47  2  0  0  0  0
 45 48  1  0  0  0  0
 48 49  1  0  0  0  0
 45 50  1  0  0  0  0
 50 51  1  0  0  0  0
 44 52  1  0  0  0  0
 52 53  2  0  0  0  0
 53 54  1  0  0  0  0
 53 55  1  0  0  0  0
 55 56  2  0  0  0  0
 56 57  1  0  0  0  0
 57 58  2  0  0  0  0
 57 59  1  0  0  0  0
 59 60  2  0  0  0  0
 60 61  1  0  0  0  0
 60 62  1  0  0  0  0
 62 63  2  0  0  0  0
 63 64  1  0  0  0  0
 64 65  2  0  0  0  0
 65 66  1  0  0  0  0
 66 67  2  0  0  0  0
 67 68  1  0  0  0  0
 68 69  3  0  0  0  0
 67 70  1  0  0  0  0
 70 71  3  0  0  0  0
 12  2  1  0  0  0  0
 25 18  2  0  0  0  0
 39 31  1  0  0  0  0
 46 42  1  0  0  0  0
 66 56  1  0  0  0  0
 11  5  1  0  0  0  0
 24 20  2  0  0  0  0
 47 32  1  0  0  0  0
 65 59  1  0  0  0  0
 40 21  1  0  0  0  0
 54 43  1  0  0  0  0
  1 72  1  0  0  0  0
  6 73  1  0  0  0  0
  7 74  1  0  0  0  0
  9 75  1  0  0  0  0
  9 76  1  0  0  0  0
  9 77  1  0  0  0  0
 10 78  1  0  0  0  0
 25 79  1  0  0  0  0
 26 80  1  0  0  0  0
 26 81  1  0  0  0  0
 27 82  1  0  0  0  0
 27 83  1  0  0  0  0
 27 84  1  0  0  0  0
 28 85  1  0  0  0  0
 28 86  1  0  0  0  0
 29 87  1  0  0  0  0
 29 88  1  0  0  0  0
 29 89  1  0  0  0  0
 30 90  1  0  0  0  0
 35 91  1  0  0  0  0
 35 92  1  0  0  0  0
 36 93  1  0  0  0  0
 36 94  1  0  0  0  0
 36 95  1  0  0  0  0
 37 96  1  0  0  0  0
 37 97  1  0  0  0  0
 38 98  1  0  0  0  0
 38 99  1  0  0  0  0
 38100  1  0  0  0  0
 40101  1  0  0  0  0
 41102  1  0  0  0  0
 47103  1  0  0  0  0
 48104  1  0  0  0  0
 48105  1  0  0  0  0
 49106  1  0  0  0  0
 49107  1  0  0  0  0
 49108  1  0  0  0  0
 50109  1  0  0  0  0
 50110  1  0  0  0  0
 51111  1  0  0  0  0
 51112  1  0  0  0  0
 51113  1  0  0  0  0
 52114  1  0  0  0  0
 55115  1  0  0  0  0
 62116  1  0  0  0  0
 63117  1  0  0  0  0
 64118  1  0  0  0  0
M  END
