150

C         -6.86700        2.81110       -4.53110
C         -7.05190        2.64610       -5.87100
C         -7.82840        3.64870       -6.64800
O         -8.53740        4.52170       -6.19830
C         -7.49770        3.37560       -8.05950
C         -7.84080        4.08110       -9.19560
C         -7.37650        3.62570      -10.42110
C         -6.57820        2.48950      -10.51850
C         -6.07960        2.01080      -11.84480
C         -6.24020        1.77650       -9.36700
C         -6.70240        2.21610       -8.14180
C         -6.54460        1.66240       -6.79900
C         -6.25110        0.35450       -6.50780
C         -5.86940       -0.59900       -7.47090
N         -5.54390       -1.41190       -8.21370
C         -6.40280       -0.19520       -5.21990
N         -6.57290       -0.68070       -4.19280
C         -5.85310        2.26660       -3.71440
S         -4.30140        1.81360       -4.41020
C         -3.72310        1.41910       -2.85370
C         -2.49460        1.02130       -2.28080
C         -2.63460        0.96460       -0.90690
C         -4.09260        1.15220       -0.51560
C         -4.67450        1.59450       -1.84710
C         -5.87980        2.11050       -2.32530
C         -7.07750        2.42040       -1.49890
C         -4.52210       -0.27450       -0.17220
C         -4.14790       -0.82590        1.04760
C         -4.46160       -2.13450        1.35760
C         -5.15340       -2.93490        0.45770
C         -5.45560       -4.37020        0.77720
C         -4.31430       -5.27390        0.30620
C         -5.51670       -2.38380       -0.76270
C         -5.20270       -1.07470       -1.08080
C         -4.29380        2.18000        0.58130
C         -3.38570        3.23710        0.60990
C         -3.45600        4.23500        1.55880
C         -4.45850        4.21210        2.51840
C         -4.52160        5.24950        3.60110
C         -3.74230        4.78100        4.83160
C         -5.37910        3.17930        2.46950
C         -5.33160        2.16410        1.51760
C         -6.41600        1.12630        1.58720
C         -1.41400        0.69950       -0.24560
C         -1.10650        0.69170        1.11640
C          0.19080        0.43770        1.49360
S          0.76280        0.38900        3.15150
C          2.35870        0.04170        2.57960
C          3.62270       -0.21020        3.16370
C          4.54010       -0.46630        2.13140
C          3.86850       -0.37340        0.77680
C          3.81110       -1.71240        0.05720
C          3.78860       -1.78040       -1.32910
C          3.67750       -3.00030       -1.96980
C          3.57860       -4.18130       -1.24680
C          3.50880       -5.50780       -1.94590
C          4.91640       -6.05800       -2.18470
C          3.59400       -4.10710        0.13980
C          3.70200       -2.89000        0.78520
C          4.56910        0.69320       -0.03990
C          4.01860        1.94980       -0.24110
C          4.70420        2.90480       -0.97150
C          5.95580        2.63500       -1.50610
C          6.67540        3.65470       -2.34040
C          6.31650        3.48320       -3.81810
C          6.50750        1.37760       -1.29170
C          5.82650        0.41990       -0.56730
C          2.45970       -0.02420        1.20140
C          1.22930        0.19410        0.54670
C          0.93410        0.24400       -0.81660
C         -0.36240        0.50220       -1.19160
S         -0.89860        0.68180       -2.85230
C          5.80240       -0.72160        2.61150
C          5.86960       -0.67640        4.01330
S          4.30700       -0.29710        4.72740
C          7.06780       -0.91490        4.69730
C          7.33870       -0.94620        6.04260
C          6.35960       -0.74840        7.11890
O          5.17550       -0.48190        7.00280
C          7.09390       -0.94290        8.37860
C          6.63080       -0.88730        9.67800
C          7.52980       -1.12020       10.70780
C          8.86750       -1.40480       10.44840
C          9.82090       -1.67850       11.56790
C          9.32670       -1.45740        9.13130
C          8.44210       -1.22530        8.09410
C          8.62980       -1.21330        6.64250
C          9.82690       -1.40420        6.00070
C         11.04980       -1.64670        6.66020
N         12.07910       -1.85160        7.12690
C         10.03110       -1.37690        4.60570
N         10.28850       -1.36710        3.48580
H         -7.53750        3.52520       -4.06210
H         -8.45700        4.96390       -9.12080
H         -7.63670        4.16440      -11.32060
H         -6.34630        2.70210      -12.63970
H         -6.50720        1.03500      -12.07280
H         -4.99690        1.89720      -11.82400
H         -5.61470        0.90110       -9.44810
H         -7.71500        3.15100       -1.98950
H         -7.66430        1.51480       -1.34390
H         -6.77060        2.80680       -0.53070
H         -3.62480       -0.22220        1.77190
H         -4.16450       -2.53910        2.31500
H         -5.58880       -4.49040        1.85450
H         -6.38040       -4.67210        0.28180
H         -4.53240       -6.31410        0.53680
H         -3.38400       -4.99610        0.79710
H         -4.17540       -5.17730       -0.76820
H         -6.05550       -2.98110       -1.48340
H         -5.50800       -0.69040       -2.04160
H         -2.60230        3.27400       -0.13330
H         -2.73020        5.03490        1.55200
H         -5.56120        5.43150        3.88120
H         -4.09510        6.18730        3.23990
H         -4.16350        3.85490        5.21630
H         -3.78190        5.53280        5.61630
H         -2.70080        4.60160        4.57420
H         -6.17770        3.15830        3.19880
H         -6.16290        0.36940        2.32990
H         -6.57320        0.62120        0.64150
H         -7.34960        1.59400        1.89670
H         -1.86050        0.91270        1.85340
H          3.87180       -0.87710       -1.91600
H          3.66360       -3.03320       -3.04990
H          2.99870       -5.39490       -2.90450
H          2.94310       -6.21720       -1.33860
H          5.43700       -6.18890       -1.23870
H          5.49240       -5.36950       -2.79900
H          4.86860       -7.01910       -2.69120
H          3.51540       -5.01330        0.72340
H          3.70270       -2.85700        1.86510
H          3.04890        2.18980        0.16900
H          4.25730        3.87700       -1.12380
H          7.75400        3.53910       -2.21680
H          6.39960        4.66040       -2.01720
H          6.59530        2.48970       -4.16230
H          5.24580        3.60780       -3.96440
H          6.83820        4.21980       -4.42460
H          7.48300        1.14720       -1.69530
H          6.26570       -0.55580       -0.41980
H          1.71010        0.09780       -1.54930
H          6.66780       -0.94010        2.01210
H          7.89860       -1.11310        4.03070
H          5.59270       -0.66730        9.87440
H          7.18870       -1.08170       11.73200
H         10.79290       -1.23590       11.36220
H          9.96330       -2.75420       11.67530
H          9.44320       -1.28960       12.50990
H         10.36510       -1.68050        8.94660
