
  xtb     02102220233D
 energy: -307.178596293139 gnorm: 0.000406359813 xtb: 6.4.1 (unknown)
194213  0     0  0            999 V2000
    3.8261    4.3386   -9.9979 C   0  0  0  0  0  0  0  0  0  0  0  0
    4.6121    3.7805  -10.9661 C   0  0  0  0  0  0  0  0  0  0  0  0
    5.2705    2.4494  -10.9338 C   0  0  0  0  0  0  0  0  0  0  0  0
    5.4156    1.6977   -9.9915 O   0  0  0  0  0  0  0  0  0  0  0  0
    5.6757    2.1802  -12.3242 C   0  0  0  0  0  0  0  0  0  0  0  0
    6.2734    1.0491  -12.8469 C   0  0  0  0  0  0  0  0  0  0  0  0
    6.5580    1.0224  -14.2023 C   0  0  0  0  0  0  0  0  0  0  0  0
    6.2475    2.1009  -15.0292 C   0  0  0  0  0  0  0  0  0  0  0  0
    6.5384    2.0307  -16.4945 C   0  0  0  0  0  0  0  0  0  0  0  0
    5.6448    3.2379  -14.4935 C   0  0  0  0  0  0  0  0  0  0  0  0
    5.3614    3.2807  -13.1391 C   0  0  0  0  0  0  0  0  0  0  0  0
    4.7547    4.3167  -12.3086 C   0  0  0  0  0  0  0  0  0  0  0  0
    4.4580    5.5912  -12.7143 C   0  0  0  0  0  0  0  0  0  0  0  0
    4.6409    6.0624  -14.0312 C   0  0  0  0  0  0  0  0  0  0  0  0
    4.7635    6.5032  -15.0842 N   0  0  0  0  0  0  0  0  0  0  0  0
    3.9743    6.6217  -11.8802 C   0  0  0  0  0  0  0  0  0  0  0  0
    3.6029    7.5208  -11.2695 N   0  0  0  0  0  0  0  0  0  0  0  0
    3.6463    3.9371   -8.6555 C   0  0  0  0  0  0  0  0  0  0  0  0
    4.4225    3.1752   -7.8215 C   0  0  0  0  0  0  0  0  0  0  0  0
    3.8777    2.9963   -6.5355 C   0  0  0  0  0  0  0  0  0  0  0  0
    4.4389    2.2242   -5.5016 C   0  0  0  0  0  0  0  0  0  0  0  0
    5.6398    1.5857   -5.6278 O   0  0  0  0  0  0  0  0  0  0  0  0
    5.6245    0.3930   -6.4136 C   0  0  0  0  0  0  0  0  0  0  0  0
    7.0450   -0.1378   -6.4741 C   0  0  0  0  0  0  0  0  0  0  0  0
    3.7301    2.1602   -4.3197 C   0  0  0  0  0  0  0  0  0  0  0  0
    4.2458    1.2410   -2.9232 S   0  0  0  0  0  0  0  0  0  0  0  0
    2.8187    1.7477   -2.0917 C   0  0  0  0  0  0  0  0  0  0  0  0
    2.2449    1.4405   -0.8176 C   0  0  0  0  0  0  0  0  0  0  0  0
    0.9914    2.0898   -0.7678 C   0  0  0  0  0  0  0  0  0  0  0  0
    0.7572    2.9126   -2.0315 C   0  0  0  0  0  0  0  0  0  0  0  0
    1.9992    2.5752   -2.8233 C   0  0  0  0  0  0  0  0  0  0  0  0
    2.5004    2.8440   -4.1189 C   0  0  0  0  0  0  0  0  0  0  0  0
    1.9492    3.6454   -5.1441 C   0  0  0  0  0  0  0  0  0  0  0  0
    2.6437    3.6851   -6.3470 C   0  0  0  0  0  0  0  0  0  0  0  0
    2.2059    4.5158   -7.8261 S   0  0  0  0  0  0  0  0  0  0  0  0
    0.7803    4.2475   -4.8253 O   0  0  0  0  0  0  0  0  0  0  0  0
    0.3103    5.3739   -5.5397 C   0  0  0  0  0  0  0  0  0  0  0  0
    1.1656    6.6128   -5.3058 C   0  0  0  0  0  0  0  0  0  0  0  0
    0.6814    4.3768   -1.6475 C   0  0  0  0  0  0  0  0  0  0  0  0
   -0.4342    4.8732   -0.9817 C   0  0  0  0  0  0  0  0  0  0  0  0
   -0.5024    6.2014   -0.6068 C   0  0  0  0  0  0  0  0  0  0  0  0
    0.5415    7.0759   -0.8788 C   0  0  0  0  0  0  0  0  0  0  0  0
    0.4823    8.5111   -0.4415 C   0  0  0  0  0  0  0  0  0  0  0  0
    1.0851    8.6696    0.9557 C   0  0  0  0  0  0  0  0  0  0  0  0
    1.6633    6.5737   -1.5228 C   0  0  0  0  0  0  0  0  0  0  0  0
    1.7356    5.2441   -1.8986 C   0  0  0  0  0  0  0  0  0  0  0  0
   -0.4618    2.3909   -2.7760 C   0  0  0  0  0  0  0  0  0  0  0  0
   -1.4289    3.2196   -3.3234 C   0  0  0  0  0  0  0  0  0  0  0  0
   -2.5016    2.6859   -4.0144 C   0  0  0  0  0  0  0  0  0  0  0  0
   -2.6396    1.3151   -4.1788 C   0  0  0  0  0  0  0  0  0  0  0  0
   -3.7847    0.7461   -4.9664 C   0  0  0  0  0  0  0  0  0  0  0  0
   -3.4310    0.6834   -6.4535 C   0  0  0  0  0  0  0  0  0  0  0  0
   -1.6639    0.4883   -3.6377 C   0  0  0  0  0  0  0  0  0  0  0  0
   -0.5902    1.0170   -2.9482 C   0  0  0  0  0  0  0  0  0  0  0  0
    0.1378    1.8811    0.2905 C   0  0  0  0  0  0  0  0  0  0  0  0
    0.5744    1.0260    1.2974 C   0  0  0  0  0  0  0  0  0  0  0  0
   -0.1009    0.5119    2.4486 C   0  0  0  0  0  0  0  0  0  0  0  0
    0.6717   -0.4093    3.1212 C   0  0  0  0  0  0  0  0  0  0  0  0
    2.0578   -0.4362    2.5129 C   0  0  0  0  0  0  0  0  0  0  0  0
    1.8497    0.4225    1.2726 C   0  0  0  0  0  0  0  0  0  0  0  0
    2.7001    0.6204    0.2111 C   0  0  0  0  0  0  0  0  0  0  0  0
    2.9769    0.2864    3.4937 C   0  0  0  0  0  0  0  0  0  0  0  0
    3.7161   -0.4196    4.4318 C   0  0  0  0  0  0  0  0  0  0  0  0
    4.5149    0.2429    5.3451 C   0  0  0  0  0  0  0  0  0  0  0  0
    4.5982    1.6284    5.3509 C   0  0  0  0  0  0  0  0  0  0  0  0
    5.4366    2.3487    6.3675 C   0  0  0  0  0  0  0  0  0  0  0  0
    4.6088    2.6705    7.6133 C   0  0  0  0  0  0  0  0  0  0  0  0
    3.8450    2.3324    4.4212 C   0  0  0  0  0  0  0  0  0  0  0  0
    3.0430    1.6746    3.5073 C   0  0  0  0  0  0  0  0  0  0  0  0
    2.5507   -1.7939    2.0781 C   0  0  0  0  0  0  0  0  0  0  0  0
    3.9018   -2.0085    1.8325 C   0  0  0  0  0  0  0  0  0  0  0  0
    4.3449   -3.2281    1.3566 C   0  0  0  0  0  0  0  0  0  0  0  0
    3.4536   -4.2644    1.1076 C   0  0  0  0  0  0  0  0  0  0  0  0
    3.9372   -5.5745    0.5554 C   0  0  0  0  0  0  0  0  0  0  0  0
    4.0216   -5.5117   -0.9709 C   0  0  0  0  0  0  0  0  0  0  0  0
    2.1025   -4.0394    1.3363 C   0  0  0  0  0  0  0  0  0  0  0  0
    1.6549   -2.8193    1.8086 C   0  0  0  0  0  0  0  0  0  0  0  0
   -0.0273   -1.0455    4.1781 C   0  0  0  0  0  0  0  0  0  0  0  0
    0.3561   -2.1100    5.0291 C   0  0  0  0  0  0  0  0  0  0  0  0
    1.6164   -2.5760    4.8591 O   0  0  0  0  0  0  0  0  0  0  0  0
    1.9961   -3.8222    5.4175 C   0  0  0  0  0  0  0  0  0  0  0  0
    3.3885   -4.1833    4.9246 C   0  0  0  0  0  0  0  0  0  0  0  0
   -0.6001   -2.5765    5.9253 C   0  0  0  0  0  0  0  0  0  0  0  0
   -1.9188   -2.0341    5.9985 C   0  0  0  0  0  0  0  0  0  0  0  0
   -2.2918   -0.9630    5.1669 C   0  0  0  0  0  0  0  0  0  0  0  0
   -3.5494   -0.4304    5.1357 O   0  0  0  0  0  0  0  0  0  0  0  0
   -3.9566    0.3159    6.2766 C   0  0  0  0  0  0  0  0  0  0  0  0
   -3.1775    1.6192    6.4106 C   0  0  0  0  0  0  0  0  0  0  0  0
   -1.3428   -0.5120    4.2726 C   0  0  0  0  0  0  0  0  0  0  0  0
   -1.6891    0.7222    3.0859 S   0  0  0  0  0  0  0  0  0  0  0  0
   -2.7546   -2.7166    6.9030 C   0  0  0  0  0  0  0  0  0  0  0  0
   -2.1405   -3.7516    7.5598 C   0  0  0  0  0  0  0  0  0  0  0  0
   -0.4524   -3.8892    7.0787 S   0  0  0  0  0  0  0  0  0  0  0  0
   -2.6005   -4.7051    8.4964 C   0  0  0  0  0  0  0  0  0  0  0  0
   -3.8526   -4.9660    8.9733 C   0  0  0  0  0  0  0  0  0  0  0  0
   -5.1435   -4.3322    8.6106 C   0  0  0  0  0  0  0  0  0  0  0  0
   -5.3401   -3.2779    8.0411 O   0  0  0  0  0  0  0  0  0  0  0  0
   -6.1904   -5.2410    9.1117 C   0  0  0  0  0  0  0  0  0  0  0  0
   -7.5618   -5.1291    8.8938 C   0  0  0  0  0  0  0  0  0  0  0  0
   -8.3007   -6.1432    9.4530 C   0  0  0  0  0  0  0  0  0  0  0  0
   -7.7187   -7.1938   10.1760 C   0  0  0  0  0  0  0  0  0  0  0  0
   -6.3686   -7.3122   10.4037 C   0  0  0  0  0  0  0  0  0  0  0  0
   -5.5987   -6.2865    9.8470 C   0  0  0  0  0  0  0  0  0  0  0  0
   -4.1548   -6.0756    9.8674 C   0  0  0  0  0  0  0  0  0  0  0  0
   -3.2666   -6.7649   10.6500 C   0  0  0  0  0  0  0  0  0  0  0  0
   -3.6278   -7.8081   11.5289 C   0  0  0  0  0  0  0  0  0  0  0  0
   -3.8472   -8.6619   12.2647 N   0  0  0  0  0  0  0  0  0  0  0  0
   -1.8812   -6.5117   10.7479 C   0  0  0  0  0  0  0  0  0  0  0  0
   -0.7527   -6.3685   10.9070 N   0  0  0  0  0  0  0  0  0  0  0  0
   -9.0481   -7.8562   10.4365 C   0  0  0  0  0  0  0  0  0  0  0  0
   -9.6731   -7.6926   11.8438 C   0  0  0  0  0  0  0  0  0  0  0  0
   -9.1386   -6.3973   12.4027 C   0  0  0  0  0  0  0  0  0  0  0  0
   -9.6903   -5.4033   11.7195 C   0  0  0  0  0  0  0  0  0  0  0  0
  -10.6073   -6.0086   10.6856 C   0  0  0  0  0  0  0  0  0  0  0  0
  -11.0916   -7.2524   11.4478 C   0  0  0  0  0  0  0  0  0  0  0  0
   -9.6964   -6.6857    9.6319 C   0  0  0  0  0  0  0  0  0  0  0  0
    3.2051    5.1778  -10.2906 H   0  0  0  0  0  0  0  0  0  0  0  0
    6.5098    0.2155  -12.2035 H   0  0  0  0  0  0  0  0  0  0  0  0
    7.0286    0.1504  -14.6325 H   0  0  0  0  0  0  0  0  0  0  0  0
    5.7374    1.4932  -17.0033 H   0  0  0  0  0  0  0  0  0  0  0  0
    7.4680    1.4975  -16.6806 H   0  0  0  0  0  0  0  0  0  0  0  0
    6.6044    3.0258  -16.9264 H   0  0  0  0  0  0  0  0  0  0  0  0
    5.4032    4.0640  -15.1428 H   0  0  0  0  0  0  0  0  0  0  0  0
    5.3760    2.7763   -8.1094 H   0  0  0  0  0  0  0  0  0  0  0  0
    4.9583   -0.3412   -5.9376 H   0  0  0  0  0  0  0  0  0  0  0  0
    5.2491    0.6012   -7.4225 H   0  0  0  0  0  0  0  0  0  0  0  0
    7.6913    0.5886   -6.9585 H   0  0  0  0  0  0  0  0  0  0  0  0
    7.4164   -0.3193   -5.4692 H   0  0  0  0  0  0  0  0  0  0  0  0
    7.0649   -1.0651   -7.0393 H   0  0  0  0  0  0  0  0  0  0  0  0
   -0.6946    5.5328   -5.1401 H   0  0  0  0  0  0  0  0  0  0  0  0
    0.2212    5.1567   -6.6095 H   0  0  0  0  0  0  0  0  0  0  0  0
    1.2183    6.8270   -4.2407 H   0  0  0  0  0  0  0  0  0  0  0  0
    0.7247    7.4610   -5.8209 H   0  0  0  0  0  0  0  0  0  0  0  0
    2.1742    6.4637   -5.6833 H   0  0  0  0  0  0  0  0  0  0  0  0
   -1.2664    4.2211   -0.7641 H   0  0  0  0  0  0  0  0  0  0  0  0
   -1.3836    6.5659   -0.0977 H   0  0  0  0  0  0  0  0  0  0  0  0
    1.0371    9.1358   -1.1449 H   0  0  0  0  0  0  0  0  0  0  0  0
   -0.5550    8.8517   -0.4266 H   0  0  0  0  0  0  0  0  0  0  0  0
    0.5373    8.0644    1.6746 H   0  0  0  0  0  0  0  0  0  0  0  0
    1.0440    9.7092    1.2727 H   0  0  0  0  0  0  0  0  0  0  0  0
    2.1236    8.3460    0.9582 H   0  0  0  0  0  0  0  0  0  0  0  0
    2.4945    7.2318   -1.7363 H   0  0  0  0  0  0  0  0  0  0  0  0
    2.6244    4.8880   -2.3969 H   0  0  0  0  0  0  0  0  0  0  0  0
   -1.3483    4.2891   -3.2139 H   0  0  0  0  0  0  0  0  0  0  0  0
   -3.2468    3.3490   -4.4317 H   0  0  0  0  0  0  0  0  0  0  0  0
   -4.0172   -0.2589   -4.6087 H   0  0  0  0  0  0  0  0  0  0  0  0
   -4.6714    1.3696   -4.8340 H   0  0  0  0  0  0  0  0  0  0  0  0
   -2.5552    0.0568   -6.6072 H   0  0  0  0  0  0  0  0  0  0  0  0
   -3.2084    1.6788   -6.8314 H   0  0  0  0  0  0  0  0  0  0  0  0
   -4.2589    0.2709   -7.0258 H   0  0  0  0  0  0  0  0  0  0  0  0
   -1.7463   -0.5831   -3.7553 H   0  0  0  0  0  0  0  0  0  0  0  0
    0.1567    0.3533   -2.5353 H   0  0  0  0  0  0  0  0  0  0  0  0
   -0.8450    2.3213    0.3405 H   0  0  0  0  0  0  0  0  0  0  0  0
    3.6654    0.1427    0.1490 H   0  0  0  0  0  0  0  0  0  0  0  0
    3.6594   -1.4937    4.4461 H   0  0  0  0  0  0  0  0  0  0  0  0
    5.0854   -0.3277    6.0647 H   0  0  0  0  0  0  0  0  0  0  0  0
    6.2883    1.7278    6.6524 H   0  0  0  0  0  0  0  0  0  0  0  0
    5.8187    3.2781    5.9401 H   0  0  0  0  0  0  0  0  0  0  0  0
    3.7616    3.3007    7.3518 H   0  0  0  0  0  0  0  0  0  0  0  0
    4.2279    1.7551    8.0608 H   0  0  0  0  0  0  0  0  0  0  0  0
    5.2156    3.1915    8.3504 H   0  0  0  0  0  0  0  0  0  0  0  0
    3.8873    3.4124    4.4081 H   0  0  0  0  0  0  0  0  0  0  0  0
    2.4691    2.2545    2.7992 H   0  0  0  0  0  0  0  0  0  0  0  0
    4.6144   -1.2195    2.0243 H   0  0  0  0  0  0  0  0  0  0  0  0
    5.4002   -3.3795    1.1781 H   0  0  0  0  0  0  0  0  0  0  0  0
    4.9249   -5.8050    0.9605 H   0  0  0  0  0  0  0  0  0  0  0  0
    3.2536   -6.3749    0.8458 H   0  0  0  0  0  0  0  0  0  0  0  0
    4.7080   -4.7265   -1.2798 H   0  0  0  0  0  0  0  0  0  0  0  0
    3.0433   -5.2953   -1.3946 H   0  0  0  0  0  0  0  0  0  0  0  0
    4.3731   -6.4592   -1.3727 H   0  0  0  0  0  0  0  0  0  0  0  0
    1.3908   -4.8296    1.1419 H   0  0  0  0  0  0  0  0  0  0  0  0
    0.5979   -2.6656    1.9701 H   0  0  0  0  0  0  0  0  0  0  0  0
    2.0003   -3.7629    6.5127 H   0  0  0  0  0  0  0  0  0  0  0  0
    1.2847   -4.5965    5.1052 H   0  0  0  0  0  0  0  0  0  0  0  0
    3.6377   -5.1823    5.2711 H   0  0  0  0  0  0  0  0  0  0  0  0
    4.1261   -3.4869    5.3135 H   0  0  0  0  0  0  0  0  0  0  0  0
    3.4202   -4.1637    3.8390 H   0  0  0  0  0  0  0  0  0  0  0  0
   -5.0158    0.5154    6.1019 H   0  0  0  0  0  0  0  0  0  0  0  0
   -3.8523   -0.2786    7.1910 H   0  0  0  0  0  0  0  0  0  0  0  0
   -2.1256    1.4146    6.6031 H   0  0  0  0  0  0  0  0  0  0  0  0
   -3.5777    2.2025    7.2351 H   0  0  0  0  0  0  0  0  0  0  0  0
   -3.2560    2.1977    5.4931 H   0  0  0  0  0  0  0  0  0  0  0  0
   -3.7933   -2.4803    7.0421 H   0  0  0  0  0  0  0  0  0  0  0  0
   -1.8125   -5.3667    8.8384 H   0  0  0  0  0  0  0  0  0  0  0  0
   -7.9665   -4.3076    8.3237 H   0  0  0  0  0  0  0  0  0  0  0  0
   -5.9358   -8.1313   10.9532 H   0  0  0  0  0  0  0  0  0  0  0  0
   -9.1610   -8.8664   10.0476 H   0  0  0  0  0  0  0  0  0  0  0  0
   -9.5791   -8.5661   12.4834 H   0  0  0  0  0  0  0  0  0  0  0  0
   -8.3938   -6.3410   13.1747 H   0  0  0  0  0  0  0  0  0  0  0  0
   -9.4988   -4.3498   11.8066 H   0  0  0  0  0  0  0  0  0  0  0  0
  -11.3651   -5.3493   10.2702 H   0  0  0  0  0  0  0  0  0  0  0  0
  -11.7113   -7.0044   12.3081 H   0  0  0  0  0  0  0  0  0  0  0  0
  -11.6094   -7.9736   10.8168 H   0  0  0  0  0  0  0  0  0  0  0  0
  -10.2319   -6.9317    8.7168 H   0  0  0  0  0  0  0  0  0  0  0  0
  1  2  2  0  0  0  0
  2  3  1  0  0  0  0
  3  4  2  0  0  0  0
  3  5  1  0  0  0  0
  5  6  2  0  0  0  0
  6  7  1  0  0  0  0
  7  8  2  0  0  0  0
  8  9  1  0  0  0  0
  8 10  1  0  0  0  0
 10 11  2  0  0  0  0
 11 12  1  0  0  0  0
 12 13  2  0  0  0  0
 13 14  1  0  0  0  0
 14 15  3  0  0  0  0
 13 16  1  0  0  0  0
 16 17  3  0  0  0  0
  1 18  1  0  0  0  0
 18 19  2  0  0  0  0
 19 20  1  0  0  0  0
 20 21  2  0  0  0  0
 21 22  1  0  0  0  0
 22 23  1  0  0  0  0
 23 24  1  0  0  0  0
 21 25  1  0  0  0  0
 25 26  1  0  0  0  0
 26 27  1  0  0  0  0
 27 28  1  0  0  0  0
 28 29  2  0  0  0  0
 29 30  1  0  0  0  0
 30 31  1  0  0  0  0
 31 32  1  0  0  0  0
 32 33  1  0  0  0  0
 33 34  2  0  0  0  0
 34 35  1  0  0  0  0
 33 36  1  0  0  0  0
 36 37  1  0  0  0  0
 37 38  1  0  0  0  0
 30 39  1  0  0  0  0
 39 40  2  0  0  0  0
 40 41  1  0  0  0  0
 41 42  2  0  0  0  0
 42 43  1  0  0  0  0
 43 44  1  0  0  0  0
 42 45  1  0  0  0  0
 45 46  2  0  0  0  0
 30 47  1  0  0  0  0
 47 48  2  0  0  0  0
 48 49  1  0  0  0  0
 49 50  2  0  0  0  0
 50 51  1  0  0  0  0
 51 52  1  0  0  0  0
 50 53  1  0  0  0  0
 53 54  2  0  0  0  0
 29 55  1  0  0  0  0
 55 56  2  0  0  0  0
 56 57  1  0  0  0  0
 57 58  2  0  0  0  0
 58 59  1  0  0  0  0
 59 60  1  0  0  0  0
 60 61  2  0  0  0  0
 59 62  1  0  0  0  0
 62 63  2  0  0  0  0
 63 64  1  0  0  0  0
 64 65  2  0  0  0  0
 65 66  1  0  0  0  0
 66 67  1  0  0  0  0
 65 68  1  0  0  0  0
 68 69  2  0  0  0  0
 59 70  1  0  0  0  0
 70 71  2  0  0  0  0
 71 72  1  0  0  0  0
 72 73  2  0  0  0  0
 73 74  1  0  0  0  0
 74 75  1  0  0  0  0
 73 76  1  0  0  0  0
 76 77  2  0  0  0  0
 58 78  1  0  0  0  0
 78 79  2  0  0  0  0
 79 80  1  0  0  0  0
 80 81  1  0  0  0  0
 81 82  1  0  0  0  0
 79 83  1  0  0  0  0
 83 84  2  0  0  0  0
 84 85  1  0  0  0  0
 85 86  1  0  0  0  0
 86 87  1  0  0  0  0
 87 88  1  0  0  0  0
 85 89  2  0  0  0  0
 89 90  1  0  0  0  0
 84 91  1  0  0  0  0
 91 92  2  0  0  0  0
 92 93  1  0  0  0  0
 92 94  1  0  0  0  0
 94 95  2  0  0  0  0
 95 96  1  0  0  0  0
 96 97  2  0  0  0  0
 96 98  1  0  0  0  0
 98 99  2  0  0  0  0
 99100  1  0  0  0  0
100101  2  0  0  0  0
101102  1  0  0  0  0
102103  2  0  0  0  0
103104  1  0  0  0  0
104105  2  0  0  0  0
105106  1  0  0  0  0
106107  3  0  0  0  0
105108  1  0  0  0  0
108109  3  0  0  0  0
101110  1  0  0  0  0
110111  1  0  0  0  0
111112  1  0  0  0  0
112113  2  0  0  0  0
113114  1  0  0  0  0
114115  1  0  0  0  0
114116  1  0  0  0  0
 12  2  1  0  0  0  0
 35 18  1  0  0  0  0
 46 39  1  0  0  0  0
 54 47  1  0  0  0  0
 60 56  1  0  0  0  0
 69 62  1  0  0  0  0
 77 70  1  0  0  0  0
 89 78  1  0  0  0  0
104 95  1  0  0  0  0
116110  1  0  0  0  0
 11  5  1  0  0  0  0
 34 20  1  0  0  0  0
 90 57  1  0  0  0  0
103 98  1  0  0  0  0
115111  1  0  0  0  0
 32 25  2  0  0  0  0
 93 83  1  0  0  0  0
116100  1  0  0  0  0
 31 27  2  0  0  0  0
 61 28  1  0  0  0  0
  1117  1  0  0  0  0
  6118  1  0  0  0  0
  7119  1  0  0  0  0
  9120  1  0  0  0  0
  9121  1  0  0  0  0
  9122  1  0  0  0  0
 10123  1  0  0  0  0
 19124  1  0  0  0  0
 23125  1  0  0  0  0
 23126  1  0  0  0  0
 24127  1  0  0  0  0
 24128  1  0  0  0  0
 24129  1  0  0  0  0
 37130  1  0  0  0  0
 37131  1  0  0  0  0
 38132  1  0  0  0  0
 38133  1  0  0  0  0
 38134  1  0  0  0  0
 40135  1  0  0  0  0
 41136  1  0  0  0  0
 43137  1  0  0  0  0
 43138  1  0  0  0  0
 44139  1  0  0  0  0
 44140  1  0  0  0  0
 44141  1  0  0  0  0
 45142  1  0  0  0  0
 46143  1  0  0  0  0
 48144  1  0  0  0  0
 49145  1  0  0  0  0
 51146  1  0  0  0  0
 51147  1  0  0  0  0
 52148  1  0  0  0  0
 52149  1  0  0  0  0
 52150  1  0  0  0  0
 53151  1  0  0  0  0
 54152  1  0  0  0  0
 55153  1  0  0  0  0
 61154  1  0  0  0  0
 63155  1  0  0  0  0
 64156  1  0  0  0  0
 66157  1  0  0  0  0
 66158  1  0  0  0  0
 67159  1  0  0  0  0
 67160  1  0  0  0  0
 67161  1  0  0  0  0
 68162  1  0  0  0  0
 69163  1  0  0  0  0
 71164  1  0  0  0  0
 72165  1  0  0  0  0
 74166  1  0  0  0  0
 74167  1  0  0  0  0
 75168  1  0  0  0  0
 75169  1  0  0  0  0
 75170  1  0  0  0  0
 76171  1  0  0  0  0
 77172  1  0  0  0  0
 81173  1  0  0  0  0
 81174  1  0  0  0  0
 82175  1  0  0  0  0
 82176  1  0  0  0  0
 82177  1  0  0  0  0
 87178  1  0  0  0  0
 87179  1  0  0  0  0
 88180  1  0  0  0  0
 88181  1  0  0  0  0
 88182  1  0  0  0  0
 91183  1  0  0  0  0
 94184  1  0  0  0  0
 99185  1  0  0  0  0
102186  1  0  0  0  0
110187  1  0  0  0  0
111188  1  0  0  0  0
112189  1  0  0  0  0
113190  1  0  0  0  0
114191  1  0  0  0  0
115192  1  0  0  0  0
115193  1  0  0  0  0
116194  1  0  0  0  0
M  END
