100

C          5.70050        3.61200       -3.49580
C          5.27250        4.91460       -3.43340
C          4.02890        5.39080       -2.81760
O          3.17580        4.72280       -2.25590
C          4.00700        6.84740       -3.01490
C          3.05140        7.76730       -2.62950
C          3.26010        9.10140       -2.94060
C          4.40210        9.51510       -3.62310
C          4.61400       10.96400       -3.92650
C          5.36200        8.57880       -4.00710
C          5.16630        7.24270       -3.70550
C          5.97700        6.05630       -3.98240
C          7.17620        6.05780       -4.64830
C          7.79620        7.21670       -5.16100
N          8.35760        8.11490       -5.60430
C          7.96930        4.92570       -4.92700
N          8.67240        4.05630       -5.19380
C          5.11820        2.43000       -3.02470
C          5.71160        1.16750       -3.19450
C          7.04030        0.90180       -3.82300
C          8.17060        1.11320       -2.81170
C          4.92680        0.16170       -2.64570
S          5.13010       -1.57890       -2.56500
C          3.61330       -1.68300       -1.74160
C          2.75700       -2.65910       -1.21900
C          2.83410       -4.06900       -1.26350
C          1.74150       -4.83670       -0.74650
N          1.91900       -6.13910       -0.90080
S          3.34380       -6.37850       -1.63150
N          3.78710       -4.82870       -1.77940
C          0.67400       -4.16080       -0.11440
C         -0.44100       -4.65790        0.56850
S         -1.17030       -6.17900        0.94520
C         -2.39850       -5.32370        1.86060
C         -3.49760       -5.76420        2.58010
C         -3.83290       -7.21020        2.74260
C         -3.25830       -7.75840        4.05200
C         -4.19350       -4.68760        3.16590
S         -3.44750       -3.13150        2.78740
C         -2.23100       -3.92530        1.86130
C         -1.11200       -3.55460        1.11290
N         -0.46870       -2.39760        0.76270
C          0.63300       -2.73760       -0.00190
C          1.63720       -1.97480       -0.65650
N          1.80860       -0.61830       -0.87330
C          2.99500       -0.44430       -1.53240
C          3.73710        0.61970       -2.05510
S          3.57540        2.33200       -2.17430
C          0.85260        0.46680       -0.84180
C         -0.32300        0.20170       -1.77890
C         -0.78310       -1.17290        1.46530
C          0.32770       -0.78730        2.43880
C         -5.33810       -4.85940        3.94220
C         -6.13150       -3.94680        4.60320
C         -5.92390       -2.50160        4.65670
O         -5.04490       -1.84700        4.12300
C         -7.01120       -1.96480        5.50270
C         -7.25030       -0.65440        5.86400
C         -8.34590       -0.40170        6.67410
F         -8.61600        0.85490        7.05050
C         -9.16860       -1.44350        7.10100
F        -10.21950       -1.17120        7.88320
C         -8.92720       -2.76040        6.73650
C         -7.83350       -3.02170        5.92690
C         -7.31130       -4.27410        5.37470
C         -7.87290       -5.51110        5.56780
C         -9.03540       -5.74030        6.33380
N         -9.97420       -5.99610        6.94250
C         -7.39350       -6.72790        5.04020
N         -7.06970       -7.75890        4.64920
H          6.64660        3.44950       -3.99350
H          2.16790        7.44210       -2.10190
H          2.52540        9.83870       -2.65140
H          5.07880       11.45430       -3.07050
H          5.27130       11.09010       -4.78300
H          3.66820       11.46290       -4.12430
H          6.24070        8.91280       -4.53480
H          7.05530       -0.13590       -4.16200
H          7.20370        1.54630       -4.68790
H          8.04480        0.44930       -1.95960
H          9.12740        0.90340       -3.28090
H          8.18070        2.14020       -2.45430
H         -4.91220       -7.36810        2.72680
H         -3.39470       -7.75740        1.90570
H         -2.17670       -7.64690        4.06630
H         -3.67390       -7.23020        4.90700
H         -3.50260       -8.81230        4.14690
H          0.52090        0.65830        0.17840
H          1.38550        1.35920       -1.17820
H         -1.03250        1.02240       -1.72210
H          0.03140        0.12250       -2.80410
H         -0.83310       -0.72470       -1.52420
H         -0.99900       -0.37040        0.76050
H         -1.70150       -1.36360        2.02570
H          0.44910       -1.56470        3.18950
H          1.27840       -0.65990        1.92580
H          0.07140        0.14070        2.94220
H         -5.63980       -5.89360        4.03380
H         -6.61130        0.14780        5.53130
H         -9.59410       -3.52730        7.09430
