
  xtb     02012222233D
 energy: -185.954672143226 gnorm: 0.000516032999 xtb: 6.4.1 (unknown)
100111  0     0  0            999 V2000
    5.7005    3.6120   -3.4958 C   0  0  0  0  0  0  0  0  0  0  0  0
    5.2725    4.9146   -3.4334 C   0  0  0  0  0  0  0  0  0  0  0  0
    4.0289    5.3908   -2.8176 C   0  0  0  0  0  0  0  0  0  0  0  0
    3.1758    4.7228   -2.2559 O   0  0  0  0  0  0  0  0  0  0  0  0
    4.0070    6.8474   -3.0149 C   0  0  0  0  0  0  0  0  0  0  0  0
    3.0514    7.7673   -2.6295 C   0  0  0  0  0  0  0  0  0  0  0  0
    3.2601    9.1014   -2.9406 C   0  0  0  0  0  0  0  0  0  0  0  0
    4.4021    9.5151   -3.6231 C   0  0  0  0  0  0  0  0  0  0  0  0
    4.6140   10.9640   -3.9265 C   0  0  0  0  0  0  0  0  0  0  0  0
    5.3620    8.5788   -4.0071 C   0  0  0  0  0  0  0  0  0  0  0  0
    5.1663    7.2427   -3.7055 C   0  0  0  0  0  0  0  0  0  0  0  0
    5.9770    6.0563   -3.9824 C   0  0  0  0  0  0  0  0  0  0  0  0
    7.1762    6.0578   -4.6483 C   0  0  0  0  0  0  0  0  0  0  0  0
    7.7962    7.2167   -5.1610 C   0  0  0  0  0  0  0  0  0  0  0  0
    8.3576    8.1149   -5.6043 N   0  0  0  0  0  0  0  0  0  0  0  0
    7.9693    4.9257   -4.9270 C   0  0  0  0  0  0  0  0  0  0  0  0
    8.6724    4.0563   -5.1938 N   0  0  0  0  0  0  0  0  0  0  0  0
    5.1182    2.4300   -3.0247 C   0  0  0  0  0  0  0  0  0  0  0  0
    5.7116    1.1675   -3.1945 C   0  0  0  0  0  0  0  0  0  0  0  0
    7.0403    0.9018   -3.8230 C   0  0  0  0  0  0  0  0  0  0  0  0
    8.1706    1.1132   -2.8117 C   0  0  0  0  0  0  0  0  0  0  0  0
    4.9268    0.1617   -2.6457 C   0  0  0  0  0  0  0  0  0  0  0  0
    5.1301   -1.5789   -2.5650 S   0  0  0  0  0  0  0  0  0  0  0  0
    3.6133   -1.6830   -1.7416 C   0  0  0  0  0  0  0  0  0  0  0  0
    2.7570   -2.6591   -1.2190 C   0  0  0  0  0  0  0  0  0  0  0  0
    2.8341   -4.0690   -1.2635 C   0  0  0  0  0  0  0  0  0  0  0  0
    1.7415   -4.8367   -0.7465 C   0  0  0  0  0  0  0  0  0  0  0  0
    1.9190   -6.1391   -0.9008 N   0  0  0  0  0  0  0  0  0  0  0  0
    3.3438   -6.3785   -1.6315 S   0  0  0  0  0  0  0  0  0  0  0  0
    3.7871   -4.8287   -1.7794 N   0  0  0  0  0  0  0  0  0  0  0  0
    0.6740   -4.1608   -0.1144 C   0  0  0  0  0  0  0  0  0  0  0  0
   -0.4410   -4.6579    0.5685 C   0  0  0  0  0  0  0  0  0  0  0  0
   -1.1703   -6.1790    0.9452 S   0  0  0  0  0  0  0  0  0  0  0  0
   -2.3985   -5.3237    1.8606 C   0  0  0  0  0  0  0  0  0  0  0  0
   -3.4976   -5.7642    2.5801 C   0  0  0  0  0  0  0  0  0  0  0  0
   -3.8329   -7.2102    2.7426 C   0  0  0  0  0  0  0  0  0  0  0  0
   -3.2583   -7.7584    4.0520 C   0  0  0  0  0  0  0  0  0  0  0  0
   -4.1935   -4.6876    3.1659 C   0  0  0  0  0  0  0  0  0  0  0  0
   -3.4475   -3.1315    2.7874 S   0  0  0  0  0  0  0  0  0  0  0  0
   -2.2310   -3.9253    1.8613 C   0  0  0  0  0  0  0  0  0  0  0  0
   -1.1120   -3.5546    1.1129 C   0  0  0  0  0  0  0  0  0  0  0  0
   -0.4687   -2.3976    0.7627 N   0  0  0  0  0  0  0  0  0  0  0  0
    0.6330   -2.7376   -0.0019 C   0  0  0  0  0  0  0  0  0  0  0  0
    1.6372   -1.9748   -0.6565 C   0  0  0  0  0  0  0  0  0  0  0  0
    1.8086   -0.6183   -0.8733 N   0  0  0  0  0  0  0  0  0  0  0  0
    2.9950   -0.4443   -1.5324 C   0  0  0  0  0  0  0  0  0  0  0  0
    3.7371    0.6197   -2.0551 C   0  0  0  0  0  0  0  0  0  0  0  0
    3.5754    2.3320   -2.1743 S   0  0  0  0  0  0  0  0  0  0  0  0
    0.8526    0.4668   -0.8418 C   0  0  0  0  0  0  0  0  0  0  0  0
   -0.3230    0.2017   -1.7789 C   0  0  0  0  0  0  0  0  0  0  0  0
   -0.7831   -1.1729    1.4653 C   0  0  0  0  0  0  0  0  0  0  0  0
    0.3277   -0.7873    2.4388 C   0  0  0  0  0  0  0  0  0  0  0  0
   -5.3381   -4.8594    3.9422 C   0  0  0  0  0  0  0  0  0  0  0  0
   -6.1315   -3.9468    4.6032 C   0  0  0  0  0  0  0  0  0  0  0  0
   -5.9239   -2.5016    4.6567 C   0  0  0  0  0  0  0  0  0  0  0  0
   -5.0449   -1.8470    4.1230 O   0  0  0  0  0  0  0  0  0  0  0  0
   -7.0112   -1.9648    5.5027 C   0  0  0  0  0  0  0  0  0  0  0  0
   -7.2503   -0.6544    5.8640 C   0  0  0  0  0  0  0  0  0  0  0  0
   -8.3459   -0.4017    6.6741 C   0  0  0  0  0  0  0  0  0  0  0  0
   -8.6160    0.8549    7.0505 F   0  0  0  0  0  0  0  0  0  0  0  0
   -9.1686   -1.4435    7.1010 C   0  0  0  0  0  0  0  0  0  0  0  0
  -10.2195   -1.1712    7.8832 F   0  0  0  0  0  0  0  0  0  0  0  0
   -8.9272   -2.7604    6.7365 C   0  0  0  0  0  0  0  0  0  0  0  0
   -7.8335   -3.0217    5.9269 C   0  0  0  0  0  0  0  0  0  0  0  0
   -7.3113   -4.2741    5.3747 C   0  0  0  0  0  0  0  0  0  0  0  0
   -7.8729   -5.5111    5.5678 C   0  0  0  0  0  0  0  0  0  0  0  0
   -9.0354   -5.7403    6.3338 C   0  0  0  0  0  0  0  0  0  0  0  0
   -9.9742   -5.9961    6.9425 N   0  0  0  0  0  0  0  0  0  0  0  0
   -7.3935   -6.7279    5.0402 C   0  0  0  0  0  0  0  0  0  0  0  0
   -7.0697   -7.7589    4.6492 N   0  0  0  0  0  0  0  0  0  0  0  0
    6.6466    3.4495   -3.9935 H   0  0  0  0  0  0  0  0  0  0  0  0
    2.1679    7.4421   -2.1019 H   0  0  0  0  0  0  0  0  0  0  0  0
    2.5254    9.8387   -2.6514 H   0  0  0  0  0  0  0  0  0  0  0  0
    5.0788   11.4543   -3.0705 H   0  0  0  0  0  0  0  0  0  0  0  0
    5.2713   11.0901   -4.7830 H   0  0  0  0  0  0  0  0  0  0  0  0
    3.6682   11.4629   -4.1243 H   0  0  0  0  0  0  0  0  0  0  0  0
    6.2407    8.9128   -4.5348 H   0  0  0  0  0  0  0  0  0  0  0  0
    7.0553   -0.1359   -4.1620 H   0  0  0  0  0  0  0  0  0  0  0  0
    7.2037    1.5463   -4.6879 H   0  0  0  0  0  0  0  0  0  0  0  0
    8.0448    0.4493   -1.9596 H   0  0  0  0  0  0  0  0  0  0  0  0
    9.1274    0.9034   -3.2809 H   0  0  0  0  0  0  0  0  0  0  0  0
    8.1807    2.1402   -2.4543 H   0  0  0  0  0  0  0  0  0  0  0  0
   -4.9122   -7.3681    2.7268 H   0  0  0  0  0  0  0  0  0  0  0  0
   -3.3947   -7.7574    1.9057 H   0  0  0  0  0  0  0  0  0  0  0  0
   -2.1767   -7.6469    4.0663 H   0  0  0  0  0  0  0  0  0  0  0  0
   -3.6739   -7.2302    4.9070 H   0  0  0  0  0  0  0  0  0  0  0  0
   -3.5026   -8.8123    4.1469 H   0  0  0  0  0  0  0  0  0  0  0  0
    0.5209    0.6583    0.1784 H   0  0  0  0  0  0  0  0  0  0  0  0
    1.3855    1.3592   -1.1782 H   0  0  0  0  0  0  0  0  0  0  0  0
   -1.0325    1.0224   -1.7221 H   0  0  0  0  0  0  0  0  0  0  0  0
    0.0314    0.1225   -2.8041 H   0  0  0  0  0  0  0  0  0  0  0  0
   -0.8331   -0.7247   -1.5242 H   0  0  0  0  0  0  0  0  0  0  0  0
   -0.9990   -0.3704    0.7605 H   0  0  0  0  0  0  0  0  0  0  0  0
   -1.7015   -1.3636    2.0257 H   0  0  0  0  0  0  0  0  0  0  0  0
    0.4491   -1.5647    3.1895 H   0  0  0  0  0  0  0  0  0  0  0  0
    1.2784   -0.6599    1.9258 H   0  0  0  0  0  0  0  0  0  0  0  0
    0.0714    0.1407    2.9422 H   0  0  0  0  0  0  0  0  0  0  0  0
   -5.6398   -5.8936    4.0338 H   0  0  0  0  0  0  0  0  0  0  0  0
   -6.6113    0.1478    5.5313 H   0  0  0  0  0  0  0  0  0  0  0  0
   -9.5941   -3.5273    7.0943 H   0  0  0  0  0  0  0  0  0  0  0  0
  1  2  2  0  0  0  0
  2  3  1  0  0  0  0
  3  4  2  0  0  0  0
  3  5  1  0  0  0  0
  5  6  2  0  0  0  0
  6  7  1  0  0  0  0
  7  8  2  0  0  0  0
  8  9  1  0  0  0  0
  8 10  1  0  0  0  0
 10 11  2  0  0  0  0
 11 12  1  0  0  0  0
 12 13  2  0  0  0  0
 13 14  1  0  0  0  0
 14 15  3  0  0  0  0
 13 16  1  0  0  0  0
 16 17  3  0  0  0  0
  1 18  1  0  0  0  0
 18 19  2  0  0  0  0
 19 20  1  0  0  0  0
 20 21  1  0  0  0  0
 19 22  1  0  0  0  0
 22 23  1  0  0  0  0
 23 24  1  0  0  0  0
 24 25  1  0  0  0  0
 25 26  1  0  0  0  0
 26 27  1  0  0  0  0
 27 28  2  0  0  0  0
 28 29  1  0  0  0  0
 29 30  1  0  0  0  0
 27 31  1  0  0  0  0
 31 32  1  0  0  0  0
 32 33  1  0  0  0  0
 33 34  1  0  0  0  0
 34 35  1  0  0  0  0
 35 36  1  0  0  0  0
 36 37  1  0  0  0  0
 35 38  2  0  0  0  0
 38 39  1  0  0  0  0
 39 40  1  0  0  0  0
 40 41  1  0  0  0  0
 41 42  1  0  0  0  0
 42 43  1  0  0  0  0
 43 44  1  0  0  0  0
 44 45  1  0  0  0  0
 45 46  1  0  0  0  0
 46 47  1  0  0  0  0
 47 48  1  0  0  0  0
 45 49  1  0  0  0  0
 49 50  1  0  0  0  0
 42 51  1  0  0  0  0
 51 52  1  0  0  0  0
 38 53  1  0  0  0  0
 53 54  2  0  0  0  0
 54 55  1  0  0  0  0
 55 56  2  0  0  0  0
 55 57  1  0  0  0  0
 57 58  2  0  0  0  0
 58 59  1  0  0  0  0
 59 60  1  0  0  0  0
 59 61  2  0  0  0  0
 61 62  1  0  0  0  0
 61 63  1  0  0  0  0
 63 64  2  0  0  0  0
 64 65  1  0  0  0  0
 65 66  2  0  0  0  0
 66 67  1  0  0  0  0
 67 68  3  0  0  0  0
 66 69  1  0  0  0  0
 69 70  3  0  0  0  0
 12  2  1  0  0  0  0
 48 18  1  0  0  0  0
 65 54  1  0  0  0  0
 11  5  1  0  0  0  0
 47 22  2  0  0  0  0
 64 57  1  0  0  0  0
 46 24  2  0  0  0  0
 44 25  2  0  0  0  0
 30 26  2  0  0  0  0
 43 31  2  0  0  0  0
 41 32  2  0  0  0  0
 40 34  2  0  0  0  0
  1 71  1  0  0  0  0
  6 72  1  0  0  0  0
  7 73  1  0  0  0  0
  9 74  1  0  0  0  0
  9 75  1  0  0  0  0
  9 76  1  0  0  0  0
 10 77  1  0  0  0  0
 20 78  1  0  0  0  0
 20 79  1  0  0  0  0
 21 80  1  0  0  0  0
 21 81  1  0  0  0  0
 21 82  1  0  0  0  0
 36 83  1  0  0  0  0
 36 84  1  0  0  0  0
 37 85  1  0  0  0  0
 37 86  1  0  0  0  0
 37 87  1  0  0  0  0
 49 88  1  0  0  0  0
 49 89  1  0  0  0  0
 50 90  1  0  0  0  0
 50 91  1  0  0  0  0
 50 92  1  0  0  0  0
 51 93  1  0  0  0  0
 51 94  1  0  0  0  0
 52 95  1  0  0  0  0
 52 96  1  0  0  0  0
 52 97  1  0  0  0  0
 53 98  1  0  0  0  0
 58 99  1  0  0  0  0
 63100  1  0  0  0  0
M  END
