
  xtb     02022200013D
 energy: -184.895625583472 gnorm: 0.000341483678 xtb: 6.4.1 (unknown)
103114  0     0  0            999 V2000
    7.0665   -2.4701   -0.4961 C   0  0  0  0  0  0  0  0  0  0  0  0
    8.2757   -1.8653   -0.3020 C   0  0  0  0  0  0  0  0  0  0  0  0
    8.4948   -0.7152    0.6122 C   0  0  0  0  0  0  0  0  0  0  0  0
    7.7360   -0.2787    1.4519 O   0  0  0  0  0  0  0  0  0  0  0  0
    9.7854   -0.1358    0.1976 C   0  0  0  0  0  0  0  0  0  0  0  0
   10.4252    0.9899    0.6787 C   0  0  0  0  0  0  0  0  0  0  0  0
   11.6345    1.3547    0.1078 C   0  0  0  0  0  0  0  0  0  0  0  0
   12.1972    0.6185   -0.9327 C   0  0  0  0  0  0  0  0  0  0  0  0
   13.4838    1.0546   -1.5580 C   0  0  0  0  0  0  0  0  0  0  0  0
   11.5449   -0.5166   -1.4136 C   0  0  0  0  0  0  0  0  0  0  0  0
   10.3410   -0.8959   -0.8472 C   0  0  0  0  0  0  0  0  0  0  0  0
    9.4474   -2.0121   -1.1391 C   0  0  0  0  0  0  0  0  0  0  0  0
    9.7081   -3.0673   -1.9730 C   0  0  0  0  0  0  0  0  0  0  0  0
   10.8825   -3.1957   -2.7418 C   0  0  0  0  0  0  0  0  0  0  0  0
   11.8167   -3.3467   -3.3919 N   0  0  0  0  0  0  0  0  0  0  0  0
    8.8525   -4.1786   -2.1257 C   0  0  0  0  0  0  0  0  0  0  0  0
    8.2103   -5.1192   -2.2718 N   0  0  0  0  0  0  0  0  0  0  0  0
    5.9659   -2.4149    0.3896 C   0  0  0  0  0  0  0  0  0  0  0  0
    5.9178   -2.4711    1.7757 C   0  0  0  0  0  0  0  0  0  0  0  0
    7.0912   -2.7445    2.6550 C   0  0  0  0  0  0  0  0  0  0  0  0
    6.8564   -3.9409    3.5758 C   0  0  0  0  0  0  0  0  0  0  0  0
    4.5972   -2.3572    2.2366 C   0  0  0  0  0  0  0  0  0  0  0  0
    3.9016   -2.3006    3.8415 S   0  0  0  0  0  0  0  0  0  0  0  0
    2.3430   -2.0565    3.1381 C   0  0  0  0  0  0  0  0  0  0  0  0
    1.0108   -1.8898    3.5369 C   0  0  0  0  0  0  0  0  0  0  0  0
    0.4333   -1.9453    4.8240 C   0  0  0  0  0  0  0  0  0  0  0  0
   -0.9862   -1.8149    4.9479 C   0  0  0  0  0  0  0  0  0  0  0  0
   -1.3985   -1.9246    6.2010 N   0  0  0  0  0  0  0  0  0  0  0  0
   -0.1057   -2.1699    7.1446 S   0  0  0  0  0  0  0  0  0  0  0  0
    1.0285   -2.1447    5.9895 N   0  0  0  0  0  0  0  0  0  0  0  0
   -1.7468   -1.5455    3.7892 C   0  0  0  0  0  0  0  0  0  0  0  0
   -3.1049   -1.2365    3.6558 C   0  0  0  0  0  0  0  0  0  0  0  0
   -4.5154   -1.0701    4.6430 S   0  0  0  0  0  0  0  0  0  0  0  0
   -5.4023   -0.5329    3.2266 C   0  0  0  0  0  0  0  0  0  0  0  0
   -6.7072   -0.0958    3.0522 C   0  0  0  0  0  0  0  0  0  0  0  0
   -7.7123   -0.0833    4.1568 C   0  0  0  0  0  0  0  0  0  0  0  0
   -8.5903   -1.3369    4.1095 C   0  0  0  0  0  0  0  0  0  0  0  0
   -6.9477    0.2820    1.7176 C   0  0  0  0  0  0  0  0  0  0  0  0
   -5.5235    0.0642    0.6977 S   0  0  0  0  0  0  0  0  0  0  0  0
   -4.6270   -0.5077    2.0532 C   0  0  0  0  0  0  0  0  0  0  0  0
   -3.3182   -0.9232    2.3090 C   0  0  0  0  0  0  0  0  0  0  0  0
   -2.1483   -1.0465    1.6113 N   0  0  0  0  0  0  0  0  0  0  0  0
   -1.1588   -1.4437    2.4892 C   0  0  0  0  0  0  0  0  0  0  0  0
    0.2343   -1.7073    2.3527 C   0  0  0  0  0  0  0  0  0  0  0  0
    1.0874   -1.8211    1.2687 N   0  0  0  0  0  0  0  0  0  0  0  0
    2.3554   -2.0198    1.7412 C   0  0  0  0  0  0  0  0  0  0  0  0
    3.6403   -2.2106    1.2228 C   0  0  0  0  0  0  0  0  0  0  0  0
    4.3639   -2.2968   -0.3381 S   0  0  0  0  0  0  0  0  0  0  0  0
    0.8595   -1.8950   -0.1554 C   0  0  0  0  0  0  0  0  0  0  0  0
    1.2535   -0.5976   -0.8631 C   0  0  0  0  0  0  0  0  0  0  0  0
   -2.1437   -0.6754    0.2158 C   0  0  0  0  0  0  0  0  0  0  0  0
   -2.7072   -1.7893   -0.6663 C   0  0  0  0  0  0  0  0  0  0  0  0
   -8.1692    0.8025    1.2847 C   0  0  0  0  0  0  0  0  0  0  0  0
   -8.5701    1.2620    0.0521 C   0  0  0  0  0  0  0  0  0  0  0  0
   -7.7616    1.2904   -1.1681 C   0  0  0  0  0  0  0  0  0  0  0  0
   -6.6190    0.8898   -1.3174 O   0  0  0  0  0  0  0  0  0  0  0  0
   -8.6073    1.9104   -2.2050 C   0  0  0  0  0  0  0  0  0  0  0  0
   -8.2973    2.1794   -3.5232 C   0  0  0  0  0  0  0  0  0  0  0  0
   -9.2471    2.7864   -4.3375 C   0  0  0  0  0  0  0  0  0  0  0  0
   -8.9837    3.1104   -5.7715 C   0  0  0  0  0  0  0  0  0  0  0  0
  -10.4832    3.0928   -3.7661 C   0  0  0  0  0  0  0  0  0  0  0  0
  -11.4092    3.6816   -4.5462 F   0  0  0  0  0  0  0  0  0  0  0  0
  -10.8190    2.8322   -2.4470 C   0  0  0  0  0  0  0  0  0  0  0  0
   -9.8586    2.2289   -1.6514 C   0  0  0  0  0  0  0  0  0  0  0  0
   -9.8699    1.8285   -0.2449 C   0  0  0  0  0  0  0  0  0  0  0  0
  -10.9331    1.9830    0.6083 C   0  0  0  0  0  0  0  0  0  0  0  0
  -10.9661    1.6056    1.9664 C   0  0  0  0  0  0  0  0  0  0  0  0
  -11.0751    1.3273    3.0763 N   0  0  0  0  0  0  0  0  0  0  0  0
  -12.1681    2.5535    0.2345 C   0  0  0  0  0  0  0  0  0  0  0  0
  -13.1957    3.0081   -0.0005 N   0  0  0  0  0  0  0  0  0  0  0  0
    6.8848   -2.9743   -1.4389 H   0  0  0  0  0  0  0  0  0  0  0  0
    9.9851    1.5613    1.4815 H   0  0  0  0  0  0  0  0  0  0  0  0
   12.1534    2.2292    0.4724 H   0  0  0  0  0  0  0  0  0  0  0  0
   14.1005    1.5971   -0.8459 H   0  0  0  0  0  0  0  0  0  0  0  0
   13.2764    1.7181   -2.3984 H   0  0  0  0  0  0  0  0  0  0  0  0
   14.0399    0.2007   -1.9366 H   0  0  0  0  0  0  0  0  0  0  0  0
   11.9829   -1.0768   -2.2245 H   0  0  0  0  0  0  0  0  0  0  0  0
    7.9689   -2.9336    2.0351 H   0  0  0  0  0  0  0  0  0  0  0  0
    7.2911   -1.8503    3.2513 H   0  0  0  0  0  0  0  0  0  0  0  0
    6.0457   -3.7489    4.2727 H   0  0  0  0  0  0  0  0  0  0  0  0
    6.6130   -4.8262    2.9920 H   0  0  0  0  0  0  0  0  0  0  0  0
    7.7586   -4.1426    4.1475 H   0  0  0  0  0  0  0  0  0  0  0  0
   -7.1738   -0.0607    5.1063 H   0  0  0  0  0  0  0  0  0  0  0  0
   -8.3458    0.8033    4.1020 H   0  0  0  0  0  0  0  0  0  0  0  0
   -9.1442   -1.3850    3.1750 H   0  0  0  0  0  0  0  0  0  0  0  0
   -7.9779   -2.2312    4.1979 H   0  0  0  0  0  0  0  0  0  0  0  0
   -9.3020   -1.3174    4.9296 H   0  0  0  0  0  0  0  0  0  0  0  0
   -0.1753   -2.1645   -0.3462 H   0  0  0  0  0  0  0  0  0  0  0  0
    1.4883   -2.7047   -0.5418 H   0  0  0  0  0  0  0  0  0  0  0  0
    0.7847    0.2689   -0.4013 H   0  0  0  0  0  0  0  0  0  0  0  0
    0.9600   -0.6440   -1.9080 H   0  0  0  0  0  0  0  0  0  0  0  0
    2.3299   -0.4578   -0.8150 H   0  0  0  0  0  0  0  0  0  0  0  0
   -2.7895    0.2030    0.1139 H   0  0  0  0  0  0  0  0  0  0  0  0
   -1.1421   -0.3852   -0.0847 H   0  0  0  0  0  0  0  0  0  0  0  0
   -2.1934   -2.7339   -0.4970 H   0  0  0  0  0  0  0  0  0  0  0  0
   -2.6090   -1.5150   -1.7126 H   0  0  0  0  0  0  0  0  0  0  0  0
   -3.7619   -1.9354   -0.4499 H   0  0  0  0  0  0  0  0  0  0  0  0
   -8.9086    0.8628    2.0713 H   0  0  0  0  0  0  0  0  0  0  0  0
   -7.3236    1.9200   -3.9102 H   0  0  0  0  0  0  0  0  0  0  0  0
   -7.9680    2.8438   -6.0483 H   0  0  0  0  0  0  0  0  0  0  0  0
   -9.6810    2.5712   -6.4120 H   0  0  0  0  0  0  0  0  0  0  0  0
   -9.1368    4.1740   -5.9510 H   0  0  0  0  0  0  0  0  0  0  0  0
  -11.7979    3.1047   -2.0894 H   0  0  0  0  0  0  0  0  0  0  0  0
  1  2  2  0  0  0  0
  2  3  1  0  0  0  0
  3  4  2  0  0  0  0
  3  5  1  0  0  0  0
  5  6  2  0  0  0  0
  6  7  1  0  0  0  0
  7  8  2  0  0  0  0
  8  9  1  0  0  0  0
  8 10  1  0  0  0  0
 10 11  2  0  0  0  0
 11 12  1  0  0  0  0
 12 13  2  0  0  0  0
 13 14  1  0  0  0  0
 14 15  3  0  0  0  0
 13 16  1  0  0  0  0
 16 17  3  0  0  0  0
  1 18  1  0  0  0  0
 18 19  2  0  0  0  0
 19 20  1  0  0  0  0
 20 21  1  0  0  0  0
 19 22  1  0  0  0  0
 22 23  1  0  0  0  0
 23 24  1  0  0  0  0
 24 25  1  0  0  0  0
 25 26  1  0  0  0  0
 26 27  1  0  0  0  0
 27 28  2  0  0  0  0
 28 29  1  0  0  0  0
 29 30  1  0  0  0  0
 27 31  1  0  0  0  0
 31 32  1  0  0  0  0
 32 33  1  0  0  0  0
 33 34  1  0  0  0  0
 34 35  1  0  0  0  0
 35 36  1  0  0  0  0
 36 37  1  0  0  0  0
 35 38  2  0  0  0  0
 38 39  1  0  0  0  0
 39 40  1  0  0  0  0
 40 41  1  0  0  0  0
 41 42  1  0  0  0  0
 42 43  1  0  0  0  0
 43 44  1  0  0  0  0
 44 45  1  0  0  0  0
 45 46  1  0  0  0  0
 46 47  1  0  0  0  0
 47 48  1  0  0  0  0
 45 49  1  0  0  0  0
 49 50  1  0  0  0  0
 42 51  1  0  0  0  0
 51 52  1  0  0  0  0
 38 53  1  0  0  0  0
 53 54  2  0  0  0  0
 54 55  1  0  0  0  0
 55 56  2  0  0  0  0
 55 57  1  0  0  0  0
 57 58  2  0  0  0  0
 58 59  1  0  0  0  0
 59 60  1  0  0  0  0
 59 61  2  0  0  0  0
 61 62  1  0  0  0  0
 61 63  1  0  0  0  0
 63 64  2  0  0  0  0
 64 65  1  0  0  0  0
 65 66  2  0  0  0  0
 66 67  1  0  0  0  0
 67 68  3  0  0  0  0
 66 69  1  0  0  0  0
 69 70  3  0  0  0  0
 12  2  1  0  0  0  0
 48 18  1  0  0  0  0
 65 54  1  0  0  0  0
 11  5  1  0  0  0  0
 47 22  2  0  0  0  0
 64 57  1  0  0  0  0
 46 24  2  0  0  0  0
 44 25  2  0  0  0  0
 30 26  2  0  0  0  0
 43 31  2  0  0  0  0
 41 32  2  0  0  0  0
 40 34  2  0  0  0  0
  1 71  1  0  0  0  0
  6 72  1  0  0  0  0
  7 73  1  0  0  0  0
  9 74  1  0  0  0  0
  9 75  1  0  0  0  0
  9 76  1  0  0  0  0
 10 77  1  0  0  0  0
 20 78  1  0  0  0  0
 20 79  1  0  0  0  0
 21 80  1  0  0  0  0
 21 81  1  0  0  0  0
 21 82  1  0  0  0  0
 36 83  1  0  0  0  0
 36 84  1  0  0  0  0
 37 85  1  0  0  0  0
 37 86  1  0  0  0  0
 37 87  1  0  0  0  0
 49 88  1  0  0  0  0
 49 89  1  0  0  0  0
 50 90  1  0  0  0  0
 50 91  1  0  0  0  0
 50 92  1  0  0  0  0
 51 93  1  0  0  0  0
 51 94  1  0  0  0  0
 52 95  1  0  0  0  0
 52 96  1  0  0  0  0
 52 97  1  0  0  0  0
 53 98  1  0  0  0  0
 58 99  1  0  0  0  0
 60100  1  0  0  0  0
 60101  1  0  0  0  0
 60102  1  0  0  0  0
 63103  1  0  0  0  0
M  END
