103

C          7.06650       -2.47010       -0.49610
C          8.27570       -1.86530       -0.30200
C          8.49480       -0.71520        0.61220
O          7.73600       -0.27870        1.45190
C          9.78540       -0.13580        0.19760
C         10.42520        0.98990        0.67870
C         11.63450        1.35470        0.10780
C         12.19720        0.61850       -0.93270
C         13.48380        1.05460       -1.55800
C         11.54490       -0.51660       -1.41360
C         10.34100       -0.89590       -0.84720
C          9.44740       -2.01210       -1.13910
C          9.70810       -3.06730       -1.97300
C         10.88250       -3.19570       -2.74180
N         11.81670       -3.34670       -3.39190
C          8.85250       -4.17860       -2.12570
N          8.21030       -5.11920       -2.27180
C          5.96590       -2.41490        0.38960
C          5.91780       -2.47110        1.77570
C          7.09120       -2.74450        2.65500
C          6.85640       -3.94090        3.57580
C          4.59720       -2.35720        2.23660
S          3.90160       -2.30060        3.84150
C          2.34300       -2.05650        3.13810
C          1.01080       -1.88980        3.53690
C          0.43330       -1.94530        4.82400
C         -0.98620       -1.81490        4.94790
N         -1.39850       -1.92460        6.20100
S         -0.10570       -2.16990        7.14460
N          1.02850       -2.14470        5.98950
C         -1.74680       -1.54550        3.78920
C         -3.10490       -1.23650        3.65580
S         -4.51540       -1.07010        4.64300
C         -5.40230       -0.53290        3.22660
C         -6.70720       -0.09580        3.05220
C         -7.71230       -0.08330        4.15680
C         -8.59030       -1.33690        4.10950
C         -6.94770        0.28200        1.71760
S         -5.52350        0.06420        0.69770
C         -4.62700       -0.50770        2.05320
C         -3.31820       -0.92320        2.30900
N         -2.14830       -1.04650        1.61130
C         -1.15880       -1.44370        2.48920
C          0.23430       -1.70730        2.35270
N          1.08740       -1.82110        1.26870
C          2.35540       -2.01980        1.74120
C          3.64030       -2.21060        1.22280
S          4.36390       -2.29680       -0.33810
C          0.85950       -1.89500       -0.15540
C          1.25350       -0.59760       -0.86310
C         -2.14370       -0.67540        0.21580
C         -2.70720       -1.78930       -0.66630
C         -8.16920        0.80250        1.28470
C         -8.57010        1.26200        0.05210
C         -7.76160        1.29040       -1.16810
O         -6.61900        0.88980       -1.31740
C         -8.60730        1.91040       -2.20500
C         -8.29730        2.17940       -3.52320
C         -9.24710        2.78640       -4.33750
C         -8.98370        3.11040       -5.77150
C        -10.48320        3.09280       -3.76610
F        -11.40920        3.68160       -4.54620
C        -10.81900        2.83220       -2.44700
C         -9.85860        2.22890       -1.65140
C         -9.86990        1.82850       -0.24490
C        -10.93310        1.98300        0.60830
C        -10.96610        1.60560        1.96640
N        -11.07510        1.32730        3.07630
C        -12.16810        2.55350        0.23450
N        -13.19570        3.00810       -0.00050
H          6.88480       -2.97430       -1.43890
H          9.98510        1.56130        1.48150
H         12.15340        2.22920        0.47240
H         14.10050        1.59710       -0.84590
H         13.27640        1.71810       -2.39840
H         14.03990        0.20070       -1.93660
H         11.98290       -1.07680       -2.22450
H          7.96890       -2.93360        2.03510
H          7.29110       -1.85030        3.25130
H          6.04570       -3.74890        4.27270
H          6.61300       -4.82620        2.99200
H          7.75860       -4.14260        4.14750
H         -7.17380       -0.06070        5.10630
H         -8.34580        0.80330        4.10200
H         -9.14420       -1.38500        3.17500
H         -7.97790       -2.23120        4.19790
H         -9.30200       -1.31740        4.92960
H         -0.17530       -2.16450       -0.34620
H          1.48830       -2.70470       -0.54180
H          0.78470        0.26890       -0.40130
H          0.96000       -0.64400       -1.90800
H          2.32990       -0.45780       -0.81500
H         -2.78950        0.20300        0.11390
H         -1.14210       -0.38520       -0.08470
H         -2.19340       -2.73390       -0.49700
H         -2.60900       -1.51500       -1.71260
H         -3.76190       -1.93540       -0.44990
H         -8.90860        0.86280        2.07130
H         -7.32360        1.92000       -3.91020
H         -7.96800        2.84380       -6.04830
H         -9.68100        2.57120       -6.41200
H         -9.13680        4.17400       -5.95100
H        -11.79790        3.10470       -2.08940
