
  xtb     02012222133D
 energy: -185.780181294228 gnorm: 0.000942501644 xtb: 6.4.1 (unknown)
100111  0     0  0            999 V2000
   -6.8987    0.4403   -1.8598 C   0  0  0  0  0  0  0  0  0  0  0  0
   -7.0828   -0.8071   -2.4022 C   0  0  0  0  0  0  0  0  0  0  0  0
   -6.0752   -1.8689   -2.4990 C   0  0  0  0  0  0  0  0  0  0  0  0
   -4.9096   -1.8213   -2.1405 O   0  0  0  0  0  0  0  0  0  0  0  0
   -6.7497   -3.0168   -3.1224 C   0  0  0  0  0  0  0  0  0  0  0  0
   -6.2456   -4.2663   -3.4281 C   0  0  0  0  0  0  0  0  0  0  0  0
   -7.0935   -5.1905   -4.0162 C   0  0  0  0  0  0  0  0  0  0  0  0
   -8.4225   -4.8782   -4.2965 C   0  0  0  0  0  0  0  0  0  0  0  0
   -9.3077   -5.8932   -4.9468 C   0  0  0  0  0  0  0  0  0  0  0  0
   -8.9213   -3.6136   -3.9866 C   0  0  0  0  0  0  0  0  0  0  0  0
   -8.0859   -2.6794   -3.3992 C   0  0  0  0  0  0  0  0  0  0  0  0
   -8.3227   -1.3013   -2.9674 C   0  0  0  0  0  0  0  0  0  0  0  0
   -9.5110   -0.6280   -3.0940 C   0  0  0  0  0  0  0  0  0  0  0  0
  -10.6787   -1.1810   -3.6605 C   0  0  0  0  0  0  0  0  0  0  0  0
  -11.6653   -1.5613   -4.1081 N   0  0  0  0  0  0  0  0  0  0  0  0
   -9.7565    0.7004   -2.6898 C   0  0  0  0  0  0  0  0  0  0  0  0
  -10.0403    1.7734   -2.3908 N   0  0  0  0  0  0  0  0  0  0  0  0
   -5.7724    1.0308   -1.2763 C   0  0  0  0  0  0  0  0  0  0  0  0
   -5.7852    2.3264   -0.7320 C   0  0  0  0  0  0  0  0  0  0  0  0
   -6.9724    3.2295   -0.6517 C   0  0  0  0  0  0  0  0  0  0  0  0
   -7.8312    2.8897    0.5696 C   0  0  0  0  0  0  0  0  0  0  0  0
   -4.5480    2.6637   -0.1987 C   0  0  0  0  0  0  0  0  0  0  0  0
   -3.9731    4.1009    0.6269 S   0  0  0  0  0  0  0  0  0  0  0  0
   -2.4271    3.3443    0.7941 C   0  0  0  0  0  0  0  0  0  0  0  0
   -1.1802    3.6005    1.3758 C   0  0  0  0  0  0  0  0  0  0  0  0
   -0.7443    4.6859    2.1677 C   0  0  0  0  0  0  0  0  0  0  0  0
    0.5569    4.6269    2.7618 C   0  0  0  0  0  0  0  0  0  0  0  0
    0.8157    5.6789    3.5220 N   0  0  0  0  0  0  0  0  0  0  0  0
   -0.4694    6.6634    3.4877 S   0  0  0  0  0  0  0  0  0  0  0  0
   -1.4052    5.7822    2.5036 N   0  0  0  0  0  0  0  0  0  0  0  0
    1.3961    3.5328    2.4551 C   0  0  0  0  0  0  0  0  0  0  0  0
    2.7205    3.2728    2.8228 C   0  0  0  0  0  0  0  0  0  0  0  0
    3.9622    3.9600    3.8099 S   0  0  0  0  0  0  0  0  0  0  0  0
    5.0283    2.6572    3.3149 C   0  0  0  0  0  0  0  0  0  0  0  0
    6.3435    2.3579    3.6346 C   0  0  0  0  0  0  0  0  0  0  0  0
    7.1428    3.1646    4.6043 C   0  0  0  0  0  0  0  0  0  0  0  0
    7.0597    2.5616    6.0096 C   0  0  0  0  0  0  0  0  0  0  0  0
    6.7771    1.1866    2.9828 C   0  0  0  0  0  0  0  0  0  0  0  0
    5.5138    0.4887    1.9638 S   0  0  0  0  0  0  0  0  0  0  0  0
    4.4298    1.7460    2.4243 C   0  0  0  0  0  0  0  0  0  0  0  0
    3.1073    2.1042    2.1542 C   0  0  0  0  0  0  0  0  0  0  0  0
    2.0631    1.6233    1.4105 N   0  0  0  0  0  0  0  0  0  0  0  0
    0.9873    2.4763    1.5846 C   0  0  0  0  0  0  0  0  0  0  0  0
   -0.3552    2.4636    1.1174 C   0  0  0  0  0  0  0  0  0  0  0  0
   -1.1087    1.5391    0.4151 N   0  0  0  0  0  0  0  0  0  0  0  0
   -2.3587    2.0639    0.2324 C   0  0  0  0  0  0  0  0  0  0  0  0
   -3.5729    1.6613   -0.3332 C   0  0  0  0  0  0  0  0  0  0  0  0
   -4.1927    0.2598   -1.1225 S   0  0  0  0  0  0  0  0  0  0  0  0
   -0.8961    0.1283    0.1808 C   0  0  0  0  0  0  0  0  0  0  0  0
   -0.7952   -0.6456    1.4929 C   0  0  0  0  0  0  0  0  0  0  0  0
    2.3242    0.6259    0.3959 C   0  0  0  0  0  0  0  0  0  0  0  0
    2.2764    1.2299   -1.0054 C   0  0  0  0  0  0  0  0  0  0  0  0
    8.0556    0.6548    3.1487 C   0  0  0  0  0  0  0  0  0  0  0  0
    8.6475   -0.4658    2.6090 C   0  0  0  0  0  0  0  0  0  0  0  0
    8.0379   -1.3905    1.6553 C   0  0  0  0  0  0  0  0  0  0  0  0
    6.9134   -1.3542    1.1864 O   0  0  0  0  0  0  0  0  0  0  0  0
    9.0719   -2.4018    1.3495 C   0  0  0  0  0  0  0  0  0  0  0  0
    8.9877   -3.4822    0.4961 C   0  0  0  0  0  0  0  0  0  0  0  0
   10.1013   -4.3031    0.3626 C   0  0  0  0  0  0  0  0  0  0  0  0
   10.0658   -5.6674   -0.6848 Cl  0  0  0  0  0  0  0  0  0  0  0  0
   11.2571   -4.0105    1.0887 C   0  0  0  0  0  0  0  0  0  0  0  0
   12.3268   -4.8038    0.9543 F   0  0  0  0  0  0  0  0  0  0  0  0
   11.3468   -2.9262    1.9487 C   0  0  0  0  0  0  0  0  0  0  0  0
   10.2356   -2.1091    2.0806 C   0  0  0  0  0  0  0  0  0  0  0  0
    9.9980   -0.9096    2.8841 C   0  0  0  0  0  0  0  0  0  0  0  0
   10.9097   -0.3452    3.7405 C   0  0  0  0  0  0  0  0  0  0  0  0
   10.6977    0.7979    4.5385 C   0  0  0  0  0  0  0  0  0  0  0  0
   10.6079    1.7166    5.2234 N   0  0  0  0  0  0  0  0  0  0  0  0
   12.2116   -0.8472    3.9489 C   0  0  0  0  0  0  0  0  0  0  0  0
   13.2822   -1.2015    4.1623 N   0  0  0  0  0  0  0  0  0  0  0  0
   -7.7632    1.0900   -1.8663 H   0  0  0  0  0  0  0  0  0  0  0  0
   -5.2164   -4.5041   -3.2075 H   0  0  0  0  0  0  0  0  0  0  0  0
   -6.7230   -6.1747   -4.2637 H   0  0  0  0  0  0  0  0  0  0  0  0
   -9.0863   -5.9467   -6.0131 H   0  0  0  0  0  0  0  0  0  0  0  0
   -9.1394   -6.8809   -4.5229 H   0  0  0  0  0  0  0  0  0  0  0  0
  -10.3553   -5.6290   -4.8307 H   0  0  0  0  0  0  0  0  0  0  0  0
   -9.9511   -3.3845   -4.2083 H   0  0  0  0  0  0  0  0  0  0  0  0
   -7.5819    3.1601   -1.5538 H   0  0  0  0  0  0  0  0  0  0  0  0
   -6.6135    4.2565   -0.5595 H   0  0  0  0  0  0  0  0  0  0  0  0
   -7.2485    2.9927    1.4821 H   0  0  0  0  0  0  0  0  0  0  0  0
   -8.2030    1.8696    0.5075 H   0  0  0  0  0  0  0  0  0  0  0  0
   -8.6819    3.5631    0.6199 H   0  0  0  0  0  0  0  0  0  0  0  0
    8.1879    3.2266    4.2984 H   0  0  0  0  0  0  0  0  0  0  0  0
    6.7315    4.1757    4.6265 H   0  0  0  0  0  0  0  0  0  0  0  0
    7.6306    3.1706    6.7043 H   0  0  0  0  0  0  0  0  0  0  0  0
    7.4674    1.5537    6.0215 H   0  0  0  0  0  0  0  0  0  0  0  0
    6.0257    2.5238    6.3442 H   0  0  0  0  0  0  0  0  0  0  0  0
   -1.7640   -0.2280   -0.3790 H   0  0  0  0  0  0  0  0  0  0  0  0
   -0.0221   -0.0277   -0.4506 H   0  0  0  0  0  0  0  0  0  0  0  0
   -0.6110   -1.6967    1.2890 H   0  0  0  0  0  0  0  0  0  0  0  0
   -1.7284   -0.5601    2.0447 H   0  0  0  0  0  0  0  0  0  0  0  0
    0.0060   -0.2607    2.1200 H   0  0  0  0  0  0  0  0  0  0  0  0
    3.3298    0.2444    0.5878 H   0  0  0  0  0  0  0  0  0  0  0  0
    1.6391   -0.2151    0.4970 H   0  0  0  0  0  0  0  0  0  0  0  0
    2.4552    0.4564   -1.7470 H   0  0  0  0  0  0  0  0  0  0  0  0
    1.3132    1.6946   -1.2044 H   0  0  0  0  0  0  0  0  0  0  0  0
    3.0471    1.9903   -1.1079 H   0  0  0  0  0  0  0  0  0  0  0  0
    8.6740    1.2331    3.8213 H   0  0  0  0  0  0  0  0  0  0  0  0
    8.0807   -3.6816   -0.0517 H   0  0  0  0  0  0  0  0  0  0  0  0
   12.2702   -2.7586    2.4782 H   0  0  0  0  0  0  0  0  0  0  0  0
  1  2  2  0  0  0  0
  2  3  1  0  0  0  0
  3  4  2  0  0  0  0
  3  5  1  0  0  0  0
  5  6  2  0  0  0  0
  6  7  1  0  0  0  0
  7  8  2  0  0  0  0
  8  9  1  0  0  0  0
  8 10  1  0  0  0  0
 10 11  2  0  0  0  0
 11 12  1  0  0  0  0
 12 13  2  0  0  0  0
 13 14  1  0  0  0  0
 14 15  3  0  0  0  0
 13 16  1  0  0  0  0
 16 17  3  0  0  0  0
  1 18  1  0  0  0  0
 18 19  2  0  0  0  0
 19 20  1  0  0  0  0
 20 21  1  0  0  0  0
 19 22  1  0  0  0  0
 22 23  1  0  0  0  0
 23 24  1  0  0  0  0
 24 25  1  0  0  0  0
 25 26  1  0  0  0  0
 26 27  1  0  0  0  0
 27 28  2  0  0  0  0
 28 29  1  0  0  0  0
 29 30  1  0  0  0  0
 27 31  1  0  0  0  0
 31 32  1  0  0  0  0
 32 33  1  0  0  0  0
 33 34  1  0  0  0  0
 34 35  1  0  0  0  0
 35 36  1  0  0  0  0
 36 37  1  0  0  0  0
 35 38  2  0  0  0  0
 38 39  1  0  0  0  0
 39 40  1  0  0  0  0
 40 41  1  0  0  0  0
 41 42  1  0  0  0  0
 42 43  1  0  0  0  0
 43 44  1  0  0  0  0
 44 45  1  0  0  0  0
 45 46  1  0  0  0  0
 46 47  1  0  0  0  0
 47 48  1  0  0  0  0
 45 49  1  0  0  0  0
 49 50  1  0  0  0  0
 42 51  1  0  0  0  0
 51 52  1  0  0  0  0
 38 53  1  0  0  0  0
 53 54  2  0  0  0  0
 54 55  1  0  0  0  0
 55 56  2  0  0  0  0
 55 57  1  0  0  0  0
 57 58  2  0  0  0  0
 58 59  1  0  0  0  0
 59 60  1  0  0  0  0
 59 61  2  0  0  0  0
 61 62  1  0  0  0  0
 61 63  1  0  0  0  0
 63 64  2  0  0  0  0
 64 65  1  0  0  0  0
 65 66  2  0  0  0  0
 66 67  1  0  0  0  0
 67 68  3  0  0  0  0
 66 69  1  0  0  0  0
 69 70  3  0  0  0  0
 12  2  1  0  0  0  0
 48 18  1  0  0  0  0
 65 54  1  0  0  0  0
 11  5  1  0  0  0  0
 47 22  2  0  0  0  0
 64 57  1  0  0  0  0
 46 24  2  0  0  0  0
 44 25  2  0  0  0  0
 30 26  2  0  0  0  0
 43 31  2  0  0  0  0
 41 32  2  0  0  0  0
 40 34  2  0  0  0  0
  1 71  1  0  0  0  0
  6 72  1  0  0  0  0
  7 73  1  0  0  0  0
  9 74  1  0  0  0  0
  9 75  1  0  0  0  0
  9 76  1  0  0  0  0
 10 77  1  0  0  0  0
 20 78  1  0  0  0  0
 20 79  1  0  0  0  0
 21 80  1  0  0  0  0
 21 81  1  0  0  0  0
 21 82  1  0  0  0  0
 36 83  1  0  0  0  0
 36 84  1  0  0  0  0
 37 85  1  0  0  0  0
 37 86  1  0  0  0  0
 37 87  1  0  0  0  0
 49 88  1  0  0  0  0
 49 89  1  0  0  0  0
 50 90  1  0  0  0  0
 50 91  1  0  0  0  0
 50 92  1  0  0  0  0
 51 93  1  0  0  0  0
 51 94  1  0  0  0  0
 52 95  1  0  0  0  0
 52 96  1  0  0  0  0
 52 97  1  0  0  0  0
 53 98  1  0  0  0  0
 58 99  1  0  0  0  0
 63100  1  0  0  0  0
M  END
