
  xtb     02102219113D
 energy: -271.451997479425 gnorm: 0.000714225254 xtb: 6.4.1 (unknown)
158174  0     0  0            999 V2000
    3.0480    5.8993   -5.3360 C   0  0  0  0  0  0  0  0  0  0  0  0
    3.0665    6.0626   -6.6976 C   0  0  0  0  0  0  0  0  0  0  0  0
    2.4893    5.1359   -7.6810 C   0  0  0  0  0  0  0  0  0  0  0  0
    1.9334    4.0741   -7.4607 O   0  0  0  0  0  0  0  0  0  0  0  0
    2.7180    5.7468   -8.9992 C   0  0  0  0  0  0  0  0  0  0  0  0
    2.3586    5.2844  -10.2493 C   0  0  0  0  0  0  0  0  0  0  0  0
    2.6878    6.0536  -11.3552 C   0  0  0  0  0  0  0  0  0  0  0  0
    3.3632    7.2630  -11.2183 C   0  0  0  0  0  0  0  0  0  0  0  0
    3.6955    8.0929  -12.4174 C   0  0  0  0  0  0  0  0  0  0  0  0
    3.7222    7.7224   -9.9498 C   0  0  0  0  0  0  0  0  0  0  0  0
    3.4012    6.9656   -8.8376 C   0  0  0  0  0  0  0  0  0  0  0  0
    3.6408    7.1859   -7.4106 C   0  0  0  0  0  0  0  0  0  0  0  0
    4.2959    8.2673   -6.8789 C   0  0  0  0  0  0  0  0  0  0  0  0
    4.5377    8.4984   -5.5091 C   0  0  0  0  0  0  0  0  0  0  0  0
    4.7758    8.7680   -4.4175 N   0  0  0  0  0  0  0  0  0  0  0  0
    4.8357    9.3217   -7.6449 C   0  0  0  0  0  0  0  0  0  0  0  0
    5.2991   10.2123   -8.2025 N   0  0  0  0  0  0  0  0  0  0  0  0
    2.5067    4.8765   -4.5446 C   0  0  0  0  0  0  0  0  0  0  0  0
    1.6805    3.4277   -5.1234 S   0  0  0  0  0  0  0  0  0  0  0  0
    1.4281    2.9242   -3.4981 C   0  0  0  0  0  0  0  0  0  0  0  0
    0.8484    1.8999   -2.7496 C   0  0  0  0  0  0  0  0  0  0  0  0
    0.0172    0.4017   -3.0006 S   0  0  0  0  0  0  0  0  0  0  0  0
   -0.0693    0.2031   -1.2829 C   0  0  0  0  0  0  0  0  0  0  0  0
   -0.6087   -0.8046   -0.4279 C   0  0  0  0  0  0  0  0  0  0  0  0
   -1.2952   -1.9801   -0.7219 C   0  0  0  0  0  0  0  0  0  0  0  0
   -1.7442   -2.7280    0.3410 C   0  0  0  0  0  0  0  0  0  0  0  0
   -2.5341   -4.0263    0.3111 C   0  0  0  0  0  0  0  0  0  0  0  0
   -1.6953   -5.0756   -0.3934 C   0  0  0  0  0  0  0  0  0  0  0  0
   -1.7244   -5.1719   -1.7793 C   0  0  0  0  0  0  0  0  0  0  0  0
   -0.9338   -6.0960   -2.4349 C   0  0  0  0  0  0  0  0  0  0  0  0
   -0.0892   -6.9428   -1.7282 C   0  0  0  0  0  0  0  0  0  0  0  0
    0.7267   -7.9831   -2.4395 C   0  0  0  0  0  0  0  0  0  0  0  0
   -0.0748   -9.2780   -2.5890 C   0  0  0  0  0  0  0  0  0  0  0  0
   -0.0565   -6.8356   -0.3447 C   0  0  0  0  0  0  0  0  0  0  0  0
   -0.8438   -5.9104    0.3162 C   0  0  0  0  0  0  0  0  0  0  0  0
   -3.9167   -3.8856   -0.3025 C   0  0  0  0  0  0  0  0  0  0  0  0
   -4.5331   -2.6491   -0.4241 C   0  0  0  0  0  0  0  0  0  0  0  0
   -5.8155   -2.5555   -0.9329 C   0  0  0  0  0  0  0  0  0  0  0  0
   -6.5148   -3.6886   -1.3239 C   0  0  0  0  0  0  0  0  0  0  0  0
   -7.9247   -3.5860   -1.8286 C   0  0  0  0  0  0  0  0  0  0  0  0
   -8.9127   -3.7000   -0.6658 C   0  0  0  0  0  0  0  0  0  0  0  0
   -5.8986   -4.9255   -1.1831 C   0  0  0  0  0  0  0  0  0  0  0  0
   -4.6182   -5.0256   -0.6747 C   0  0  0  0  0  0  0  0  0  0  0  0
   -2.7278   -4.2795    1.7839 C   0  0  0  0  0  0  0  0  0  0  0  0
   -2.1337   -3.2621    2.5248 C   0  0  0  0  0  0  0  0  0  0  0  0
   -1.4996   -2.3129    1.6722 C   0  0  0  0  0  0  0  0  0  0  0  0
   -0.7868   -1.1517    1.9660 C   0  0  0  0  0  0  0  0  0  0  0  0
   -0.3442   -0.4037    0.9032 C   0  0  0  0  0  0  0  0  0  0  0  0
    0.4116    0.9183    0.9342 C   0  0  0  0  0  0  0  0  0  0  0  0
    1.8388    0.7427    1.4324 C   0  0  0  0  0  0  0  0  0  0  0  0
    2.4962    1.7276    2.1548 C   0  0  0  0  0  0  0  0  0  0  0  0
    3.8210    1.5699    2.5189 C   0  0  0  0  0  0  0  0  0  0  0  0
    4.5299    0.4317    2.1634 C   0  0  0  0  0  0  0  0  0  0  0  0
    5.9579    0.2474    2.5874 C   0  0  0  0  0  0  0  0  0  0  0  0
    6.0290   -0.4999    3.9207 C   0  0  0  0  0  0  0  0  0  0  0  0
    3.8691   -0.5529    1.4396 C   0  0  0  0  0  0  0  0  0  0  0  0
    2.5456   -0.4001    1.0747 C   0  0  0  0  0  0  0  0  0  0  0  0
   -0.4241    1.8983    1.7298 C   0  0  0  0  0  0  0  0  0  0  0  0
   -1.3525    2.7136    1.0957 C   0  0  0  0  0  0  0  0  0  0  0  0
   -2.1361    3.5903    1.8251 C   0  0  0  0  0  0  0  0  0  0  0  0
   -2.0231    3.6685    3.2063 C   0  0  0  0  0  0  0  0  0  0  0  0
   -2.8136    4.6730    3.9915 C   0  0  0  0  0  0  0  0  0  0  0  0
   -2.0020    5.9575    4.1741 C   0  0  0  0  0  0  0  0  0  0  0  0
   -1.1232    2.8217    3.8404 C   0  0  0  0  0  0  0  0  0  0  0  0
   -0.3426    1.9409    3.1167 C   0  0  0  0  0  0  0  0  0  0  0  0
    0.4979    1.2315   -0.5418 C   0  0  0  0  0  0  0  0  0  0  0  0
    1.0326    2.2122   -1.3784 C   0  0  0  0  0  0  0  0  0  0  0  0
    1.7041    3.4118   -1.2752 N   0  0  0  0  0  0  0  0  0  0  0  0
    1.9618    3.8431   -2.5610 C   0  0  0  0  0  0  0  0  0  0  0  0
    2.5686    4.9344   -3.1478 C   0  0  0  0  0  0  0  0  0  0  0  0
    2.1064    4.0706   -0.1232 C   0  0  0  0  0  0  0  0  0  0  0  0
    1.3124    4.6066    0.8443 C   0  0  0  0  0  0  0  0  0  0  0  0
    2.0854    5.1779    1.8721 C   0  0  0  0  0  0  0  0  0  0  0  0
    1.7274    5.9595    3.3681 S   0  0  0  0  0  0  0  0  0  0  0  0
    3.4332    6.1768    3.6913 C   0  0  0  0  0  0  0  0  0  0  0  0
    3.8593    6.8909    4.9267 C   0  0  0  0  0  0  0  0  0  0  0  0
    3.5737    8.3907    4.8249 C   0  0  0  0  0  0  0  0  0  0  0  0
    4.2198    5.6743    2.7014 C   0  0  0  0  0  0  0  0  0  0  0  0
    3.4561    5.0976    1.6665 C   0  0  0  0  0  0  0  0  0  0  0  0
    3.8252    4.2846    0.1876 S   0  0  0  0  0  0  0  0  0  0  0  0
   -2.3952   -3.4293    4.2054 S   0  0  0  0  0  0  0  0  0  0  0  0
   -3.3373   -4.8900    3.9228 C   0  0  0  0  0  0  0  0  0  0  0  0
   -3.3857   -5.2103    2.5691 C   0  0  0  0  0  0  0  0  0  0  0  0
   -3.9068   -5.6343    4.9726 C   0  0  0  0  0  0  0  0  0  0  0  0
   -4.1449   -5.2361    6.2557 C   0  0  0  0  0  0  0  0  0  0  0  0
   -4.3352   -6.2294    7.3351 C   0  0  0  0  0  0  0  0  0  0  0  0
   -4.5360   -7.4137    7.2095 O   0  0  0  0  0  0  0  0  0  0  0  0
   -4.1506   -5.4621    8.5951 C   0  0  0  0  0  0  0  0  0  0  0  0
   -4.0621   -5.9280    9.8953 C   0  0  0  0  0  0  0  0  0  0  0  0
   -4.3172   -7.5734   10.2686 Cl  0  0  0  0  0  0  0  0  0  0  0  0
   -3.7480   -5.0113   10.9097 C   0  0  0  0  0  0  0  0  0  0  0  0
   -3.6527   -5.5389   12.5333 Cl  0  0  0  0  0  0  0  0  0  0  0  0
   -3.4773   -3.6801   10.5960 C   0  0  0  0  0  0  0  0  0  0  0  0
   -3.0085   -2.6025   11.8384 Cl  0  0  0  0  0  0  0  0  0  0  0  0
   -3.5725   -3.2118    9.2764 C   0  0  0  0  0  0  0  0  0  0  0  0
   -3.0847   -1.6055    8.9263 Cl  0  0  0  0  0  0  0  0  0  0  0  0
   -3.9665   -4.0986    8.2862 C   0  0  0  0  0  0  0  0  0  0  0  0
   -4.2148   -3.9198    6.8566 C   0  0  0  0  0  0  0  0  0  0  0  0
   -4.7942   -2.8287    6.2657 C   0  0  0  0  0  0  0  0  0  0  0  0
   -5.2505   -2.8457    4.9278 C   0  0  0  0  0  0  0  0  0  0  0  0
   -5.6698   -2.8253    3.8598 N   0  0  0  0  0  0  0  0  0  0  0  0
   -5.1952   -1.6455    6.9197 C   0  0  0  0  0  0  0  0  0  0  0  0
   -5.6092   -0.6738    7.3681 N   0  0  0  0  0  0  0  0  0  0  0  0
    3.5106    6.6824   -4.7474 H   0  0  0  0  0  0  0  0  0  0  0  0
    1.8349    4.3462  -10.3496 H   0  0  0  0  0  0  0  0  0  0  0  0
    2.4163    5.7106  -12.3429 H   0  0  0  0  0  0  0  0  0  0  0  0
    3.0026    8.9315  -12.4893 H   0  0  0  0  0  0  0  0  0  0  0  0
    4.7000    8.5021  -12.3345 H   0  0  0  0  0  0  0  0  0  0  0  0
    3.6222    7.5099  -13.3317 H   0  0  0  0  0  0  0  0  0  0  0  0
    4.2441    8.6616   -9.8611 H   0  0  0  0  0  0  0  0  0  0  0  0
   -1.4774   -2.2702   -1.7448 H   0  0  0  0  0  0  0  0  0  0  0  0
   -2.3817   -4.5299   -2.3473 H   0  0  0  0  0  0  0  0  0  0  0  0
   -0.9720   -6.1599   -3.5129 H   0  0  0  0  0  0  0  0  0  0  0  0
    1.0097   -7.6191   -3.4291 H   0  0  0  0  0  0  0  0  0  0  0  0
    1.6392   -8.1879   -1.8761 H   0  0  0  0  0  0  0  0  0  0  0  0
    0.5144  -10.0334   -3.1036 H   0  0  0  0  0  0  0  0  0  0  0  0
   -0.9828   -9.0969   -3.1598 H   0  0  0  0  0  0  0  0  0  0  0  0
   -0.3566   -9.6633   -1.6116 H   0  0  0  0  0  0  0  0  0  0  0  0
    0.5954   -7.4823    0.2252 H   0  0  0  0  0  0  0  0  0  0  0  0
   -0.7952   -5.8427    1.3935 H   0  0  0  0  0  0  0  0  0  0  0  0
   -4.0134   -1.7526   -0.1195 H   0  0  0  0  0  0  0  0  0  0  0  0
   -6.2798   -1.5842   -1.0243 H   0  0  0  0  0  0  0  0  0  0  0  0
   -8.0694   -2.6277   -2.3314 H   0  0  0  0  0  0  0  0  0  0  0  0
   -8.1210   -4.3834   -2.5485 H   0  0  0  0  0  0  0  0  0  0  0  0
   -8.7980   -4.6585   -0.1648 H   0  0  0  0  0  0  0  0  0  0  0  0
   -8.7313   -2.9126    0.0620 H   0  0  0  0  0  0  0  0  0  0  0  0
   -9.9356   -3.6151   -1.0252 H   0  0  0  0  0  0  0  0  0  0  0  0
   -6.4282   -5.8216   -1.4740 H   0  0  0  0  0  0  0  0  0  0  0  0
   -4.1541   -5.9964   -0.5741 H   0  0  0  0  0  0  0  0  0  0  0  0
   -0.6104   -0.8589    2.9890 H   0  0  0  0  0  0  0  0  0  0  0  0
    1.9747    2.6270    2.4414 H   0  0  0  0  0  0  0  0  0  0  0  0
    4.3107    2.3531    3.0807 H   0  0  0  0  0  0  0  0  0  0  0  0
    6.4983   -0.3208    1.8276 H   0  0  0  0  0  0  0  0  0  0  0  0
    6.4400    1.2212    2.6936 H   0  0  0  0  0  0  0  0  0  0  0  0
    5.5066    0.0574    4.6952 H   0  0  0  0  0  0  0  0  0  0  0  0
    7.0638   -0.6340    4.2270 H   0  0  0  0  0  0  0  0  0  0  0  0
    5.5632   -1.4789    3.8312 H   0  0  0  0  0  0  0  0  0  0  0  0
    4.3999   -1.4484    1.1496 H   0  0  0  0  0  0  0  0  0  0  0  0
    2.0574   -1.1763    0.5026 H   0  0  0  0  0  0  0  0  0  0  0  0
   -1.4618    2.6694    0.0211 H   0  0  0  0  0  0  0  0  0  0  0  0
   -2.8446    4.2241    1.3105 H   0  0  0  0  0  0  0  0  0  0  0  0
   -3.0638    4.2626    4.9716 H   0  0  0  0  0  0  0  0  0  0  0  0
   -3.7442    4.9041    3.4698 H   0  0  0  0  0  0  0  0  0  0  0  0
   -1.7531    6.3904    3.2077 H   0  0  0  0  0  0  0  0  0  0  0  0
   -1.0730    5.7482    4.6996 H   0  0  0  0  0  0  0  0  0  0  0  0
   -2.5694    6.6877    4.7458 H   0  0  0  0  0  0  0  0  0  0  0  0
   -1.0344    2.8499    4.9168 H   0  0  0  0  0  0  0  0  0  0  0  0
    0.3453    1.2896    3.6359 H   0  0  0  0  0  0  0  0  0  0  0  0
    3.0376    5.7469   -2.6226 H   0  0  0  0  0  0  0  0  0  0  0  0
    0.2395    4.5832    0.8253 H   0  0  0  0  0  0  0  0  0  0  0  0
    3.3258    6.4830    5.7888 H   0  0  0  0  0  0  0  0  0  0  0  0
    4.9286    6.7288    5.0757 H   0  0  0  0  0  0  0  0  0  0  0  0
    3.8960    8.8968    5.7311 H   0  0  0  0  0  0  0  0  0  0  0  0
    4.1041    8.8200    3.9782 H   0  0  0  0  0  0  0  0  0  0  0  0
    2.5084    8.5629    4.6897 H   0  0  0  0  0  0  0  0  0  0  0  0
    5.2936    5.7099    2.7121 H   0  0  0  0  0  0  0  0  0  0  0  0
   -3.9173   -6.0689    2.2012 H   0  0  0  0  0  0  0  0  0  0  0  0
   -4.1168   -6.6773    4.7582 H   0  0  0  0  0  0  0  0  0  0  0  0
  1  2  2  0  0  0  0
  2  3  1  0  0  0  0
  3  4  2  0  0  0  0
  3  5  1  0  0  0  0
  5  6  2  0  0  0  0
  6  7  1  0  0  0  0
  7  8  2  0  0  0  0
  8  9  1  0  0  0  0
  8 10  1  0  0  0  0
 10 11  2  0  0  0  0
 11 12  1  0  0  0  0
 12 13  2  0  0  0  0
 13 14  1  0  0  0  0
 14 15  3  0  0  0  0
 13 16  1  0  0  0  0
 16 17  3  0  0  0  0
  1 18  1  0  0  0  0
 18 19  1  0  0  0  0
 19 20  1  0  0  0  0
 20 21  1  0  0  0  0
 21 22  1  0  0  0  0
 22 23  1  0  0  0  0
 23 24  1  0  0  0  0
 24 25  2  0  0  0  0
 25 26  1  0  0  0  0
 26 27  1  0  0  0  0
 27 28  1  0  0  0  0
 28 29  2  0  0  0  0
 29 30  1  0  0  0  0
 30 31  2  0  0  0  0
 31 32  1  0  0  0  0
 32 33  1  0  0  0  0
 31 34  1  0  0  0  0
 34 35  2  0  0  0  0
 27 36  1  0  0  0  0
 36 37  2  0  0  0  0
 37 38  1  0  0  0  0
 38 39  2  0  0  0  0
 39 40  1  0  0  0  0
 40 41  1  0  0  0  0
 39 42  1  0  0  0  0
 42 43  2  0  0  0  0
 27 44  1  0  0  0  0
 44 45  2  0  0  0  0
 45 46  1  0  0  0  0
 46 47  1  0  0  0  0
 47 48  2  0  0  0  0
 48 49  1  0  0  0  0
 49 50  1  0  0  0  0
 50 51  2  0  0  0  0
 51 52  1  0  0  0  0
 52 53  2  0  0  0  0
 53 54  1  0  0  0  0
 54 55  1  0  0  0  0
 53 56  1  0  0  0  0
 56 57  2  0  0  0  0
 49 58  1  0  0  0  0
 58 59  2  0  0  0  0
 59 60  1  0  0  0  0
 60 61  2  0  0  0  0
 61 62  1  0  0  0  0
 62 63  1  0  0  0  0
 61 64  1  0  0  0  0
 64 65  2  0  0  0  0
 49 66  1  0  0  0  0
 66 67  1  0  0  0  0
 67 68  1  0  0  0  0
 68 69  1  0  0  0  0
 69 70  1  0  0  0  0
 68 71  1  0  0  0  0
 71 72  2  0  0  0  0
 72 73  1  0  0  0  0
 73 74  1  0  0  0  0
 74 75  1  0  0  0  0
 75 76  1  0  0  0  0
 76 77  1  0  0  0  0
 75 78  2  0  0  0  0
 78 79  1  0  0  0  0
 79 80  1  0  0  0  0
 45 81  1  0  0  0  0
 81 82  1  0  0  0  0
 82 83  2  0  0  0  0
 82 84  1  0  0  0  0
 84 85  2  0  0  0  0
 85 86  1  0  0  0  0
 86 87  2  0  0  0  0
 86 88  1  0  0  0  0
 88 89  2  0  0  0  0
 89 90  1  0  0  0  0
 89 91  1  0  0  0  0
 91 92  1  0  0  0  0
 91 93  2  0  0  0  0
 93 94  1  0  0  0  0
 93 95  1  0  0  0  0
 95 96  1  0  0  0  0
 95 97  2  0  0  0  0
 97 98  1  0  0  0  0
 98 99  2  0  0  0  0
 99100  1  0  0  0  0
100101  3  0  0  0  0
 99102  1  0  0  0  0
102103  3  0  0  0  0
 12  2  1  0  0  0  0
 70 18  2  0  0  0  0
 80 71  1  0  0  0  0
 98 85  1  0  0  0  0
 11  5  1  0  0  0  0
 69 20  2  0  0  0  0
 79 73  2  0  0  0  0
 97 88  1  0  0  0  0
 67 21  2  0  0  0  0
 66 23  2  0  0  0  0
 48 24  1  0  0  0  0
 57 50  1  0  0  0  0
 65 58  1  0  0  0  0
 46 26  2  0  0  0  0
 35 28  1  0  0  0  0
 43 36  1  0  0  0  0
 83 44  1  0  0  0  0
  1104  1  0  0  0  0
  6105  1  0  0  0  0
  7106  1  0  0  0  0
  9107  1  0  0  0  0
  9108  1  0  0  0  0
  9109  1  0  0  0  0
 10110  1  0  0  0  0
 25111  1  0  0  0  0
 29112  1  0  0  0  0
 30113  1  0  0  0  0
 32114  1  0  0  0  0
 32115  1  0  0  0  0
 33116  1  0  0  0  0
 33117  1  0  0  0  0
 33118  1  0  0  0  0
 34119  1  0  0  0  0
 35120  1  0  0  0  0
 37121  1  0  0  0  0
 38122  1  0  0  0  0
 40123  1  0  0  0  0
 40124  1  0  0  0  0
 41125  1  0  0  0  0
 41126  1  0  0  0  0
 41127  1  0  0  0  0
 42128  1  0  0  0  0
 43129  1  0  0  0  0
 47130  1  0  0  0  0
 51131  1  0  0  0  0
 52132  1  0  0  0  0
 54133  1  0  0  0  0
 54134  1  0  0  0  0
 55135  1  0  0  0  0
 55136  1  0  0  0  0
 55137  1  0  0  0  0
 56138  1  0  0  0  0
 57139  1  0  0  0  0
 59140  1  0  0  0  0
 60141  1  0  0  0  0
 62142  1  0  0  0  0
 62143  1  0  0  0  0
 63144  1  0  0  0  0
 63145  1  0  0  0  0
 63146  1  0  0  0  0
 64147  1  0  0  0  0
 65148  1  0  0  0  0
 70149  1  0  0  0  0
 72150  1  0  0  0  0
 76151  1  0  0  0  0
 76152  1  0  0  0  0
 77153  1  0  0  0  0
 77154  1  0  0  0  0
 77155  1  0  0  0  0
 78156  1  0  0  0  0
 83157  1  0  0  0  0
 84158  1  0  0  0  0
M  END
