
  xtb     02102219193D
 energy: -231.260919406363 gnorm: 0.000306602026 xtb: 6.4.1 (unknown)
129147  0     0  0            999 V2000
   -1.9416   11.5034    3.1382 C   0  0  0  0  0  0  0  0  0  0  0  0
   -1.8113   11.7106    4.4739 C   0  0  0  0  0  0  0  0  0  0  0  0
   -1.4587   13.0639    4.9919 C   0  0  0  0  0  0  0  0  0  0  0  0
   -1.5171   14.1086    4.3845 O   0  0  0  0  0  0  0  0  0  0  0  0
   -0.9710   12.8280    6.3632 C   0  0  0  0  0  0  0  0  0  0  0  0
   -0.3943   13.7121    7.2549 C   0  0  0  0  0  0  0  0  0  0  0  0
    0.0097   13.2325    8.4913 C   0  0  0  0  0  0  0  0  0  0  0  0
   -0.1487   11.8926    8.8391 C   0  0  0  0  0  0  0  0  0  0  0  0
    0.3259   11.3883   10.1645 C   0  0  0  0  0  0  0  0  0  0  0  0
   -0.7378   11.0060    7.9376 C   0  0  0  0  0  0  0  0  0  0  0  0
   -1.1531   11.4740    6.7053 C   0  0  0  0  0  0  0  0  0  0  0  0
   -1.8313   10.8011    5.6008 C   0  0  0  0  0  0  0  0  0  0  0  0
   -2.5949    9.6698    5.7073 C   0  0  0  0  0  0  0  0  0  0  0  0
   -2.6718    8.8844    6.8748 C   0  0  0  0  0  0  0  0  0  0  0  0
   -2.7608    8.2124    7.8012 N   0  0  0  0  0  0  0  0  0  0  0  0
   -3.4751    9.2367    4.6931 C   0  0  0  0  0  0  0  0  0  0  0  0
   -4.2459    8.8916    3.9156 N   0  0  0  0  0  0  0  0  0  0  0  0
   -1.8542   10.2856    2.4171 C   0  0  0  0  0  0  0  0  0  0  0  0
   -1.0079    8.8797    3.0459 S   0  0  0  0  0  0  0  0  0  0  0  0
   -1.3170    7.9974    1.5928 C   0  0  0  0  0  0  0  0  0  0  0  0
   -0.9250    6.6823    1.3267 C   0  0  0  0  0  0  0  0  0  0  0  0
   -0.0393    5.6802    2.4546 S   0  0  0  0  0  0  0  0  0  0  0  0
   -0.0639    4.4013    1.3048 C   0  0  0  0  0  0  0  0  0  0  0  0
    0.3402    3.0637    1.2206 C   0  0  0  0  0  0  0  0  0  0  0  0
    0.8790    2.2068    2.2042 C   0  0  0  0  0  0  0  0  0  0  0  0
    1.0053    0.8121    1.9021 C   0  0  0  0  0  0  0  0  0  0  0  0
    1.4526    0.1092    2.9308 N   0  0  0  0  0  0  0  0  0  0  0  0
    1.6998    1.1195    4.1716 S   0  0  0  0  0  0  0  0  0  0  0  0
    1.2425    2.4927    3.4444 N   0  0  0  0  0  0  0  0  0  0  0  0
    0.7062    0.3727    0.5947 C   0  0  0  0  0  0  0  0  0  0  0  0
    0.8336   -0.8950    0.0086 C   0  0  0  0  0  0  0  0  0  0  0  0
    1.2855   -2.4898    0.4666 S   0  0  0  0  0  0  0  0  0  0  0  0
    1.0599   -3.0104   -1.1894 C   0  0  0  0  0  0  0  0  0  0  0  0
    1.2735   -4.3217   -1.6314 C   0  0  0  0  0  0  0  0  0  0  0  0
    1.0642   -4.6922   -2.9767 C   0  0  0  0  0  0  0  0  0  0  0  0
    0.6182   -3.6788   -3.8617 C   0  0  0  0  0  0  0  0  0  0  0  0
    0.3155   -3.7169   -5.1593 N   0  0  0  0  0  0  0  0  0  0  0  0
   -0.0476   -2.4956   -5.4471 N   0  0  0  0  0  0  0  0  0  0  0  0
   -0.4126   -2.1055   -6.7779 C   0  0  0  0  0  0  0  0  0  0  0  0
    0.7802   -1.4876   -7.5018 C   0  0  0  0  0  0  0  0  0  0  0  0
   -0.0133   -1.6331   -4.4593 N   0  0  0  0  0  0  0  0  0  0  0  0
    0.4116   -2.3428   -3.4085 C   0  0  0  0  0  0  0  0  0  0  0  0
    0.6421   -1.9784   -2.0559 C   0  0  0  0  0  0  0  0  0  0  0  0
    0.5245   -0.7632   -1.3463 C   0  0  0  0  0  0  0  0  0  0  0  0
    0.1910    0.5429   -1.6200 N   0  0  0  0  0  0  0  0  0  0  0  0
    0.2765    1.2592   -0.4317 C   0  0  0  0  0  0  0  0  0  0  0  0
   -0.0278    2.6047   -0.0765 C   0  0  0  0  0  0  0  0  0  0  0  0
   -0.6824    3.6360   -0.7223 N   0  0  0  0  0  0  0  0  0  0  0  0
   -0.7083    4.7263    0.1085 C   0  0  0  0  0  0  0  0  0  0  0  0
   -1.2303    6.0410    0.1069 C   0  0  0  0  0  0  0  0  0  0  0  0
   -1.9802    6.7992   -0.8286 C   0  0  0  0  0  0  0  0  0  0  0  0
   -2.3708    8.1450   -0.5542 C   0  0  0  0  0  0  0  0  0  0  0  0
   -2.0381    8.7731    0.6688 C   0  0  0  0  0  0  0  0  0  0  0  0
   -2.3105   10.0648    1.1377 C   0  0  0  0  0  0  0  0  0  0  0  0
   -3.0523    8.5921   -1.6098 N   0  0  0  0  0  0  0  0  0  0  0  0
   -3.0647    7.5836   -2.4400 N   0  0  0  0  0  0  0  0  0  0  0  0
   -3.7535    7.6447   -3.6965 C   0  0  0  0  0  0  0  0  0  0  0  0
   -5.2183    7.2533   -3.5246 C   0  0  0  0  0  0  0  0  0  0  0  0
   -2.4551    6.4955   -2.0420 N   0  0  0  0  0  0  0  0  0  0  0  0
   -1.4083    3.6287   -1.9686 C   0  0  0  0  0  0  0  0  0  0  0  0
   -0.6049    4.2821   -3.0949 C   0  0  0  0  0  0  0  0  0  0  0  0
    0.4094    1.0294   -2.9663 C   0  0  0  0  0  0  0  0  0  0  0  0
    1.8724    1.4274   -3.1617 C   0  0  0  0  0  0  0  0  0  0  0  0
    1.3464   -6.0357   -3.2024 C   0  0  0  0  0  0  0  0  0  0  0  0
    1.7727   -6.7115   -2.0654 C   0  0  0  0  0  0  0  0  0  0  0  0
    1.8165   -5.6504   -0.6681 S   0  0  0  0  0  0  0  0  0  0  0  0
    2.1238   -8.0738   -2.1069 C   0  0  0  0  0  0  0  0  0  0  0  0
    2.5772   -8.9063   -1.1209 C   0  0  0  0  0  0  0  0  0  0  0  0
    2.7903   -8.5393    0.2874 C   0  0  0  0  0  0  0  0  0  0  0  0
    2.6027   -7.4542    0.8065 O   0  0  0  0  0  0  0  0  0  0  0  0
    3.2795   -9.7531    0.9615 C   0  0  0  0  0  0  0  0  0  0  0  0
    3.6177   -9.8839    2.3062 C   0  0  0  0  0  0  0  0  0  0  0  0
    4.0525  -11.1404    2.6528 C   0  0  0  0  0  0  0  0  0  0  0  0
    4.1389  -12.1914    1.7299 C   0  0  0  0  0  0  0  0  0  0  0  0
    3.8035  -12.0762    0.4019 C   0  0  0  0  0  0  0  0  0  0  0  0
    3.3637  -10.8036    0.0253 C   0  0  0  0  0  0  0  0  0  0  0  0
    2.9338  -10.3042   -1.2798 C   0  0  0  0  0  0  0  0  0  0  0  0
    2.8926  -11.0436   -2.4341 C   0  0  0  0  0  0  0  0  0  0  0  0
    3.2624  -12.4018   -2.5292 C   0  0  0  0  0  0  0  0  0  0  0  0
    3.5447  -13.5030   -2.6920 N   0  0  0  0  0  0  0  0  0  0  0  0
    2.4860  -10.5802   -3.7029 C   0  0  0  0  0  0  0  0  0  0  0  0
    2.1734  -10.2973   -4.7720 N   0  0  0  0  0  0  0  0  0  0  0  0
    4.6604  -13.1602    2.7612 C   0  0  0  0  0  0  0  0  0  0  0  0
    6.1755  -13.4815    2.7464 C   0  0  0  0  0  0  0  0  0  0  0  0
    6.8628  -12.2819    2.1426 C   0  0  0  0  0  0  0  0  0  0  0  0
    6.7819  -11.2868    3.0158 C   0  0  0  0  0  0  0  0  0  0  0  0
    6.0384  -11.7956    4.2260 C   0  0  0  0  0  0  0  0  0  0  0  0
    6.5020  -13.2611    4.2322 C   0  0  0  0  0  0  0  0  0  0  0  0
    4.5649  -11.9890    3.7893 C   0  0  0  0  0  0  0  0  0  0  0  0
   -2.0455   12.3989    2.5329 H   0  0  0  0  0  0  0  0  0  0  0  0
   -0.2689   14.7496    6.9855 H   0  0  0  0  0  0  0  0  0  0  0  0
    0.4595   13.9096    9.2029 H   0  0  0  0  0  0  0  0  0  0  0  0
   -0.3522   10.6320   10.5532 H   0  0  0  0  0  0  0  0  0  0  0  0
    0.4105   12.1975   10.8852 H   0  0  0  0  0  0  0  0  0  0  0  0
    1.3082   10.9281   10.0527 H   0  0  0  0  0  0  0  0  0  0  0  0
   -0.8516    9.9676    8.2074 H   0  0  0  0  0  0  0  0  0  0  0  0
   -1.2292   -1.3837   -6.7045 H   0  0  0  0  0  0  0  0  0  0  0  0
   -0.7523   -3.0046   -7.2944 H   0  0  0  0  0  0  0  0  0  0  0  0
    1.1323   -0.6109   -6.9633 H   0  0  0  0  0  0  0  0  0  0  0  0
    1.5917   -2.2078   -7.5701 H   0  0  0  0  0  0  0  0  0  0  0  0
    0.4903   -1.1910   -8.5056 H   0  0  0  0  0  0  0  0  0  0  0  0
   -2.8540   10.7968    0.5687 H   0  0  0  0  0  0  0  0  0  0  0  0
   -3.6750    8.6694   -4.0648 H   0  0  0  0  0  0  0  0  0  0  0  0
   -3.2493    6.9591   -4.3805 H   0  0  0  0  0  0  0  0  0  0  0  0
   -5.7313    7.3133   -4.4800 H   0  0  0  0  0  0  0  0  0  0  0  0
   -5.7038    7.9260   -2.8221 H   0  0  0  0  0  0  0  0  0  0  0  0
   -5.2954    6.2363   -3.1476 H   0  0  0  0  0  0  0  0  0  0  0  0
   -1.6992    2.6023   -2.1971 H   0  0  0  0  0  0  0  0  0  0  0  0
   -2.3202    4.2131   -1.8233 H   0  0  0  0  0  0  0  0  0  0  0  0
   -1.0771    4.0857   -4.0537 H   0  0  0  0  0  0  0  0  0  0  0  0
   -0.5841    5.3564   -2.9390 H   0  0  0  0  0  0  0  0  0  0  0  0
    0.4197    3.9211   -3.1196 H   0  0  0  0  0  0  0  0  0  0  0  0
    0.1548    0.2126   -3.6453 H   0  0  0  0  0  0  0  0  0  0  0  0
   -0.2351    1.8702   -3.1883 H   0  0  0  0  0  0  0  0  0  0  0  0
    2.1576    2.2075   -2.4575 H   0  0  0  0  0  0  0  0  0  0  0  0
    2.5217    0.5698   -3.0013 H   0  0  0  0  0  0  0  0  0  0  0  0
    2.0256    1.7936   -4.1735 H   0  0  0  0  0  0  0  0  0  0  0  0
    1.2495   -6.5083   -4.1635 H   0  0  0  0  0  0  0  0  0  0  0  0
    2.0119   -8.5016   -3.0960 H   0  0  0  0  0  0  0  0  0  0  0  0
    3.5324   -9.0474    2.9821 H   0  0  0  0  0  0  0  0  0  0  0  0
    3.8742  -12.8970   -0.2918 H   0  0  0  0  0  0  0  0  0  0  0  0
    4.0506  -14.0443    2.9365 H   0  0  0  0  0  0  0  0  0  0  0  0
    6.4278  -14.4466    2.3153 H   0  0  0  0  0  0  0  0  0  0  0  0
    7.2736  -12.2641    1.1501 H   0  0  0  0  0  0  0  0  0  0  0  0
    7.1114  -10.2710    2.8986 H   0  0  0  0  0  0  0  0  0  0  0  0
    6.1664  -11.2259    5.1427 H   0  0  0  0  0  0  0  0  0  0  0  0
    7.5639  -13.3659    4.4500 H   0  0  0  0  0  0  0  0  0  0  0  0
    5.9244  -13.8963    4.9023 H   0  0  0  0  0  0  0  0  0  0  0  0
    3.8931  -12.1083    4.6372 H   0  0  0  0  0  0  0  0  0  0  0  0
  1  2  2  0  0  0  0
  2  3  1  0  0  0  0
  3  4  2  0  0  0  0
  3  5  1  0  0  0  0
  5  6  2  0  0  0  0
  6  7  1  0  0  0  0
  7  8  2  0  0  0  0
  8  9  1  0  0  0  0
  8 10  1  0  0  0  0
 10 11  2  0  0  0  0
 11 12  1  0  0  0  0
 12 13  2  0  0  0  0
 13 14  1  0  0  0  0
 14 15  3  0  0  0  0
 13 16  1  0  0  0  0
 16 17  3  0  0  0  0
  1 18  1  0  0  0  0
 18 19  1  0  0  0  0
 19 20  1  0  0  0  0
 20 21  1  0  0  0  0
 21 22  1  0  0  0  0
 22 23  1  0  0  0  0
 23 24  1  0  0  0  0
 24 25  1  0  0  0  0
 25 26  1  0  0  0  0
 26 27  2  0  0  0  0
 27 28  1  0  0  0  0
 28 29  1  0  0  0  0
 26 30  1  0  0  0  0
 30 31  1  0  0  0  0
 31 32  1  0  0  0  0
 32 33  1  0  0  0  0
 33 34  1  0  0  0  0
 34 35  2  0  0  0  0
 35 36  1  0  0  0  0
 36 37  2  0  0  0  0
 37 38  1  0  0  0  0
 38 39  1  0  0  0  0
 39 40  1  0  0  0  0
 38 41  1  0  0  0  0
 41 42  2  0  0  0  0
 42 43  1  0  0  0  0
 43 44  1  0  0  0  0
 44 45  1  0  0  0  0
 45 46  1  0  0  0  0
 46 47  1  0  0  0  0
 47 48  1  0  0  0  0
 48 49  1  0  0  0  0
 49 50  1  0  0  0  0
 50 51  1  0  0  0  0
 51 52  1  0  0  0  0
 52 53  1  0  0  0  0
 53 54  1  0  0  0  0
 52 55  2  0  0  0  0
 55 56  1  0  0  0  0
 56 57  1  0  0  0  0
 57 58  1  0  0  0  0
 56 59  1  0  0  0  0
 48 60  1  0  0  0  0
 60 61  1  0  0  0  0
 45 62  1  0  0  0  0
 62 63  1  0  0  0  0
 35 64  1  0  0  0  0
 64 65  2  0  0  0  0
 65 66  1  0  0  0  0
 65 67  1  0  0  0  0
 67 68  2  0  0  0  0
 68 69  1  0  0  0  0
 69 70  2  0  0  0  0
 69 71  1  0  0  0  0
 71 72  2  0  0  0  0
 72 73  1  0  0  0  0
 73 74  2  0  0  0  0
 74 75  1  0  0  0  0
 75 76  2  0  0  0  0
 76 77  1  0  0  0  0
 77 78  2  0  0  0  0
 78 79  1  0  0  0  0
 79 80  3  0  0  0  0
 78 81  1  0  0  0  0
 81 82  3  0  0  0  0
 74 83  1  0  0  0  0
 83 84  1  0  0  0  0
 84 85  1  0  0  0  0
 85 86  2  0  0  0  0
 86 87  1  0  0  0  0
 87 88  1  0  0  0  0
 87 89  1  0  0  0  0
 12  2  1  0  0  0  0
 54 18  2  0  0  0  0
 77 68  1  0  0  0  0
 89 83  1  0  0  0  0
 11  5  1  0  0  0  0
 53 20  2  0  0  0  0
 76 71  1  0  0  0  0
 88 84  1  0  0  0  0
 50 21  2  0  0  0  0
 59 51  2  0  0  0  0
 89 73  1  0  0  0  0
 49 23  2  0  0  0  0
 47 24  2  0  0  0  0
 29 25  2  0  0  0  0
 46 30  2  0  0  0  0
 44 31  2  0  0  0  0
 43 33  2  0  0  0  0
 66 34  1  0  0  0  0
 42 36  1  0  0  0  0
  1 90  1  0  0  0  0
  6 91  1  0  0  0  0
  7 92  1  0  0  0  0
  9 93  1  0  0  0  0
  9 94  1  0  0  0  0
  9 95  1  0  0  0  0
 10 96  1  0  0  0  0
 39 97  1  0  0  0  0
 39 98  1  0  0  0  0
 40 99  1  0  0  0  0
 40100  1  0  0  0  0
 40101  1  0  0  0  0
 54102  1  0  0  0  0
 57103  1  0  0  0  0
 57104  1  0  0  0  0
 58105  1  0  0  0  0
 58106  1  0  0  0  0
 58107  1  0  0  0  0
 60108  1  0  0  0  0
 60109  1  0  0  0  0
 61110  1  0  0  0  0
 61111  1  0  0  0  0
 61112  1  0  0  0  0
 62113  1  0  0  0  0
 62114  1  0  0  0  0
 63115  1  0  0  0  0
 63116  1  0  0  0  0
 63117  1  0  0  0  0
 64118  1  0  0  0  0
 67119  1  0  0  0  0
 72120  1  0  0  0  0
 75121  1  0  0  0  0
 83122  1  0  0  0  0
 84123  1  0  0  0  0
 85124  1  0  0  0  0
 86125  1  0  0  0  0
 87126  1  0  0  0  0
 88127  1  0  0  0  0
 88128  1  0  0  0  0
 89129  1  0  0  0  0
M  END
