
  xtb     02102218413D
 energy: -232.912821578632 gnorm: 0.000980288594 xtb: 6.4.1 (unknown)
149163  0     0  0            999 V2000
   -7.2505    1.8058    2.6116 C   0  0  0  0  0  0  0  0  0  0  0  0
   -7.6357    2.2144    3.8646 C   0  0  0  0  0  0  0  0  0  0  0  0
   -6.7429    2.4193    5.0117 C   0  0  0  0  0  0  0  0  0  0  0  0
   -5.5297    2.2990    5.0374 O   0  0  0  0  0  0  0  0  0  0  0  0
   -7.6081    2.8017    6.1385 C   0  0  0  0  0  0  0  0  0  0  0  0
   -7.2649    3.0934    7.4443 C   0  0  0  0  0  0  0  0  0  0  0  0
   -8.2769    3.4232    8.3314 C   0  0  0  0  0  0  0  0  0  0  0  0
   -9.6100    3.4605    7.9272 C   0  0  0  0  0  0  0  0  0  0  0  0
  -10.6820    3.7962    8.9150 C   0  0  0  0  0  0  0  0  0  0  0  0
   -9.9461    3.1661    6.6065 C   0  0  0  0  0  0  0  0  0  0  0  0
   -8.9456    2.8382    5.7082 C   0  0  0  0  0  0  0  0  0  0  0  0
   -8.9928    2.4927    4.2865 C   0  0  0  0  0  0  0  0  0  0  0  0
  -10.1304    2.4614    3.5203 C   0  0  0  0  0  0  0  0  0  0  0  0
  -11.4221    2.7522    4.0063 C   0  0  0  0  0  0  0  0  0  0  0  0
  -12.5012    2.9772    4.3285 N   0  0  0  0  0  0  0  0  0  0  0  0
  -10.1949    2.1484    2.1470 C   0  0  0  0  0  0  0  0  0  0  0  0
  -10.3395    1.9065    1.0324 N   0  0  0  0  0  0  0  0  0  0  0  0
   -5.9845    1.4916    2.1042 C   0  0  0  0  0  0  0  0  0  0  0  0
   -4.4551    1.5709    2.9684 S   0  0  0  0  0  0  0  0  0  0  0  0
   -3.6485    1.0227    1.5657 C   0  0  0  0  0  0  0  0  0  0  0  0
   -2.3235    0.7492    1.1598 C   0  0  0  0  0  0  0  0  0  0  0  0
   -2.2924    0.3320   -0.1606 C   0  0  0  0  0  0  0  0  0  0  0  0
   -3.7081    0.2738   -0.7180 C   0  0  0  0  0  0  0  0  0  0  0  0
   -4.4989    0.7754    0.4801 C   0  0  0  0  0  0  0  0  0  0  0  0
   -5.8116    1.0501    0.7823 C   0  0  0  0  0  0  0  0  0  0  0  0
   -3.8784    1.2580   -1.8666 C   0  0  0  0  0  0  0  0  0  0  0  0
   -3.5301    2.5856   -1.6393 C   0  0  0  0  0  0  0  0  0  0  0  0
   -3.6598    3.5321   -2.6362 C   0  0  0  0  0  0  0  0  0  0  0  0
   -4.1471    3.1835   -3.8896 C   0  0  0  0  0  0  0  0  0  0  0  0
   -4.2320    4.1969   -4.9933 C   0  0  0  0  0  0  0  0  0  0  0  0
   -2.9311    4.2102   -5.7992 C   0  0  0  0  0  0  0  0  0  0  0  0
   -4.4974    1.8599   -4.1114 C   0  0  0  0  0  0  0  0  0  0  0  0
   -4.3654    0.9067   -3.1171 C   0  0  0  0  0  0  0  0  0  0  0  0
   -4.1747   -1.1418   -1.0117 C   0  0  0  0  0  0  0  0  0  0  0  0
   -3.3467   -2.2428   -0.8402 C   0  0  0  0  0  0  0  0  0  0  0  0
   -3.8154   -3.5225   -1.0790 C   0  0  0  0  0  0  0  0  0  0  0  0
   -5.1237   -3.7439   -1.4827 C   0  0  0  0  0  0  0  0  0  0  0  0
   -5.6160   -5.1298   -1.7825 C   0  0  0  0  0  0  0  0  0  0  0  0
   -5.3900   -5.4702   -3.2571 C   0  0  0  0  0  0  0  0  0  0  0  0
   -5.9550   -2.6422   -1.6407 C   0  0  0  0  0  0  0  0  0  0  0  0
   -5.4917   -1.3629   -1.4036 C   0  0  0  0  0  0  0  0  0  0  0  0
   -0.9731    0.0499   -0.6053 C   0  0  0  0  0  0  0  0  0  0  0  0
   -0.4819   -0.3964   -1.8435 C   0  0  0  0  0  0  0  0  0  0  0  0
   -1.3263   -0.5361   -3.0722 C   0  0  0  0  0  0  0  0  0  0  0  0
   -1.1717    0.6985   -3.9632 C   0  0  0  0  0  0  0  0  0  0  0  0
    0.8688   -0.6803   -1.9167 C   0  0  0  0  0  0  0  0  0  0  0  0
    1.6091   -1.3185   -3.3756 S   0  0  0  0  0  0  0  0  0  0  0  0
    3.1119   -1.4259   -2.5429 C   0  0  0  0  0  0  0  0  0  0  0  0
    4.4110   -1.8644   -2.8851 C   0  0  0  0  0  0  0  0  0  0  0  0
    5.2446   -1.7137   -1.7744 C   0  0  0  0  0  0  0  0  0  0  0  0
    4.4569   -1.1664   -0.5958 C   0  0  0  0  0  0  0  0  0  0  0  0
    4.4760   -2.2222    0.4973 C   0  0  0  0  0  0  0  0  0  0  0  0
    3.3224   -2.8699    0.9182 C   0  0  0  0  0  0  0  0  0  0  0  0
    3.3784   -3.8457    1.8976 C   0  0  0  0  0  0  0  0  0  0  0  0
    4.5838   -4.2095    2.4790 C   0  0  0  0  0  0  0  0  0  0  0  0
    4.6468   -5.2984    3.5104 C   0  0  0  0  0  0  0  0  0  0  0  0
    4.8767   -6.6544    2.8401 C   0  0  0  0  0  0  0  0  0  0  0  0
    5.7394   -3.5752    2.0409 C   0  0  0  0  0  0  0  0  0  0  0  0
    5.6900   -2.6003    1.0639 C   0  0  0  0  0  0  0  0  0  0  0  0
    5.0492    0.1789   -0.1977 C   0  0  0  0  0  0  0  0  0  0  0  0
    5.1045    1.1755   -1.1667 C   0  0  0  0  0  0  0  0  0  0  0  0
    5.6382    2.4155   -0.8771 C   0  0  0  0  0  0  0  0  0  0  0  0
    6.1382    2.6968    0.3881 C   0  0  0  0  0  0  0  0  0  0  0  0
    6.6710    4.0602    0.7198 C   0  0  0  0  0  0  0  0  0  0  0  0
    5.5442    4.9608    1.2304 C   0  0  0  0  0  0  0  0  0  0  0  0
    6.0809    1.7007    1.3516 C   0  0  0  0  0  0  0  0  0  0  0  0
    5.5442    0.4574    1.0674 C   0  0  0  0  0  0  0  0  0  0  0  0
    3.0851   -0.9874   -1.2303 C   0  0  0  0  0  0  0  0  0  0  0  0
    1.7969   -0.5289   -0.8431 C   0  0  0  0  0  0  0  0  0  0  0  0
    1.3203   -0.0060    0.3701 C   0  0  0  0  0  0  0  0  0  0  0  0
   -0.0360    0.2498    0.4532 C   0  0  0  0  0  0  0  0  0  0  0  0
   -0.7869    0.8265    1.9312 S   0  0  0  0  0  0  0  0  0  0  0  0
    2.1990    0.3187    1.5384 C   0  0  0  0  0  0  0  0  0  0  0  0
    2.5370    1.8112    1.5492 C   0  0  0  0  0  0  0  0  0  0  0  0
    6.5502   -2.0931   -2.0259 C   0  0  0  0  0  0  0  0  0  0  0  0
    6.7281   -2.5507   -3.3275 C   0  0  0  0  0  0  0  0  0  0  0  0
    5.2239   -2.4860   -4.2502 S   0  0  0  0  0  0  0  0  0  0  0  0
    7.8688   -3.0453   -3.9825 C   0  0  0  0  0  0  0  0  0  0  0  0
    9.1425   -3.2562   -3.5364 C   0  0  0  0  0  0  0  0  0  0  0  0
   10.1360   -3.8260   -4.4749 C   0  0  0  0  0  0  0  0  0  0  0  0
    9.9495   -4.1156   -5.6373 O   0  0  0  0  0  0  0  0  0  0  0  0
   11.3929   -3.9724   -3.7046 C   0  0  0  0  0  0  0  0  0  0  0  0
   12.6218   -4.4657   -4.0996 C   0  0  0  0  0  0  0  0  0  0  0  0
   13.6471   -4.4951   -3.1627 C   0  0  0  0  0  0  0  0  0  0  0  0
   13.4442   -4.0411   -1.8668 C   0  0  0  0  0  0  0  0  0  0  0  0
   12.2098   -3.5451   -1.4680 C   0  0  0  0  0  0  0  0  0  0  0  0
   11.1876   -3.5162   -2.3980 C   0  0  0  0  0  0  0  0  0  0  0  0
    9.7882   -3.0471   -2.2329 C   0  0  0  0  0  0  0  0  0  0  0  0
    9.3217   -2.5913   -1.2059 O   0  0  0  0  0  0  0  0  0  0  0  0
   -8.0384    1.6859    1.8778 H   0  0  0  0  0  0  0  0  0  0  0  0
   -6.2312    3.0617    7.7526 H   0  0  0  0  0  0  0  0  0  0  0  0
   -8.0338    3.6555    9.3581 H   0  0  0  0  0  0  0  0  0  0  0  0
  -10.8920    2.9285    9.5411 H   0  0  0  0  0  0  0  0  0  0  0  0
  -10.3664    4.6077    9.5672 H   0  0  0  0  0  0  0  0  0  0  0  0
  -11.6015    4.0811    8.4108 H   0  0  0  0  0  0  0  0  0  0  0  0
  -10.9810    3.1980    6.3066 H   0  0  0  0  0  0  0  0  0  0  0  0
   -6.6481    0.9596    0.1133 H   0  0  0  0  0  0  0  0  0  0  0  0
   -3.1509    2.8800   -0.6709 H   0  0  0  0  0  0  0  0  0  0  0  0
   -3.3802    4.5570   -2.4377 H   0  0  0  0  0  0  0  0  0  0  0  0
   -4.4066    5.1896   -4.5739 H   0  0  0  0  0  0  0  0  0  0  0  0
   -5.0642    3.9543   -5.6570 H   0  0  0  0  0  0  0  0  0  0  0  0
   -2.0897    4.4567   -5.1554 H   0  0  0  0  0  0  0  0  0  0  0  0
   -2.9852    4.9460   -6.5979 H   0  0  0  0  0  0  0  0  0  0  0  0
   -2.7478    3.2322   -6.2386 H   0  0  0  0  0  0  0  0  0  0  0  0
   -4.8795    1.5647   -5.0782 H   0  0  0  0  0  0  0  0  0  0  0  0
   -4.6403   -0.1147   -3.3337 H   0  0  0  0  0  0  0  0  0  0  0  0
   -2.3250   -2.1134   -0.5180 H   0  0  0  0  0  0  0  0  0  0  0  0
   -3.1497   -4.3625   -0.9412 H   0  0  0  0  0  0  0  0  0  0  0  0
   -5.0847   -5.8533   -1.1608 H   0  0  0  0  0  0  0  0  0  0  0  0
   -6.6816   -5.2011   -1.5560 H   0  0  0  0  0  0  0  0  0  0  0  0
   -4.3317   -5.4091   -3.5015 H   0  0  0  0  0  0  0  0  0  0  0  0
   -5.7389   -6.4774   -3.4725 H   0  0  0  0  0  0  0  0  0  0  0  0
   -5.9291   -4.7724   -3.8938 H   0  0  0  0  0  0  0  0  0  0  0  0
   -6.9813   -2.7870   -1.9465 H   0  0  0  0  0  0  0  0  0  0  0  0
   -6.1624   -0.5270   -1.5292 H   0  0  0  0  0  0  0  0  0  0  0  0
   -1.0028   -1.4198   -3.6293 H   0  0  0  0  0  0  0  0  0  0  0  0
   -2.3705   -0.6670   -2.8044 H   0  0  0  0  0  0  0  0  0  0  0  0
   -1.4740    1.5945   -3.4267 H   0  0  0  0  0  0  0  0  0  0  0  0
   -0.1375    0.8140   -4.2789 H   0  0  0  0  0  0  0  0  0  0  0  0
   -1.7950    0.6003   -4.8477 H   0  0  0  0  0  0  0  0  0  0  0  0
    2.3651   -2.6188    0.4880 H   0  0  0  0  0  0  0  0  0  0  0  0
    2.4651   -4.3300    2.2128 H   0  0  0  0  0  0  0  0  0  0  0  0
    5.4623   -5.1000    4.2089 H   0  0  0  0  0  0  0  0  0  0  0  0
    3.7124   -5.3290    4.0744 H   0  0  0  0  0  0  0  0  0  0  0  0
    4.9229   -7.4450    3.5855 H   0  0  0  0  0  0  0  0  0  0  0  0
    5.8105   -6.6469    2.2823 H   0  0  0  0  0  0  0  0  0  0  0  0
    4.0675   -6.8758    2.1478 H   0  0  0  0  0  0  0  0  0  0  0  0
    6.6936   -3.8475    2.4685 H   0  0  0  0  0  0  0  0  0  0  0  0
    6.6061   -2.1299    0.7435 H   0  0  0  0  0  0  0  0  0  0  0  0
    4.7240    0.9786   -2.1592 H   0  0  0  0  0  0  0  0  0  0  0  0
    5.6700    3.1748   -1.6455 H   0  0  0  0  0  0  0  0  0  0  0  0
    7.4434    3.9796    1.4871 H   0  0  0  0  0  0  0  0  0  0  0  0
    7.1174    4.5104   -0.1691 H   0  0  0  0  0  0  0  0  0  0  0  0
    5.0940    4.5342    2.1239 H   0  0  0  0  0  0  0  0  0  0  0  0
    4.7688    5.0627    0.4744 H   0  0  0  0  0  0  0  0  0  0  0  0
    5.9269    5.9496    1.4717 H   0  0  0  0  0  0  0  0  0  0  0  0
    6.4630    1.8962    2.3434 H   0  0  0  0  0  0  0  0  0  0  0  0
    5.5124   -0.2886    1.8471 H   0  0  0  0  0  0  0  0  0  0  0  0
    3.1152   -0.2632    1.5007 H   0  0  0  0  0  0  0  0  0  0  0  0
    1.6713    0.0666    2.4623 H   0  0  0  0  0  0  0  0  0  0  0  0
    1.6316    2.4071    1.6362 H   0  0  0  0  0  0  0  0  0  0  0  0
    3.1848    2.0397    2.3911 H   0  0  0  0  0  0  0  0  0  0  0  0
    3.0520    2.0910    0.6334 H   0  0  0  0  0  0  0  0  0  0  0  0
    7.3723   -2.0520   -1.3359 H   0  0  0  0  0  0  0  0  0  0  0  0
    7.7179   -3.3241   -5.0232 H   0  0  0  0  0  0  0  0  0  0  0  0
   12.7703   -4.8165   -5.1094 H   0  0  0  0  0  0  0  0  0  0  0  0
   14.6172   -4.8765   -3.4457 H   0  0  0  0  0  0  0  0  0  0  0  0
   14.2594   -4.0748   -1.1589 H   0  0  0  0  0  0  0  0  0  0  0  0
   12.0425   -3.1904   -0.4624 H   0  0  0  0  0  0  0  0  0  0  0  0
  1  2  2  0  0  0  0
  2  3  1  0  0  0  0
  3  4  2  0  0  0  0
  3  5  1  0  0  0  0
  5  6  2  0  0  0  0
  6  7  1  0  0  0  0
  7  8  2  0  0  0  0
  8  9  1  0  0  0  0
  8 10  1  0  0  0  0
 10 11  2  0  0  0  0
 11 12  1  0  0  0  0
 12 13  2  0  0  0  0
 13 14  1  0  0  0  0
 14 15  3  0  0  0  0
 13 16  1  0  0  0  0
 16 17  3  0  0  0  0
  1 18  1  0  0  0  0
 18 19  1  0  0  0  0
 19 20  1  0  0  0  0
 20 21  1  0  0  0  0
 21 22  2  0  0  0  0
 22 23  1  0  0  0  0
 23 24  1  0  0  0  0
 24 25  1  0  0  0  0
 23 26  1  0  0  0  0
 26 27  2  0  0  0  0
 27 28  1  0  0  0  0
 28 29  2  0  0  0  0
 29 30  1  0  0  0  0
 30 31  1  0  0  0  0
 29 32  1  0  0  0  0
 32 33  2  0  0  0  0
 23 34  1  0  0  0  0
 34 35  2  0  0  0  0
 35 36  1  0  0  0  0
 36 37  2  0  0  0  0
 37 38  1  0  0  0  0
 38 39  1  0  0  0  0
 37 40  1  0  0  0  0
 40 41  2  0  0  0  0
 22 42  1  0  0  0  0
 42 43  2  0  0  0  0
 43 44  1  0  0  0  0
 44 45  1  0  0  0  0
 43 46  1  0  0  0  0
 46 47  1  0  0  0  0
 47 48  1  0  0  0  0
 48 49  1  0  0  0  0
 49 50  2  0  0  0  0
 50 51  1  0  0  0  0
 51 52  1  0  0  0  0
 52 53  2  0  0  0  0
 53 54  1  0  0  0  0
 54 55  2  0  0  0  0
 55 56  1  0  0  0  0
 56 57  1  0  0  0  0
 55 58  1  0  0  0  0
 58 59  2  0  0  0  0
 51 60  1  0  0  0  0
 60 61  2  0  0  0  0
 61 62  1  0  0  0  0
 62 63  2  0  0  0  0
 63 64  1  0  0  0  0
 64 65  1  0  0  0  0
 63 66  1  0  0  0  0
 66 67  2  0  0  0  0
 51 68  1  0  0  0  0
 68 69  1  0  0  0  0
 69 70  1  0  0  0  0
 70 71  2  0  0  0  0
 71 72  1  0  0  0  0
 70 73  1  0  0  0  0
 73 74  1  0  0  0  0
 50 75  1  0  0  0  0
 75 76  2  0  0  0  0
 76 77  1  0  0  0  0
 76 78  1  0  0  0  0
 78 79  2  0  0  0  0
 79 80  1  0  0  0  0
 80 81  2  0  0  0  0
 80 82  1  0  0  0  0
 82 83  2  0  0  0  0
 83 84  1  0  0  0  0
 84 85  2  0  0  0  0
 85 86  1  0  0  0  0
 86 87  2  0  0  0  0
 87 88  1  0  0  0  0
 88 89  2  0  0  0  0
 12  2  1  0  0  0  0
 25 18  2  0  0  0  0
 33 26  1  0  0  0  0
 41 34  1  0  0  0  0
 71 42  1  0  0  0  0
 88 79  1  0  0  0  0
 11  5  1  0  0  0  0
 24 20  2  0  0  0  0
 69 46  2  0  0  0  0
 87 82  1  0  0  0  0
 72 21  1  0  0  0  0
 68 48  2  0  0  0  0
 77 49  1  0  0  0  0
 59 52  1  0  0  0  0
 67 60  1  0  0  0  0
  1 90  1  0  0  0  0
  6 91  1  0  0  0  0
  7 92  1  0  0  0  0
  9 93  1  0  0  0  0
  9 94  1  0  0  0  0
  9 95  1  0  0  0  0
 10 96  1  0  0  0  0
 25 97  1  0  0  0  0
 27 98  1  0  0  0  0
 28 99  1  0  0  0  0
 30100  1  0  0  0  0
 30101  1  0  0  0  0
 31102  1  0  0  0  0
 31103  1  0  0  0  0
 31104  1  0  0  0  0
 32105  1  0  0  0  0
 33106  1  0  0  0  0
 35107  1  0  0  0  0
 36108  1  0  0  0  0
 38109  1  0  0  0  0
 38110  1  0  0  0  0
 39111  1  0  0  0  0
 39112  1  0  0  0  0
 39113  1  0  0  0  0
 40114  1  0  0  0  0
 41115  1  0  0  0  0
 44116  1  0  0  0  0
 44117  1  0  0  0  0
 45118  1  0  0  0  0
 45119  1  0  0  0  0
 45120  1  0  0  0  0
 53121  1  0  0  0  0
 54122  1  0  0  0  0
 56123  1  0  0  0  0
 56124  1  0  0  0  0
 57125  1  0  0  0  0
 57126  1  0  0  0  0
 57127  1  0  0  0  0
 58128  1  0  0  0  0
 59129  1  0  0  0  0
 61130  1  0  0  0  0
 62131  1  0  0  0  0
 64132  1  0  0  0  0
 64133  1  0  0  0  0
 65134  1  0  0  0  0
 65135  1  0  0  0  0
 65136  1  0  0  0  0
 66137  1  0  0  0  0
 67138  1  0  0  0  0
 73139  1  0  0  0  0
 73140  1  0  0  0  0
 74141  1  0  0  0  0
 74142  1  0  0  0  0
 74143  1  0  0  0  0
 75144  1  0  0  0  0
 78145  1  0  0  0  0
 83146  1  0  0  0  0
 84147  1  0  0  0  0
 85148  1  0  0  0  0
 86149  1  0  0  0  0
M  END
