
  xtb     02012218353D
 energy: -276.335711165259 gnorm: 0.000447779406 xtb: 6.4.1 (unknown)
172189  0     0  0            999 V2000
   -6.4543    2.7861    6.7580 C   0  0  0  0  0  0  0  0  0  0  0  0
   -7.7366    3.0919    7.1403 C   0  0  0  0  0  0  0  0  0  0  0  0
   -9.0160    2.6629    6.5190 C   0  0  0  0  0  0  0  0  0  0  0  0
   -9.1886    1.9959    5.5193 O   0  0  0  0  0  0  0  0  0  0  0  0
  -10.0670    3.2127    7.3866 C   0  0  0  0  0  0  0  0  0  0  0  0
  -11.4225    3.2044    7.4307 C   0  0  0  0  0  0  0  0  0  0  0  0
  -11.9930    4.0973    8.7926 S   0  0  0  0  0  0  0  0  0  0  0  0
  -10.3915    4.4846    9.3041 C   0  0  0  0  0  0  0  0  0  0  0  0
   -9.4698    3.9464    8.4596 C   0  0  0  0  0  0  0  0  0  0  0  0
   -8.0283    3.9013    8.3145 C   0  0  0  0  0  0  0  0  0  0  0  0
   -7.1597    4.5562    9.1515 C   0  0  0  0  0  0  0  0  0  0  0  0
   -5.7565    4.6101    9.0503 C   0  0  0  0  0  0  0  0  0  0  0  0
   -4.6125    4.7198    9.0381 N   0  0  0  0  0  0  0  0  0  0  0  0
   -7.6340    5.3009   10.2512 C   0  0  0  0  0  0  0  0  0  0  0  0
   -7.9967    5.9105   11.1537 N   0  0  0  0  0  0  0  0  0  0  0  0
   -5.9381    2.0744    5.6640 C   0  0  0  0  0  0  0  0  0  0  0  0
   -6.5306    1.4735    4.5602 C   0  0  0  0  0  0  0  0  0  0  0  0
   -5.5925    0.9297    3.7007 C   0  0  0  0  0  0  0  0  0  0  0  0
   -5.7098    0.1039    2.1676 S   0  0  0  0  0  0  0  0  0  0  0  0
   -3.9829    0.0068    2.1111 C   0  0  0  0  0  0  0  0  0  0  0  0
   -2.9974   -0.4435    1.2057 C   0  0  0  0  0  0  0  0  0  0  0  0
   -2.9903   -1.1879   -0.3493 S   0  0  0  0  0  0  0  0  0  0  0  0
   -1.2677   -1.0899   -0.3417 C   0  0  0  0  0  0  0  0  0  0  0  0
   -0.2536   -1.4110   -1.2899 C   0  0  0  0  0  0  0  0  0  0  0  0
   -0.3352   -1.9838   -2.5572 C   0  0  0  0  0  0  0  0  0  0  0  0
    0.8361   -2.1063   -3.2662 C   0  0  0  0  0  0  0  0  0  0  0  0
    1.0317   -2.6640   -4.6661 C   0  0  0  0  0  0  0  0  0  0  0  0
    0.8574   -4.1714   -4.7456 C   0  0  0  0  0  0  0  0  0  0  0  0
    0.8054   -4.7805   -5.9939 C   0  0  0  0  0  0  0  0  0  0  0  0
    0.7032   -6.1535   -6.1013 C   0  0  0  0  0  0  0  0  0  0  0  0
    0.6599   -6.9557   -4.9676 C   0  0  0  0  0  0  0  0  0  0  0  0
    0.5046   -8.4444   -5.0841 C   0  0  0  0  0  0  0  0  0  0  0  0
   -0.9763   -8.8292   -5.0803 C   0  0  0  0  0  0  0  0  0  0  0  0
    0.7198   -6.3424   -3.7241 C   0  0  0  0  0  0  0  0  0  0  0  0
    0.8236   -4.9674   -3.6103 C   0  0  0  0  0  0  0  0  0  0  0  0
    0.1029   -1.9358   -5.6172 C   0  0  0  0  0  0  0  0  0  0  0  0
    0.5008   -0.7702   -6.2562 C   0  0  0  0  0  0  0  0  0  0  0  0
   -0.3716   -0.0945   -7.0899 C   0  0  0  0  0  0  0  0  0  0  0  0
   -1.6625   -0.5591   -7.3007 C   0  0  0  0  0  0  0  0  0  0  0  0
   -2.6217    0.1950   -8.1758 C   0  0  0  0  0  0  0  0  0  0  0  0
   -3.4441    1.1811   -7.3438 C   0  0  0  0  0  0  0  0  0  0  0  0
   -2.0618   -1.7164   -6.6443 C   0  0  0  0  0  0  0  0  0  0  0  0
   -1.1935   -2.3964   -5.8122 C   0  0  0  0  0  0  0  0  0  0  0  0
    2.4962   -2.3762   -4.8831 C   0  0  0  0  0  0  0  0  0  0  0  0
    3.0604   -1.8181   -3.7312 C   0  0  0  0  0  0  0  0  0  0  0  0
    2.0604   -1.6403   -2.7295 C   0  0  0  0  0  0  0  0  0  0  0  0
    2.1434   -1.0938   -1.4495 C   0  0  0  0  0  0  0  0  0  0  0  0
    0.9766   -0.9910   -0.7322 C   0  0  0  0  0  0  0  0  0  0  0  0
    0.7756   -0.4257    0.6705 C   0  0  0  0  0  0  0  0  0  0  0  0
    1.2063    1.0297    0.7389 C   0  0  0  0  0  0  0  0  0  0  0  0
    1.7841    1.5786    1.8740 C   0  0  0  0  0  0  0  0  0  0  0  0
    2.1479    2.9116    1.9073 C   0  0  0  0  0  0  0  0  0  0  0  0
    1.9413    3.7356    0.8107 C   0  0  0  0  0  0  0  0  0  0  0  0
    2.3952    5.1660    0.8273 C   0  0  0  0  0  0  0  0  0  0  0  0
    3.8300    5.2756    0.3070 C   0  0  0  0  0  0  0  0  0  0  0  0
    1.3501    3.1880   -0.3201 C   0  0  0  0  0  0  0  0  0  0  0  0
    0.9810    1.8573   -0.3552 C   0  0  0  0  0  0  0  0  0  0  0  0
    1.5266   -1.3413    1.6183 C   0  0  0  0  0  0  0  0  0  0  0  0
    2.9063   -1.2251    1.7525 C   0  0  0  0  0  0  0  0  0  0  0  0
    3.6113   -2.1005    2.5533 C   0  0  0  0  0  0  0  0  0  0  0  0
    2.9661   -3.1256    3.2351 C   0  0  0  0  0  0  0  0  0  0  0  0
    3.7477   -4.0487    4.1253 C   0  0  0  0  0  0  0  0  0  0  0  0
    4.0950   -3.3629    5.4478 C   0  0  0  0  0  0  0  0  0  0  0  0
    1.5928   -3.2471    3.0869 C   0  0  0  0  0  0  0  0  0  0  0  0
    0.8817   -2.3714    2.2861 C   0  0  0  0  0  0  0  0  0  0  0  0
   -0.7274   -0.5178    0.8087 C   0  0  0  0  0  0  0  0  0  0  0  0
   -1.7215   -0.1499    1.7107 C   0  0  0  0  0  0  0  0  0  0  0  0
   -1.8397    0.4750    3.0863 C   0  0  0  0  0  0  0  0  0  0  0  0
   -1.2568   -0.4712    4.1246 C   0  0  0  0  0  0  0  0  0  0  0  0
    0.0365   -0.3264    4.6018 C   0  0  0  0  0  0  0  0  0  0  0  0
    0.5327   -1.1826    5.5688 C   0  0  0  0  0  0  0  0  0  0  0  0
   -0.2469   -2.2062    6.0874 C   0  0  0  0  0  0  0  0  0  0  0  0
    0.2550   -3.1077    7.1802 C   0  0  0  0  0  0  0  0  0  0  0  0
    0.4741   -4.5399    6.6924 C   0  0  0  0  0  0  0  0  0  0  0  0
   -1.5282   -2.3736    5.5763 C   0  0  0  0  0  0  0  0  0  0  0  0
   -2.0241   -1.5264    4.6057 C   0  0  0  0  0  0  0  0  0  0  0  0
   -1.3469    1.9060    3.1755 C   0  0  0  0  0  0  0  0  0  0  0  0
   -1.3000    2.7044    2.0415 C   0  0  0  0  0  0  0  0  0  0  0  0
   -0.9749    4.0440    2.1400 C   0  0  0  0  0  0  0  0  0  0  0  0
   -0.6939    4.6213    3.3701 C   0  0  0  0  0  0  0  0  0  0  0  0
   -0.3953    6.0878    3.4874 C   0  0  0  0  0  0  0  0  0  0  0  0
   -1.6684    6.8648    3.8292 C   0  0  0  0  0  0  0  0  0  0  0  0
   -0.7624    3.8226    4.5041 C   0  0  0  0  0  0  0  0  0  0  0  0
   -1.0967    2.4853    4.4131 C   0  0  0  0  0  0  0  0  0  0  0  0
   -3.3440    0.5599    3.2190 C   0  0  0  0  0  0  0  0  0  0  0  0
   -4.2524    1.0927    4.1211 C   0  0  0  0  0  0  0  0  0  0  0  0
   -4.1696    1.9335    5.6136 S   0  0  0  0  0  0  0  0  0  0  0  0
    4.7269   -1.4804   -3.8839 S   0  0  0  0  0  0  0  0  0  0  0  0
    4.6987   -2.0989   -5.5320 C   0  0  0  0  0  0  0  0  0  0  0  0
    3.4157   -2.5458   -5.8912 C   0  0  0  0  0  0  0  0  0  0  0  0
    5.7719   -2.1505   -6.4256 C   0  0  0  0  0  0  0  0  0  0  0  0
    7.0774   -1.7393   -6.2879 C   0  0  0  0  0  0  0  0  0  0  0  0
    7.6607   -1.1195   -5.0953 C   0  0  0  0  0  0  0  0  0  0  0  0
    7.1169   -0.8858   -4.0302 O   0  0  0  0  0  0  0  0  0  0  0  0
    9.0655   -0.8219   -5.4361 C   0  0  0  0  0  0  0  0  0  0  0  0
   10.0401   -0.2265   -4.6601 C   0  0  0  0  0  0  0  0  0  0  0  0
   11.3016   -0.0449   -5.2066 C   0  0  0  0  0  0  0  0  0  0  0  0
   11.5539   -0.4618   -6.5048 C   0  0  0  0  0  0  0  0  0  0  0  0
   13.4835   -0.1707   -7.3150 I   0  0  0  0  0  0  0  0  0  0  0  0
   10.5840   -1.0633   -7.2962 C   0  0  0  0  0  0  0  0  0  0  0  0
    9.3236   -1.2434   -6.7512 C   0  0  0  0  0  0  0  0  0  0  0  0
    8.1002   -1.8273   -7.3085 C   0  0  0  0  0  0  0  0  0  0  0  0
    7.9850   -2.3504   -8.5709 C   0  0  0  0  0  0  0  0  0  0  0  0
    9.0375   -2.3938   -9.5098 C   0  0  0  0  0  0  0  0  0  0  0  0
    9.8471   -2.4591  -10.3211 N   0  0  0  0  0  0  0  0  0  0  0  0
    6.8213   -2.9197   -9.1288 C   0  0  0  0  0  0  0  0  0  0  0  0
    5.9244   -3.3998   -9.6630 N   0  0  0  0  0  0  0  0  0  0  0  0
   -5.6748    3.1624    7.4108 H   0  0  0  0  0  0  0  0  0  0  0  0
  -12.1187    2.7402    6.7616 H   0  0  0  0  0  0  0  0  0  0  0  0
  -10.2511    5.0763   10.1861 H   0  0  0  0  0  0  0  0  0  0  0  0
   -7.5945    1.4511    4.4121 H   0  0  0  0  0  0  0  0  0  0  0  0
   -1.2840   -2.3040   -2.9595 H   0  0  0  0  0  0  0  0  0  0  0  0
    0.8363   -4.1723   -6.8862 H   0  0  0  0  0  0  0  0  0  0  0  0
    0.6624   -6.6100   -7.0798 H   0  0  0  0  0  0  0  0  0  0  0  0
    1.0058   -8.9353   -4.2474 H   0  0  0  0  0  0  0  0  0  0  0  0
    0.9644   -8.7932   -6.0107 H   0  0  0  0  0  0  0  0  0  0  0  0
   -1.0896   -9.9075   -5.1632 H   0  0  0  0  0  0  0  0  0  0  0  0
   -1.4908   -8.3603   -5.9160 H   0  0  0  0  0  0  0  0  0  0  0  0
   -1.4503   -8.4995   -4.1584 H   0  0  0  0  0  0  0  0  0  0  0  0
    0.6917   -6.9476   -2.8291 H   0  0  0  0  0  0  0  0  0  0  0  0
    0.8783   -4.5165   -2.6301 H   0  0  0  0  0  0  0  0  0  0  0  0
    1.5003   -0.3880   -6.1070 H   0  0  0  0  0  0  0  0  0  0  0  0
   -0.0413    0.8066   -7.5870 H   0  0  0  0  0  0  0  0  0  0  0  0
   -3.2962   -0.5048   -8.6733 H   0  0  0  0  0  0  0  0  0  0  0  0
   -2.0710    0.7428   -8.9429 H   0  0  0  0  0  0  0  0  0  0  0  0
   -4.1408    1.7247   -7.9774 H   0  0  0  0  0  0  0  0  0  0  0  0
   -4.0092    0.6525   -6.5793 H   0  0  0  0  0  0  0  0  0  0  0  0
   -2.7904    1.8975   -6.8510 H   0  0  0  0  0  0  0  0  0  0  0  0
   -3.0642   -2.0931   -6.7906 H   0  0  0  0  0  0  0  0  0  0  0  0
   -1.5200   -3.3019   -5.3212 H   0  0  0  0  0  0  0  0  0  0  0  0
    3.0908   -0.7533   -1.0635 H   0  0  0  0  0  0  0  0  0  0  0  0
    1.9704    0.9579    2.7362 H   0  0  0  0  0  0  0  0  0  0  0  0
    2.5962    3.3171    2.8029 H   0  0  0  0  0  0  0  0  0  0  0  0
    2.3512    5.5544    1.8465 H   0  0  0  0  0  0  0  0  0  0  0  0
    1.7393    5.7717    0.1984 H   0  0  0  0  0  0  0  0  0  0  0  0
    4.1590    6.3120    0.3115 H   0  0  0  0  0  0  0  0  0  0  0  0
    4.5035    4.6943    0.9326 H   0  0  0  0  0  0  0  0  0  0  0  0
    3.8941    4.8945   -0.7098 H   0  0  0  0  0  0  0  0  0  0  0  0
    1.1735    3.8113   -1.1854 H   0  0  0  0  0  0  0  0  0  0  0  0
    0.5178    1.4562   -1.2460 H   0  0  0  0  0  0  0  0  0  0  0  0
    3.4341   -0.4395    1.2324 H   0  0  0  0  0  0  0  0  0  0  0  0
    4.6829   -1.9933    2.6428 H   0  0  0  0  0  0  0  0  0  0  0  0
    3.1674   -4.9519    4.3249 H   0  0  0  0  0  0  0  0  0  0  0  0
    4.6719   -4.3454    3.6239 H   0  0  0  0  0  0  0  0  0  0  0  0
    4.6977   -2.4755    5.2684 H   0  0  0  0  0  0  0  0  0  0  0  0
    4.6543   -4.0379    6.0914 H   0  0  0  0  0  0  0  0  0  0  0  0
    3.1880   -3.0611    5.9654 H   0  0  0  0  0  0  0  0  0  0  0  0
    1.0634   -4.0404    3.5938 H   0  0  0  0  0  0  0  0  0  0  0  0
   -0.1858   -2.4997    2.1863 H   0  0  0  0  0  0  0  0  0  0  0  0
    0.6531    0.4780    4.2352 H   0  0  0  0  0  0  0  0  0  0  0  0
    1.5389   -1.0354    5.9343 H   0  0  0  0  0  0  0  0  0  0  0  0
   -0.4764   -3.1199    7.9928 H   0  0  0  0  0  0  0  0  0  0  0  0
    1.1915   -2.7138    7.5803 H   0  0  0  0  0  0  0  0  0  0  0  0
    0.8120   -5.1696    7.5123 H   0  0  0  0  0  0  0  0  0  0  0  0
    1.2263   -4.5620    5.9085 H   0  0  0  0  0  0  0  0  0  0  0  0
   -0.4487   -4.9564    6.2956 H   0  0  0  0  0  0  0  0  0  0  0  0
   -2.1559   -3.1669    5.9563 H   0  0  0  0  0  0  0  0  0  0  0  0
   -3.0266   -1.6812    4.2334 H   0  0  0  0  0  0  0  0  0  0  0  0
   -1.5239    2.2821    1.0732 H   0  0  0  0  0  0  0  0  0  0  0  0
   -0.9468    4.6490    1.2456 H   0  0  0  0  0  0  0  0  0  0  0  0
    0.3458    6.2531    4.2723 H   0  0  0  0  0  0  0  0  0  0  0  0
    0.0112    6.4597    2.5452 H   0  0  0  0  0  0  0  0  0  0  0  0
   -2.0845    6.5155    4.7712 H   0  0  0  0  0  0  0  0  0  0  0  0
   -2.4162    6.7235    3.0519 H   0  0  0  0  0  0  0  0  0  0  0  0
   -1.4540    7.9273    3.9166 H   0  0  0  0  0  0  0  0  0  0  0  0
   -0.5660    4.2545    5.4747 H   0  0  0  0  0  0  0  0  0  0  0  0
   -1.1692    1.8912    5.3122 H   0  0  0  0  0  0  0  0  0  0  0  0
    3.2100   -2.9573   -6.8633 H   0  0  0  0  0  0  0  0  0  0  0  0
    5.5006   -2.5801   -7.3825 H   0  0  0  0  0  0  0  0  0  0  0  0
    9.8163    0.0884   -3.6527 H   0  0  0  0  0  0  0  0  0  0  0  0
   12.0833    0.4192   -4.6254 H   0  0  0  0  0  0  0  0  0  0  0  0
   10.8195   -1.3737   -8.3007 H   0  0  0  0  0  0  0  0  0  0  0  0
  1  2  2  0  0  0  0
  2  3  1  0  0  0  0
  3  4  2  0  0  0  0
  3  5  1  0  0  0  0
  5  6  2  0  0  0  0
  6  7  1  0  0  0  0
  7  8  1  0  0  0  0
  8  9  2  0  0  0  0
  9 10  1  0  0  0  0
 10 11  2  0  0  0  0
 11 12  1  0  0  0  0
 12 13  3  0  0  0  0
 11 14  1  0  0  0  0
 14 15  3  0  0  0  0
  1 16  1  0  0  0  0
 16 17  2  0  0  0  0
 17 18  1  0  0  0  0
 18 19  1  0  0  0  0
 19 20  1  0  0  0  0
 20 21  1  0  0  0  0
 21 22  1  0  0  0  0
 22 23  1  0  0  0  0
 23 24  1  0  0  0  0
 24 25  2  0  0  0  0
 25 26  1  0  0  0  0
 26 27  1  0  0  0  0
 27 28  1  0  0  0  0
 28 29  2  0  0  0  0
 29 30  1  0  0  0  0
 30 31  2  0  0  0  0
 31 32  1  0  0  0  0
 32 33  1  0  0  0  0
 31 34  1  0  0  0  0
 34 35  2  0  0  0  0
 27 36  1  0  0  0  0
 36 37  2  0  0  0  0
 37 38  1  0  0  0  0
 38 39  2  0  0  0  0
 39 40  1  0  0  0  0
 40 41  1  0  0  0  0
 39 42  1  0  0  0  0
 42 43  2  0  0  0  0
 27 44  1  0  0  0  0
 44 45  2  0  0  0  0
 45 46  1  0  0  0  0
 46 47  1  0  0  0  0
 47 48  2  0  0  0  0
 48 49  1  0  0  0  0
 49 50  1  0  0  0  0
 50 51  2  0  0  0  0
 51 52  1  0  0  0  0
 52 53  2  0  0  0  0
 53 54  1  0  0  0  0
 54 55  1  0  0  0  0
 53 56  1  0  0  0  0
 56 57  2  0  0  0  0
 49 58  1  0  0  0  0
 58 59  2  0  0  0  0
 59 60  1  0  0  0  0
 60 61  2  0  0  0  0
 61 62  1  0  0  0  0
 62 63  1  0  0  0  0
 61 64  1  0  0  0  0
 64 65  2  0  0  0  0
 49 66  1  0  0  0  0
 66 67  1  0  0  0  0
 67 68  1  0  0  0  0
 68 69  1  0  0  0  0
 69 70  2  0  0  0  0
 70 71  1  0  0  0  0
 71 72  2  0  0  0  0
 72 73  1  0  0  0  0
 73 74  1  0  0  0  0
 72 75  1  0  0  0  0
 75 76  2  0  0  0  0
 68 77  1  0  0  0  0
 77 78  2  0  0  0  0
 78 79  1  0  0  0  0
 79 80  2  0  0  0  0
 80 81  1  0  0  0  0
 81 82  1  0  0  0  0
 80 83  1  0  0  0  0
 83 84  2  0  0  0  0
 68 85  1  0  0  0  0
 85 86  1  0  0  0  0
 86 87  1  0  0  0  0
 45 88  1  0  0  0  0
 88 89  1  0  0  0  0
 89 90  2  0  0  0  0
 89 91  1  0  0  0  0
 91 92  2  0  0  0  0
 92 93  1  0  0  0  0
 93 94  2  0  0  0  0
 93 95  1  0  0  0  0
 95 96  2  0  0  0  0
 96 97  1  0  0  0  0
 97 98  2  0  0  0  0
 98 99  1  0  0  0  0
 98100  1  0  0  0  0
100101  2  0  0  0  0
101102  1  0  0  0  0
102103  2  0  0  0  0
103104  1  0  0  0  0
104105  3  0  0  0  0
103106  1  0  0  0  0
106107  3  0  0  0  0
 10  2  1  0  0  0  0
 87 16  1  0  0  0  0
102 92  1  0  0  0  0
  9  5  1  0  0  0  0
 86 18  2  0  0  0  0
101 95  1  0  0  0  0
 85 20  2  0  0  0  0
 67 21  2  0  0  0  0
 76 69  1  0  0  0  0
 84 77  1  0  0  0  0
 66 23  2  0  0  0  0
 48 24  1  0  0  0  0
 57 50  1  0  0  0  0
 65 58  1  0  0  0  0
 46 26  2  0  0  0  0
 35 28  1  0  0  0  0
 43 36  1  0  0  0  0
 90 44  1  0  0  0  0
  1108  1  0  0  0  0
  6109  1  0  0  0  0
  8110  1  0  0  0  0
 17111  1  0  0  0  0
 25112  1  0  0  0  0
 29113  1  0  0  0  0
 30114  1  0  0  0  0
 32115  1  0  0  0  0
 32116  1  0  0  0  0
 33117  1  0  0  0  0
 33118  1  0  0  0  0
 33119  1  0  0  0  0
 34120  1  0  0  0  0
 35121  1  0  0  0  0
 37122  1  0  0  0  0
 38123  1  0  0  0  0
 40124  1  0  0  0  0
 40125  1  0  0  0  0
 41126  1  0  0  0  0
 41127  1  0  0  0  0
 41128  1  0  0  0  0
 42129  1  0  0  0  0
 43130  1  0  0  0  0
 47131  1  0  0  0  0
 51132  1  0  0  0  0
 52133  1  0  0  0  0
 54134  1  0  0  0  0
 54135  1  0  0  0  0
 55136  1  0  0  0  0
 55137  1  0  0  0  0
 55138  1  0  0  0  0
 56139  1  0  0  0  0
 57140  1  0  0  0  0
 59141  1  0  0  0  0
 60142  1  0  0  0  0
 62143  1  0  0  0  0
 62144  1  0  0  0  0
 63145  1  0  0  0  0
 63146  1  0  0  0  0
 63147  1  0  0  0  0
 64148  1  0  0  0  0
 65149  1  0  0  0  0
 70150  1  0  0  0  0
 71151  1  0  0  0  0
 73152  1  0  0  0  0
 73153  1  0  0  0  0
 74154  1  0  0  0  0
 74155  1  0  0  0  0
 74156  1  0  0  0  0
 75157  1  0  0  0  0
 76158  1  0  0  0  0
 78159  1  0  0  0  0
 79160  1  0  0  0  0
 81161  1  0  0  0  0
 81162  1  0  0  0  0
 82163  1  0  0  0  0
 82164  1  0  0  0  0
 82165  1  0  0  0  0
 83166  1  0  0  0  0
 84167  1  0  0  0  0
 90168  1  0  0  0  0
 91169  1  0  0  0  0
 96170  1  0  0  0  0
 97171  1  0  0  0  0
100172  1  0  0  0  0
M  END
