101

C         -7.90860       -4.02380       -4.27770
C         -8.83720       -4.85420       -3.71600
C         -8.64550       -5.54450       -2.40950
O         -7.65640       -5.53440       -1.71060
C         -9.96320       -6.11050       -2.08830
C        -10.51680       -6.83590       -1.08470
S        -12.19070       -7.12400       -1.39050
C        -12.14620       -6.25230       -2.87850
C        -10.89670       -5.77050       -3.12030
C        -10.21610       -4.99760       -4.13930
C        -10.78660       -4.55860       -5.30650
C        -10.10930       -3.86860       -6.32940
N         -9.60420       -3.31660       -7.20090
C        -12.14760       -4.79280       -5.58680
N        -13.25640       -4.97540       -5.82080
C         -6.52400       -3.99820       -3.98610
C         -5.61240       -5.02910       -3.79600
C         -5.89340       -6.48520       -3.98740
C         -5.50450       -7.32650       -2.77240
C         -4.32520       -4.52310       -3.56780
C         -4.23900       -3.12350       -3.58290
S         -5.76020       -2.40670       -3.94910
C         -2.95180       -2.67450       -3.28150
C         -2.06320       -3.73570       -3.05930
S         -2.79080       -5.29310       -3.22990
C         -0.81850       -3.17400       -2.72720
C          0.46480       -3.72310       -2.50290
N          0.83660       -4.99220       -2.55280
S          2.43250       -5.07350       -2.29760
N          2.71450       -3.49200       -2.10840
C          1.57020       -2.83980       -2.23540
C          1.32280       -1.45800       -2.06360
C          2.11670       -0.39550       -1.59850
S          3.73260       -0.11290       -1.04490
C          3.26760        1.50740       -0.58670
C          3.91310        2.52610        0.11070
C          3.10570        3.63110        0.29030
S          1.53020        3.42360       -0.45390
C          1.93650        1.81420       -0.90780
C          1.27600        0.71670       -1.46360
N         -0.00570        0.39590       -1.83720
C         -1.10960        1.09330       -1.20200
C         -1.10490        0.87060        0.31020
C          0.01290       -0.93260       -2.22300
C         -1.01600       -1.76810       -2.70440
N         -2.30990       -1.47500       -3.09120
C         -2.74310       -0.27930       -3.78680
C         -2.83470       -0.51740       -5.29380
C          3.39410        4.82750        0.99730
C          4.16110        4.93270        2.11230
C          4.70080        6.25080        2.54280
O          4.38550        7.33600        2.10990
C          5.72150        5.94030        3.56130
C          6.57210        6.83970        4.20220
C          7.42350        6.25700        5.10990
C          7.43880        4.87730        5.35940
C          6.60550        3.97820        4.73880
C          5.72250        4.55230        3.81910
C          4.65900        3.93110        3.03480
C          4.06880        2.72770        3.32240
C          2.85810        2.27230        2.76090
N          1.84400        1.86320        2.40900
C          4.53660        1.83050        4.30480
N          4.87680        1.05190        5.07680
C          8.54180        4.99230        6.38110
C          9.95660        4.57890        5.92400
C         10.86870        5.23740        6.93380
C         10.85370        6.54330        6.69970
C          9.93140        6.78980        5.52740
C         10.17870        5.50710        4.72290
C          8.52380        6.53020        6.10520
H         -8.25140       -3.26320       -4.97060
H        -10.05750       -7.22290       -0.19730
H        -13.04090       -6.15470       -3.46000
H         -6.94990       -6.62860       -4.21640
H         -5.31120       -6.82190       -4.85190
H         -4.43430       -7.27130       -2.59290
H         -5.77440       -8.36530       -2.94510
H         -6.02600       -6.96860       -1.88970
H          4.93030        2.47710        0.45540
H         -2.05230        0.72840       -1.60240
H         -1.00790        2.15930       -1.42650
H         -1.18940       -0.19140        0.53120
H         -1.95160        1.38690        0.75370
H         -0.19450        1.24720        0.76800
H         -3.72200        0.02210       -3.40000
H         -2.01620        0.51220       -3.60900
H         -3.09780        0.41180       -5.79120
H         -3.59330       -1.25860       -5.52820
H         -1.87720       -0.86140       -5.67890
H          2.99130        5.75330        0.60020
H          6.52660        7.89520        3.98480
H          6.62770        2.91930        4.93640
H          8.29710        4.63870        7.38070
H         10.09020        3.51220        5.76600
H         11.36990        4.70900        7.72330
H         11.34000        7.32390        7.25470
H         10.04320        7.73740        5.00750
H         11.19700        5.45040        4.34190
H          9.47540        5.35290        3.90650
H          8.26800        7.20270        6.92170
