91

C         -0.83400        6.44660       -4.65280
C         -1.49220        6.76590       -5.81550
C         -2.41060        5.90320       -6.58240
O         -2.73730        4.76000       -6.33120
C         -2.85220        6.71990       -7.72100
C         -3.66920        6.57880       -8.79390
S         -3.69100        8.02400       -9.73740
C         -2.58870        8.82240       -8.67730
C         -2.22850        8.00690       -7.64900
C         -1.37510        8.05310       -6.47750
C         -0.60780        9.13780       -6.12890
C          0.25380        9.23110       -5.02130
N          0.97770        9.37350       -4.13900
C         -0.61390       10.31440       -6.90530
N         -0.60370       11.28180       -7.52310
C         -0.78980        5.26980       -3.89430
S         -1.65960        3.79370       -4.32010
C         -0.98990        3.03770       -2.94650
C         -1.03760        1.78790       -2.32160
C         -1.78510        0.64600       -2.67690
C         -1.68290       -0.51620       -1.85420
N         -2.44200       -1.51380       -2.28220
S         -3.22170       -1.02060       -3.61340
N         -2.61750        0.47710       -3.69250
C         -0.80480       -0.48490       -0.75050
C         -0.47400       -1.51390        0.13590
S         -0.86620       -3.16990        0.42540
C          0.30090       -3.19950        1.73120
C          0.69180       -4.19110        2.63900
C          0.22840       -5.61060        2.59110
C          0.18560       -6.18200        1.17540
C          1.65120       -3.70500        3.52890
S          2.09620       -2.03620        3.18480
C          0.94620       -1.96460        1.90950
C          0.49560       -1.00370        1.00070
N          0.76960        0.29880        0.68450
C         -0.03050        0.66510       -0.39050
C         -0.18720        1.84600       -1.17850
N          0.32140        3.13380       -1.10730
C         -0.14350        3.86220       -2.18440
C         -0.01920        5.14980       -2.71570
C          0.74100        6.30570       -2.13650
C         -0.17150        7.17680       -1.26680
C          1.19400        3.71980       -0.12270
C          2.66240        3.62690       -0.54510
C          1.71180        0.98580        1.53930
C          1.02770        1.54770        2.78590
C          2.34830       -4.31560        4.58930
C          2.01190       -5.38480        5.36880
C          3.06010       -6.07980        6.15380
O          4.18880       -5.70020        6.35220
C          2.43720       -7.36070        6.57420
C          3.02520       -8.45920        7.17630
Cl         4.64840       -8.42260        7.69970
C          2.25300       -9.61970        7.33780
Cl         2.93210      -10.99380        8.09550
C          0.94920       -9.67110        6.84630
Cl         0.06190      -11.12790        6.96900
C          0.35750       -8.55210        6.23840
Cl        -1.18760       -8.72230        5.51190
C          1.08940       -7.37720        6.15990
C          0.75810       -6.05610        5.62680
C         -0.46290       -5.43540        5.67820
C         -0.64130       -4.08270        5.31720
N         -0.83420       -2.98360        5.04930
C         -1.63470       -5.95980        6.26330
N         -2.61390       -6.26850        6.77540
H         -0.23360        7.24920       -4.24820
H         -4.25420        5.73200       -9.09150
H         -2.29060        9.82930       -8.89030
H          0.89780       -6.22360        3.19800
H         -0.77330       -5.67400        3.03070
H          1.14480       -6.04710        0.68110
H         -0.58480       -5.70410        0.57800
H         -0.03200       -7.24600        1.22350
H          1.16340        6.92370       -2.92970
H          1.57990        5.95340       -1.54000
H         -0.99010        7.57810       -1.85870
H          0.39340        8.00850       -0.85450
H         -0.59770        6.60020       -0.44760
H          1.01790        3.24400        0.83810
H          0.90950        4.76750       -0.00870
H          2.83470        4.20820       -1.44780
H          2.94400        2.59930       -0.76700
H          3.30600        4.01100        0.24240
H          2.24930        1.74940        0.98820
H          2.44820        0.23920        1.85370
H          0.62300        0.73610        3.38520
H          0.20680        2.21300        2.52510
H          1.74770        2.09460        3.38810
H          3.32950       -3.89960        4.80150
