
  xtb     02022222443D
 energy: -177.484835786921 gnorm: 0.000804298876 xtb: 6.4.1 (unknown)
 95109  0     0  0            999 V2000
    7.9769    1.3472    5.4174 C   0  0  0  0  0  0  0  0  0  0  0  0
    8.7226    2.2161    4.6526 C   0  0  0  0  0  0  0  0  0  0  0  0
    8.3331    2.7331    3.3420 C   0  0  0  0  0  0  0  0  0  0  0  0
    7.3133    2.4636    2.7172 O   0  0  0  0  0  0  0  0  0  0  0  0
    9.4066    3.6379    2.9290 C   0  0  0  0  0  0  0  0  0  0  0  0
    9.6980    4.4392    1.8729 C   0  0  0  0  0  0  0  0  0  0  0  0
   11.2089    5.2356    2.1114 S   0  0  0  0  0  0  0  0  0  0  0  0
   11.4501    4.4830    3.6466 C   0  0  0  0  0  0  0  0  0  0  0  0
   10.4114    3.6599    3.9510 C   0  0  0  0  0  0  0  0  0  0  0  0
   10.0076    2.7763    5.0303 C   0  0  0  0  0  0  0  0  0  0  0  0
   10.7477    2.5540    6.1629 C   0  0  0  0  0  0  0  0  0  0  0  0
   11.9873    3.1966    6.3604 C   0  0  0  0  0  0  0  0  0  0  0  0
   12.9971    3.7128    6.5365 N   0  0  0  0  0  0  0  0  0  0  0  0
   10.4016    1.7012    7.2282 C   0  0  0  0  0  0  0  0  0  0  0  0
   10.1811    1.0224    8.1287 N   0  0  0  0  0  0  0  0  0  0  0  0
    6.7347    0.7523    5.1767 C   0  0  0  0  0  0  0  0  0  0  0  0
    6.1487   -0.0941    6.1245 C   0  0  0  0  0  0  0  0  0  0  0  0
    4.9220   -0.6157    5.7676 C   0  0  0  0  0  0  0  0  0  0  0  0
    3.8456   -1.6970    6.6358 S   0  0  0  0  0  0  0  0  0  0  0  0
    2.7519   -1.6286    5.2993 C   0  0  0  0  0  0  0  0  0  0  0  0
    1.5281   -2.1730    4.8986 C   0  0  0  0  0  0  0  0  0  0  0  0
    0.6949   -3.1093    5.5492 C   0  0  0  0  0  0  0  0  0  0  0  0
   -0.4815   -3.5674    4.8771 C   0  0  0  0  0  0  0  0  0  0  0  0
   -1.1521   -4.4644    5.5827 N   0  0  0  0  0  0  0  0  0  0  0  0
   -0.3679   -4.7080    6.9776 S   0  0  0  0  0  0  0  0  0  0  0  0
    0.8579   -3.6786    6.7330 N   0  0  0  0  0  0  0  0  0  0  0  0
   -0.8004   -3.0195    3.6154 C   0  0  0  0  0  0  0  0  0  0  0  0
   -1.9129   -3.2375    2.7961 C   0  0  0  0  0  0  0  0  0  0  0  0
   -1.7775   -2.3879    1.6930 C   0  0  0  0  0  0  0  0  0  0  0  0
   -0.6258   -1.6585    1.8068 N   0  0  0  0  0  0  0  0  0  0  0  0
   -0.3720   -0.6349    0.8222 C   0  0  0  0  0  0  0  0  0  0  0  0
    0.2436   -1.2122   -0.4524 C   0  0  0  0  0  0  0  0  0  0  0  0
    0.0160   -2.0359    2.9724 C   0  0  0  0  0  0  0  0  0  0  0  0
    1.2347   -1.6511    3.5986 C   0  0  0  0  0  0  0  0  0  0  0  0
    2.2895   -0.8382    3.2279 N   0  0  0  0  0  0  0  0  0  0  0  0
    3.1960   -0.8124    4.2528 C   0  0  0  0  0  0  0  0  0  0  0  0
    4.4384   -0.2249    4.4989 C   0  0  0  0  0  0  0  0  0  0  0  0
    5.6288    0.9288    3.6413 Se  0  0  0  0  0  2  0  0  0  0  0  0
    2.6241   -0.1430    2.0087 C   0  0  0  0  0  0  0  0  0  0  0  0
    2.3228    1.3525    2.1068 C   0  0  0  0  0  0  0  0  0  0  0  0
   -2.8485   -2.4674    0.7989 C   0  0  0  0  0  0  0  0  0  0  0  0
   -3.7983   -3.4050    1.2561 C   0  0  0  0  0  0  0  0  0  0  0  0
   -3.3638   -4.1764    2.7720 S   0  0  0  0  0  0  0  0  0  0  0  0
   -4.9102   -3.5679    0.4523 C   0  0  0  0  0  0  0  0  0  0  0  0
   -4.9285   -2.7837   -0.7040 C   0  0  0  0  0  0  0  0  0  0  0  0
   -3.3731   -1.7023   -0.8223 Se  0  0  0  0  0  2  0  0  0  0  0  0
   -6.0048   -2.8500   -1.5989 C   0  0  0  0  0  0  0  0  0  0  0  0
   -6.2205   -2.1972   -2.7881 C   0  0  0  0  0  0  0  0  0  0  0  0
   -5.3004   -1.2556   -3.4122 C   0  0  0  0  0  0  0  0  0  0  0  0
   -4.2221   -0.8726   -2.9683 O   0  0  0  0  0  0  0  0  0  0  0  0
   -5.9056   -0.8469   -4.6857 C   0  0  0  0  0  0  0  0  0  0  0  0
   -5.3750    0.0280   -5.6310 C   0  0  0  0  0  0  0  0  0  0  0  0
   -6.1735    0.2087   -6.7347 C   0  0  0  0  0  0  0  0  0  0  0  0
   -7.4123   -0.4286   -6.8839 C   0  0  0  0  0  0  0  0  0  0  0  0
   -7.9489   -1.2911   -5.9565 C   0  0  0  0  0  0  0  0  0  0  0  0
   -7.1507   -1.4953   -4.8286 C   0  0  0  0  0  0  0  0  0  0  0  0
   -7.3769   -2.3367   -3.6527 C   0  0  0  0  0  0  0  0  0  0  0  0
   -8.4933   -3.0993   -3.4278 C   0  0  0  0  0  0  0  0  0  0  0  0
   -8.7287   -3.9030   -2.2922 C   0  0  0  0  0  0  0  0  0  0  0  0
   -9.0051   -4.5790   -1.4052 N   0  0  0  0  0  0  0  0  0  0  0  0
   -9.5928   -3.1882   -4.3078 C   0  0  0  0  0  0  0  0  0  0  0  0
  -10.5219   -3.3106   -4.9715 N   0  0  0  0  0  0  0  0  0  0  0  0
   -7.6637    0.1997   -8.2312 C   0  0  0  0  0  0  0  0  0  0  0  0
   -7.4519   -0.6818   -9.4869 C   0  0  0  0  0  0  0  0  0  0  0  0
   -6.4405   -1.7345   -9.1061 C   0  0  0  0  0  0  0  0  0  0  0  0
   -5.2659   -1.1351   -8.9654 C   0  0  0  0  0  0  0  0  0  0  0  0
   -5.4614    0.3338   -9.2494 C   0  0  0  0  0  0  0  0  0  0  0  0
   -6.5641    0.2585  -10.3176 C   0  0  0  0  0  0  0  0  0  0  0  0
   -6.2816    0.9073   -8.0668 C   0  0  0  0  0  0  0  0  0  0  0  0
    8.4024    1.0697    6.3760 H   0  0  0  0  0  0  0  0  0  0  0  0
    9.1319    4.6136    0.9800 H   0  0  0  0  0  0  0  0  0  0  0  0
   12.3363    4.7039    4.2068 H   0  0  0  0  0  0  0  0  0  0  0  0
    6.6326   -0.3126    7.0616 H   0  0  0  0  0  0  0  0  0  0  0  0
   -1.3432   -0.1914    0.5626 H   0  0  0  0  0  0  0  0  0  0  0  0
    0.2412    0.1510    1.2535 H   0  0  0  0  0  0  0  0  0  0  0  0
   -0.4858   -1.8376   -0.9660 H   0  0  0  0  0  0  0  0  0  0  0  0
    0.5319   -0.4065   -1.1215 H   0  0  0  0  0  0  0  0  0  0  0  0
    1.1163   -1.8248   -0.2339 H   0  0  0  0  0  0  0  0  0  0  0  0
    2.1200   -0.6078    1.1663 H   0  0  0  0  0  0  0  0  0  0  0  0
    3.7052   -0.2654    1.8553 H   0  0  0  0  0  0  0  0  0  0  0  0
    1.3018    1.5344    2.4368 H   0  0  0  0  0  0  0  0  0  0  0  0
    2.4747    1.8244    1.1403 H   0  0  0  0  0  0  0  0  0  0  0  0
    2.9958    1.8206    2.8244 H   0  0  0  0  0  0  0  0  0  0  0  0
   -5.7129   -4.2463    0.6877 H   0  0  0  0  0  0  0  0  0  0  0  0
   -6.7757   -3.5419   -1.2793 H   0  0  0  0  0  0  0  0  0  0  0  0
   -4.4176    0.4999   -5.4743 H   0  0  0  0  0  0  0  0  0  0  0  0
   -8.9034   -1.7718   -6.0897 H   0  0  0  0  0  0  0  0  0  0  0  0
   -8.5510    0.8248   -8.3074 H   0  0  0  0  0  0  0  0  0  0  0  0
   -8.3691   -1.0410   -9.9457 H   0  0  0  0  0  0  0  0  0  0  0  0
   -6.6871   -2.7647   -8.9277 H   0  0  0  0  0  0  0  0  0  0  0  0
   -4.3345   -1.5646   -8.6456 H   0  0  0  0  0  0  0  0  0  0  0  0
   -4.5657    0.8990   -9.4935 H   0  0  0  0  0  0  0  0  0  0  0  0
   -7.0295    1.2201  -10.5297 H   0  0  0  0  0  0  0  0  0  0  0  0
   -6.2211   -0.1969  -11.2453 H   0  0  0  0  0  0  0  0  0  0  0  0
   -6.2652    1.9951   -8.0396 H   0  0  0  0  0  0  0  0  0  0  0  0
  1  2  2  0  0  0  0
  2  3  1  0  0  0  0
  3  4  2  0  0  0  0
  3  5  1  0  0  0  0
  5  6  2  0  0  0  0
  6  7  1  0  0  0  0
  7  8  1  0  0  0  0
  8  9  2  0  0  0  0
  9 10  1  0  0  0  0
 10 11  2  0  0  0  0
 11 12  1  0  0  0  0
 12 13  3  0  0  0  0
 11 14  1  0  0  0  0
 14 15  3  0  0  0  0
  1 16  1  0  0  0  0
 16 17  2  0  0  0  0
 17 18  1  0  0  0  0
 18 19  1  0  0  0  0
 19 20  1  0  0  0  0
 20 21  1  0  0  0  0
 21 22  1  0  0  0  0
 22 23  1  0  0  0  0
 23 24  2  0  0  0  0
 24 25  1  0  0  0  0
 25 26  1  0  0  0  0
 23 27  1  0  0  0  0
 27 28  1  0  0  0  0
 28 29  2  0  0  0  0
 29 30  1  0  0  0  0
 30 31  1  0  0  0  0
 31 32  1  0  0  0  0
 30 33  1  0  0  0  0
 33 34  1  0  0  0  0
 34 35  1  0  0  0  0
 35 36  1  0  0  0  0
 36 37  1  0  0  0  0
 37 38  1  0  0  0  0
 35 39  1  0  0  0  0
 39 40  1  0  0  0  0
 29 41  1  0  0  0  0
 41 42  2  0  0  0  0
 42 43  1  0  0  0  0
 42 44  1  0  0  0  0
 44 45  2  0  0  0  0
 45 46  1  0  0  0  0
 45 47  1  0  0  0  0
 47 48  2  0  0  0  0
 48 49  1  0  0  0  0
 49 50  2  0  0  0  0
 49 51  1  0  0  0  0
 51 52  2  0  0  0  0
 52 53  1  0  0  0  0
 53 54  2  0  0  0  0
 54 55  1  0  0  0  0
 55 56  2  0  0  0  0
 56 57  1  0  0  0  0
 57 58  2  0  0  0  0
 58 59  1  0  0  0  0
 59 60  3  0  0  0  0
 58 61  1  0  0  0  0
 61 62  3  0  0  0  0
 54 63  1  0  0  0  0
 63 64  1  0  0  0  0
 64 65  1  0  0  0  0
 65 66  2  0  0  0  0
 66 67  1  0  0  0  0
 67 68  1  0  0  0  0
 67 69  1  0  0  0  0
 10  2  1  0  0  0  0
 38 16  1  0  0  0  0
 46 41  1  0  0  0  0
 57 48  1  0  0  0  0
 69 63  1  0  0  0  0
  9  5  1  0  0  0  0
 37 18  2  0  0  0  0
 56 51  1  0  0  0  0
 68 64  1  0  0  0  0
 36 20  2  0  0  0  0
 69 53  1  0  0  0  0
 34 21  2  0  0  0  0
 26 22  2  0  0  0  0
 33 27  2  0  0  0  0
 43 28  1  0  0  0  0
  1 70  1  0  0  0  0
  6 71  1  0  0  0  0
  8 72  1  0  0  0  0
 17 73  1  0  0  0  0
 31 74  1  0  0  0  0
 31 75  1  0  0  0  0
 32 76  1  0  0  0  0
 32 77  1  0  0  0  0
 32 78  1  0  0  0  0
 39 79  1  0  0  0  0
 39 80  1  0  0  0  0
 40 81  1  0  0  0  0
 40 82  1  0  0  0  0
 40 83  1  0  0  0  0
 44 84  1  0  0  0  0
 47 85  1  0  0  0  0
 52 86  1  0  0  0  0
 55 87  1  0  0  0  0
 63 88  1  0  0  0  0
 64 89  1  0  0  0  0
 65 90  1  0  0  0  0
 66 91  1  0  0  0  0
 67 92  1  0  0  0  0
 68 93  1  0  0  0  0
 68 94  1  0  0  0  0
 69 95  1  0  0  0  0
M  END
