95

C          7.97690        1.34720        5.41740
C          8.72260        2.21610        4.65260
C          8.33310        2.73310        3.34200
O          7.31330        2.46360        2.71720
C          9.40660        3.63790        2.92900
C          9.69800        4.43920        1.87290
S         11.20890        5.23560        2.11140
C         11.45010        4.48300        3.64660
C         10.41140        3.65990        3.95100
C         10.00760        2.77630        5.03030
C         10.74770        2.55400        6.16290
C         11.98730        3.19660        6.36040
N         12.99710        3.71280        6.53650
C         10.40160        1.70120        7.22820
N         10.18110        1.02240        8.12870
C          6.73470        0.75230        5.17670
C          6.14870       -0.09410        6.12450
C          4.92200       -0.61570        5.76760
S          3.84560       -1.69700        6.63580
C          2.75190       -1.62860        5.29930
C          1.52810       -2.17300        4.89860
C          0.69490       -3.10930        5.54920
C         -0.48150       -3.56740        4.87710
N         -1.15210       -4.46440        5.58270
S         -0.36790       -4.70800        6.97760
N          0.85790       -3.67860        6.73300
C         -0.80040       -3.01950        3.61540
C         -1.91290       -3.23750        2.79610
C         -1.77750       -2.38790        1.69300
N         -0.62580       -1.65850        1.80680
C         -0.37200       -0.63490        0.82220
C          0.24360       -1.21220       -0.45240
C          0.01600       -2.03590        2.97240
C          1.23470       -1.65110        3.59860
N          2.28950       -0.83820        3.22790
C          3.19600       -0.81240        4.25280
C          4.43840       -0.22490        4.49890
Se         5.62880        0.92880        3.64130
C          2.62410       -0.14300        2.00870
C          2.32280        1.35250        2.10680
C         -2.84850       -2.46740        0.79890
C         -3.79830       -3.40500        1.25610
S         -3.36380       -4.17640        2.77200
C         -4.91020       -3.56790        0.45230
C         -4.92850       -2.78370       -0.70400
Se        -3.37310       -1.70230       -0.82230
C         -6.00480       -2.85000       -1.59890
C         -6.22050       -2.19720       -2.78810
C         -5.30040       -1.25560       -3.41220
O         -4.22210       -0.87260       -2.96830
C         -5.90560       -0.84690       -4.68570
C         -5.37500        0.02800       -5.63100
C         -6.17350        0.20870       -6.73470
C         -7.41230       -0.42860       -6.88390
C         -7.94890       -1.29110       -5.95650
C         -7.15070       -1.49530       -4.82860
C         -7.37690       -2.33670       -3.65270
C         -8.49330       -3.09930       -3.42780
C         -8.72870       -3.90300       -2.29220
N         -9.00510       -4.57900       -1.40520
C         -9.59280       -3.18820       -4.30780
N        -10.52190       -3.31060       -4.97150
C         -7.66370        0.19970       -8.23120
C         -7.45190       -0.68180       -9.48690
C         -6.44050       -1.73450       -9.10610
C         -5.26590       -1.13510       -8.96540
C         -5.46140        0.33380       -9.24940
C         -6.56410        0.25850      -10.31760
C         -6.28160        0.90730       -8.06680
H          8.40240        1.06970        6.37600
H          9.13190        4.61360        0.98000
H         12.33630        4.70390        4.20680
H          6.63260       -0.31260        7.06160
H         -1.34320       -0.19140        0.56260
H          0.24120        0.15100        1.25350
H         -0.48580       -1.83760       -0.96600
H          0.53190       -0.40650       -1.12150
H          1.11630       -1.82480       -0.23390
H          2.12000       -0.60780        1.16630
H          3.70520       -0.26540        1.85530
H          1.30180        1.53440        2.43680
H          2.47470        1.82440        1.14030
H          2.99580        1.82060        2.82440
H         -5.71290       -4.24630        0.68770
H         -6.77570       -3.54190       -1.27930
H         -4.41760        0.49990       -5.47430
H         -8.90340       -1.77180       -6.08970
H         -8.55100        0.82480       -8.30740
H         -8.36910       -1.04100       -9.94570
H         -6.68710       -2.76470       -8.92770
H         -4.33450       -1.56460       -8.64560
H         -4.56570        0.89900       -9.49350
H         -7.02950        1.22010      -10.52970
H         -6.22110       -0.19690      -11.24530
H         -6.26520        1.99510       -8.03960
