
  xtb     02102217583D
 energy: -206.268315139400 gnorm: 0.000942700756 xtb: 6.4.1 (unknown)
114127  0     0  0            999 V2000
    4.1619    6.8573   -2.7295 C   0  0  0  0  0  0  0  0  0  0  0  0
    5.2539    6.6737   -3.5422 C   0  0  0  0  0  0  0  0  0  0  0  0
    5.7450    5.3823   -4.0460 C   0  0  0  0  0  0  0  0  0  0  0  0
    5.2677    4.2788   -3.8425 O   0  0  0  0  0  0  0  0  0  0  0  0
    6.9354    5.7000   -4.8427 C   0  0  0  0  0  0  0  0  0  0  0  0
    7.8630    5.0282   -5.5695 C   0  0  0  0  0  0  0  0  0  0  0  0
    9.0160    6.1197   -6.2451 S   0  0  0  0  0  0  0  0  0  0  0  0
    8.2404    7.4922   -5.5426 C   0  0  0  0  0  0  0  0  0  0  0  0
    7.1477    7.1168   -4.8246 C   0  0  0  0  0  0  0  0  0  0  0  0
    6.1069    7.7414   -4.0294 C   0  0  0  0  0  0  0  0  0  0  0  0
    5.9933    9.0937   -3.8298 C   0  0  0  0  0  0  0  0  0  0  0  0
    4.9935    9.7521   -3.0888 C   0  0  0  0  0  0  0  0  0  0  0  0
    4.2094   10.3631   -2.5123 N   0  0  0  0  0  0  0  0  0  0  0  0
    6.9219    9.9903   -4.3973 C   0  0  0  0  0  0  0  0  0  0  0  0
    7.6700   10.7317   -4.8535 N   0  0  0  0  0  0  0  0  0  0  0  0
    3.2524    5.9376   -2.1994 C   0  0  0  0  0  0  0  0  0  0  0  0
    2.1824    6.3473   -1.3840 C   0  0  0  0  0  0  0  0  0  0  0  0
    1.9021    7.7439   -1.0200 C   0  0  0  0  0  0  0  0  0  0  0  0
    2.1192    8.1278    0.2998 C   0  0  0  0  0  0  0  0  0  0  0  0
    1.8844    9.4287    0.6996 C   0  0  0  0  0  0  0  0  0  0  0  0
    1.4207   10.3540   -0.2192 C   0  0  0  0  0  0  0  0  0  0  0  0
    1.1828    9.9690   -1.5253 C   0  0  0  0  0  0  0  0  0  0  0  0
    1.4174    8.6682   -1.9488 C   0  0  0  0  0  0  0  0  0  0  0  0
    1.0601    8.2628   -3.3513 C   0  0  0  0  0  0  0  0  0  0  0  0
   -0.3419    7.6500   -3.3811 C   0  0  0  0  0  0  0  0  0  0  0  0
    1.4458    5.2656   -0.9228 C   0  0  0  0  0  0  0  0  0  0  0  0
    0.0405    5.1551    0.1189 S   0  0  0  0  0  0  0  0  0  0  0  0
    0.0932    3.4358   -0.0646 C   0  0  0  0  0  0  0  0  0  0  0  0
   -0.5973    2.3042    0.3799 C   0  0  0  0  0  0  0  0  0  0  0  0
   -1.7178    2.2169    1.2332 C   0  0  0  0  0  0  0  0  0  0  0  0
   -2.2364    0.9248    1.5519 C   0  0  0  0  0  0  0  0  0  0  0  0
   -3.2834    0.9810    2.3605 N   0  0  0  0  0  0  0  0  0  0  0  0
   -3.5880    2.5371    2.6899 S   0  0  0  0  0  0  0  0  0  0  0  0
   -2.3956    3.1945    1.8146 N   0  0  0  0  0  0  0  0  0  0  0  0
   -1.6066   -0.2105    0.9996 C   0  0  0  0  0  0  0  0  0  0  0  0
   -1.9165   -1.5644    1.1646 C   0  0  0  0  0  0  0  0  0  0  0  0
   -3.0608   -2.5514    2.0013 S   0  0  0  0  0  0  0  0  0  0  0  0
   -2.3109   -3.9719    1.3056 C   0  0  0  0  0  0  0  0  0  0  0  0
   -2.5606   -5.3436    1.4474 C   0  0  0  0  0  0  0  0  0  0  0  0
   -3.5795   -5.9323    2.3256 C   0  0  0  0  0  0  0  0  0  0  0  0
   -4.9453   -5.6260    2.2321 C   0  0  0  0  0  0  0  0  0  0  0  0
   -5.4634   -4.5927    1.2690 C   0  0  0  0  0  0  0  0  0  0  0  0
   -6.8771   -4.8398    0.7476 C   0  0  0  0  0  0  0  0  0  0  0  0
   -5.8223   -6.2979    3.0801 C   0  0  0  0  0  0  0  0  0  0  0  0
   -5.3808   -7.2343    3.9941 C   0  0  0  0  0  0  0  0  0  0  0  0
   -4.0268   -7.5047    4.1061 C   0  0  0  0  0  0  0  0  0  0  0  0
   -3.1382   -6.8525    3.2771 C   0  0  0  0  0  0  0  0  0  0  0  0
   -1.6107   -6.1045    0.7569 C   0  0  0  0  0  0  0  0  0  0  0  0
   -0.4303   -5.0915   -0.0701 S   0  0  0  0  0  0  0  0  0  0  0  0
   -1.2016   -3.6655    0.5006 C   0  0  0  0  0  0  0  0  0  0  0  0
   -0.9894   -2.2865    0.4101 C   0  0  0  0  0  0  0  0  0  0  0  0
   -0.1131   -1.4294   -0.1973 N   0  0  0  0  0  0  0  0  0  0  0  0
   -0.4756   -0.1320    0.1284 C   0  0  0  0  0  0  0  0  0  0  0  0
    0.0420    1.1580   -0.1913 C   0  0  0  0  0  0  0  0  0  0  0  0
    1.0819    1.6159   -0.9817 N   0  0  0  0  0  0  0  0  0  0  0  0
    1.1264    2.9801   -0.8897 C   0  0  0  0  0  0  0  0  0  0  0  0
    1.9127    4.0228   -1.3894 C   0  0  0  0  0  0  0  0  0  0  0  0
    3.2989    4.1880   -2.4049 S   0  0  0  0  0  0  0  0  0  0  0  0
    2.1160    0.9576   -1.7455 C   0  0  0  0  0  0  0  0  0  0  0  0
    3.3240    0.6171   -0.8733 C   0  0  0  0  0  0  0  0  0  0  0  0
    0.8635   -1.9868   -1.1033 C   0  0  0  0  0  0  0  0  0  0  0  0
    0.3218   -2.0616   -2.5306 C   0  0  0  0  0  0  0  0  0  0  0  0
   -1.3614   -7.4910    0.6996 C   0  0  0  0  0  0  0  0  0  0  0  0
   -2.1411   -8.5773    0.9814 C   0  0  0  0  0  0  0  0  0  0  0  0
   -1.4689   -9.8545    1.3476 C   0  0  0  0  0  0  0  0  0  0  0  0
   -0.2990  -10.1195    1.2091 O   0  0  0  0  0  0  0  0  0  0  0  0
   -2.5361  -10.6790    1.9614 C   0  0  0  0  0  0  0  0  0  0  0  0
   -2.4785  -11.9003    2.6077 C   0  0  0  0  0  0  0  0  0  0  0  0
   -1.3221  -12.5570    2.7424 F   0  0  0  0  0  0  0  0  0  0  0  0
   -3.6349  -12.4622    3.1364 C   0  0  0  0  0  0  0  0  0  0  0  0
   -4.8407  -11.7934    3.0158 C   0  0  0  0  0  0  0  0  0  0  0  0
   -4.9270  -10.5685    2.3654 C   0  0  0  0  0  0  0  0  0  0  0  0
   -3.7729  -10.0177    1.8383 C   0  0  0  0  0  0  0  0  0  0  0  0
   -3.5597   -8.7706    1.1056 C   0  0  0  0  0  0  0  0  0  0  0  0
   -4.5238   -8.0611    0.4366 C   0  0  0  0  0  0  0  0  0  0  0  0
   -5.8988   -8.3537    0.4903 C   0  0  0  0  0  0  0  0  0  0  0  0
   -7.0295   -8.5535    0.4970 N   0  0  0  0  0  0  0  0  0  0  0  0
   -4.1873   -7.0302   -0.4590 C   0  0  0  0  0  0  0  0  0  0  0  0
   -3.9148   -6.2050   -1.2093 N   0  0  0  0  0  0  0  0  0  0  0  0
    3.9471    7.8779   -2.4325 H   0  0  0  0  0  0  0  0  0  0  0  0
    7.9465    3.9758   -5.7529 H   0  0  0  0  0  0  0  0  0  0  0  0
    8.6474    8.4691   -5.7103 H   0  0  0  0  0  0  0  0  0  0  0  0
    2.4877    7.3975    1.0058 H   0  0  0  0  0  0  0  0  0  0  0  0
    2.0658    9.7178    1.7237 H   0  0  0  0  0  0  0  0  0  0  0  0
    1.2415   11.3747    0.0824 H   0  0  0  0  0  0  0  0  0  0  0  0
    0.8128   10.6914   -2.2375 H   0  0  0  0  0  0  0  0  0  0  0  0
    1.7748    7.5371   -3.7431 H   0  0  0  0  0  0  0  0  0  0  0  0
    1.0851    9.1419   -3.9975 H   0  0  0  0  0  0  0  0  0  0  0  0
   -0.6131    7.3719   -4.3970 H   0  0  0  0  0  0  0  0  0  0  0  0
   -0.3824    6.7610   -2.7554 H   0  0  0  0  0  0  0  0  0  0  0  0
   -1.0737    8.3625   -3.0077 H   0  0  0  0  0  0  0  0  0  0  0  0
   -4.7857   -4.5193    0.4165 H   0  0  0  0  0  0  0  0  0  0  0  0
   -5.4505   -3.6243    1.7795 H   0  0  0  0  0  0  0  0  0  0  0  0
   -6.9797   -5.8468    0.3512 H   0  0  0  0  0  0  0  0  0  0  0  0
   -7.0901   -4.1358   -0.0530 H   0  0  0  0  0  0  0  0  0  0  0  0
   -7.6227   -4.6943    1.5247 H   0  0  0  0  0  0  0  0  0  0  0  0
   -6.8770   -6.0847    3.0218 H   0  0  0  0  0  0  0  0  0  0  0  0
   -6.0906   -7.7441    4.6280 H   0  0  0  0  0  0  0  0  0  0  0  0
   -3.6659   -8.2152    4.8345 H   0  0  0  0  0  0  0  0  0  0  0  0
   -2.0788   -7.0467    3.3659 H   0  0  0  0  0  0  0  0  0  0  0  0
    1.7139    0.0847   -2.2522 H   0  0  0  0  0  0  0  0  0  0  0  0
    2.4331    1.6639   -2.5180 H   0  0  0  0  0  0  0  0  0  0  0  0
    4.0564    0.0624   -1.4531 H   0  0  0  0  0  0  0  0  0  0  0  0
    3.0344    0.0276   -0.0053 H   0  0  0  0  0  0  0  0  0  0  0  0
    3.7907    1.5327   -0.5192 H   0  0  0  0  0  0  0  0  0  0  0  0
    1.0724   -3.0018   -0.7526 H   0  0  0  0  0  0  0  0  0  0  0  0
    1.7942   -1.4295   -1.0453 H   0  0  0  0  0  0  0  0  0  0  0  0
   -0.5221   -2.7458   -2.5705 H   0  0  0  0  0  0  0  0  0  0  0  0
   -0.0187   -1.0871   -2.8756 H   0  0  0  0  0  0  0  0  0  0  0  0
    1.0930   -2.4267   -3.2033 H   0  0  0  0  0  0  0  0  0  0  0  0
   -0.3292   -7.7483    0.4707 H   0  0  0  0  0  0  0  0  0  0  0  0
   -3.5722  -13.4153    3.6375 H   0  0  0  0  0  0  0  0  0  0  0  0
   -5.7322  -12.2332    3.4356 H   0  0  0  0  0  0  0  0  0  0  0  0
   -5.8735  -10.0588    2.2899 H   0  0  0  0  0  0  0  0  0  0  0  0
  1  2  2  0  0  0  0
  2  3  1  0  0  0  0
  3  4  2  0  0  0  0
  3  5  1  0  0  0  0
  5  6  2  0  0  0  0
  6  7  1  0  0  0  0
  7  8  1  0  0  0  0
  8  9  2  0  0  0  0
  9 10  1  0  0  0  0
 10 11  2  0  0  0  0
 11 12  1  0  0  0  0
 12 13  3  0  0  0  0
 11 14  1  0  0  0  0
 14 15  3  0  0  0  0
  1 16  1  0  0  0  0
 16 17  2  0  0  0  0
 17 18  1  0  0  0  0
 18 19  2  0  0  0  0
 19 20  1  0  0  0  0
 20 21  2  0  0  0  0
 21 22  1  0  0  0  0
 22 23  2  0  0  0  0
 23 24  1  0  0  0  0
 24 25  1  0  0  0  0
 17 26  1  0  0  0  0
 26 27  1  0  0  0  0
 27 28  1  0  0  0  0
 28 29  1  0  0  0  0
 29 30  1  0  0  0  0
 30 31  1  0  0  0  0
 31 32  2  0  0  0  0
 32 33  1  0  0  0  0
 33 34  1  0  0  0  0
 31 35  1  0  0  0  0
 35 36  1  0  0  0  0
 36 37  1  0  0  0  0
 37 38  1  0  0  0  0
 38 39  1  0  0  0  0
 39 40  1  0  0  0  0
 40 41  2  0  0  0  0
 41 42  1  0  0  0  0
 42 43  1  0  0  0  0
 41 44  1  0  0  0  0
 44 45  2  0  0  0  0
 45 46  1  0  0  0  0
 46 47  2  0  0  0  0
 39 48  2  0  0  0  0
 48 49  1  0  0  0  0
 49 50  1  0  0  0  0
 50 51  1  0  0  0  0
 51 52  1  0  0  0  0
 52 53  1  0  0  0  0
 53 54  1  0  0  0  0
 54 55  1  0  0  0  0
 55 56  1  0  0  0  0
 56 57  1  0  0  0  0
 57 58  1  0  0  0  0
 55 59  1  0  0  0  0
 59 60  1  0  0  0  0
 52 61  1  0  0  0  0
 61 62  1  0  0  0  0
 48 63  1  0  0  0  0
 63 64  2  0  0  0  0
 64 65  1  0  0  0  0
 65 66  2  0  0  0  0
 65 67  1  0  0  0  0
 67 68  2  0  0  0  0
 68 69  1  0  0  0  0
 68 70  1  0  0  0  0
 70 71  2  0  0  0  0
 71 72  1  0  0  0  0
 72 73  2  0  0  0  0
 73 74  1  0  0  0  0
 74 75  2  0  0  0  0
 75 76  1  0  0  0  0
 76 77  3  0  0  0  0
 75 78  1  0  0  0  0
 78 79  3  0  0  0  0
 10  2  1  0  0  0  0
 58 16  1  0  0  0  0
 74 64  1  0  0  0  0
  9  5  1  0  0  0  0
 23 18  1  0  0  0  0
 57 26  2  0  0  0  0
 73 67  1  0  0  0  0
 56 28  2  0  0  0  0
 54 29  2  0  0  0  0
 34 30  2  0  0  0  0
 53 35  2  0  0  0  0
 51 36  2  0  0  0  0
 50 38  2  0  0  0  0
 47 40  1  0  0  0  0
  1 80  1  0  0  0  0
  6 81  1  0  0  0  0
  8 82  1  0  0  0  0
 19 83  1  0  0  0  0
 20 84  1  0  0  0  0
 21 85  1  0  0  0  0
 22 86  1  0  0  0  0
 24 87  1  0  0  0  0
 24 88  1  0  0  0  0
 25 89  1  0  0  0  0
 25 90  1  0  0  0  0
 25 91  1  0  0  0  0
 42 92  1  0  0  0  0
 42 93  1  0  0  0  0
 43 94  1  0  0  0  0
 43 95  1  0  0  0  0
 43 96  1  0  0  0  0
 44 97  1  0  0  0  0
 45 98  1  0  0  0  0
 46 99  1  0  0  0  0
 47100  1  0  0  0  0
 59101  1  0  0  0  0
 59102  1  0  0  0  0
 60103  1  0  0  0  0
 60104  1  0  0  0  0
 60105  1  0  0  0  0
 61106  1  0  0  0  0
 61107  1  0  0  0  0
 62108  1  0  0  0  0
 62109  1  0  0  0  0
 62110  1  0  0  0  0
 63111  1  0  0  0  0
 70112  1  0  0  0  0
 71113  1  0  0  0  0
 72114  1  0  0  0  0
M  END
