94

C          7.83800        2.30340       -0.37140
C          8.12990        2.22670        0.95890
C          9.18650        3.11450        1.52500
O          9.99600        3.76220        0.90170
C          8.97040        3.05970        2.97930
C          9.47440        3.65520        4.08910
S          8.69070        3.06710        5.50960
C          7.68300        1.99860        4.60310
C          7.93940        2.10630        3.27250
C          7.51090        1.48250        2.03550
C          6.87800        0.26820        1.95160
C          6.77040       -0.47260        0.75910
N          6.71910       -1.11800       -0.18930
C          6.36070       -0.37200        3.09320
N          5.90760       -0.88620        4.01420
C          6.65550        1.93980       -1.04820
C          6.49980        1.78970       -2.42100
C          7.58930        1.90720       -3.43520
C          7.63320        3.32730       -4.00440
C          5.17320        1.52190       -2.76790
Se         4.32300        1.21470       -4.43040
C          2.77690        1.04530       -3.41460
C          1.41030        0.81400       -3.60690
C          0.67280        0.69970       -4.80450
C         -0.74910        0.57370       -4.72610
N         -1.32350        0.52870       -5.91730
S         -0.16320        0.63530       -7.04580
N          1.11350        0.74290       -6.05150
C         -1.34710        0.44760       -3.45400
C         -2.66890        0.15130       -3.11080
Se        -4.30310       -0.13070       -3.95290
C         -4.93010       -0.52820       -2.20430
C         -6.16680       -0.92760       -1.72130
C         -7.36040       -1.06220       -2.60860
C         -8.19390        0.22140       -2.59820
C         -6.14440       -1.12190       -0.32700
S         -4.54910       -0.79660        0.35250
C         -3.93930       -0.40980       -1.21090
C         -2.69420       -0.02860       -1.72040
N         -1.43910        0.16550       -1.20660
C         -0.58980        0.48280       -2.24540
C          0.79580        0.79220       -2.32310
N          1.77490        1.04770       -1.37560
C          2.96690        1.20570       -2.03630
C          4.29090        1.48200       -1.67910
S          5.12000        1.77710       -0.19650
C          1.65350        1.61350       -0.04970
C          1.37610        3.11420       -0.12410
C         -1.16030       -0.21130        0.16070
C         -1.56030        0.88110        1.15190
C         -7.25910       -1.52140        0.41180
C         -7.39980       -1.79020        1.75440
C         -6.34400       -1.76450        2.76190
O         -5.19900       -1.37150        2.63520
C         -6.93530       -2.35220        3.98540
C         -6.31640       -2.65460        5.18480
Cl        -4.70110       -2.20180        5.49370
C         -7.05080       -3.35940        6.14930
Cl        -6.34020       -3.72900        7.66010
C         -8.34120       -3.79930        5.86040
Cl        -9.17770       -4.74990        7.01060
C         -8.96230       -3.49140        4.63820
Cl       -10.47610       -4.21800        4.28960
C         -8.27730       -2.69840        3.72730
C         -8.63600       -2.17350        2.41050
C         -9.90070       -1.88080        1.96960
C        -11.07540       -1.89880        2.75290
N        -12.06460       -1.77510        3.32120
C        -10.19660       -1.33200        0.70290
N        -10.52010       -0.89100       -0.30720
H          8.58920        2.80600       -0.97270
H         10.24920        4.39100        4.16870
H          6.97180        1.38020        5.11330
H          8.55240        1.64730       -2.99650
H          7.37730        1.20400       -4.24600
H          8.41250        3.40340       -4.75760
H          7.83770        4.05090       -3.21840
H          6.67860        3.57580       -4.46520
H         -7.00020       -1.24530       -3.62630
H         -7.98340       -1.90600       -2.30950
H         -8.60510        0.40730       -1.60940
H         -7.57900        1.06990       -2.89060
H         -9.01930        0.13000       -3.29800
H          0.87180        1.12120        0.51620
H          2.60370        1.43740        0.46190
H          1.29780        3.52560        0.87830
H          2.18190        3.62470       -0.64650
H          0.44610        3.30350       -0.65730
H         -0.10800       -0.48760        0.24320
H         -1.75010       -1.10740        0.37990
H         -1.13970        1.84540        0.87790
H         -1.22140        0.61480        2.14900
H         -2.64220        0.97740        1.17830
H         -8.14500       -1.66860       -0.19190
