
  xtb     02112204373D
 energy: -180.894161719628 gnorm: 0.000469019387 xtb: 6.4.1 (unknown)
 91101  0     0  0            999 V2000
   -0.8340    6.4466   -4.6528 C   0  0  0  0  0  0  0  0  0  0  0  0
   -1.4922    6.7659   -5.8155 C   0  0  0  0  0  0  0  0  0  0  0  0
   -2.4106    5.9032   -6.5824 C   0  0  0  0  0  0  0  0  0  0  0  0
   -2.7373    4.7600   -6.3312 O   0  0  0  0  0  0  0  0  0  0  0  0
   -2.8522    6.7199   -7.7210 C   0  0  0  0  0  0  0  0  0  0  0  0
   -3.6692    6.5788   -8.7939 C   0  0  0  0  0  0  0  0  0  0  0  0
   -3.6910    8.0240   -9.7374 S   0  0  0  0  0  0  0  0  0  0  0  0
   -2.5887    8.8224   -8.6773 C   0  0  0  0  0  0  0  0  0  0  0  0
   -2.2285    8.0069   -7.6490 C   0  0  0  0  0  0  0  0  0  0  0  0
   -1.3751    8.0531   -6.4775 C   0  0  0  0  0  0  0  0  0  0  0  0
   -0.6078    9.1378   -6.1289 C   0  0  0  0  0  0  0  0  0  0  0  0
    0.2538    9.2311   -5.0213 C   0  0  0  0  0  0  0  0  0  0  0  0
    0.9777    9.3735   -4.1390 N   0  0  0  0  0  0  0  0  0  0  0  0
   -0.6139   10.3144   -6.9053 C   0  0  0  0  0  0  0  0  0  0  0  0
   -0.6037   11.2818   -7.5231 N   0  0  0  0  0  0  0  0  0  0  0  0
   -0.7898    5.2698   -3.8943 C   0  0  0  0  0  0  0  0  0  0  0  0
   -1.6596    3.7937   -4.3201 S   0  0  0  0  0  0  0  0  0  0  0  0
   -0.9899    3.0377   -2.9465 C   0  0  0  0  0  0  0  0  0  0  0  0
   -1.0376    1.7879   -2.3216 C   0  0  0  0  0  0  0  0  0  0  0  0
   -1.7851    0.6460   -2.6769 C   0  0  0  0  0  0  0  0  0  0  0  0
   -1.6829   -0.5162   -1.8542 C   0  0  0  0  0  0  0  0  0  0  0  0
   -2.4420   -1.5138   -2.2822 N   0  0  0  0  0  0  0  0  0  0  0  0
   -3.2217   -1.0206   -3.6134 S   0  0  0  0  0  0  0  0  0  0  0  0
   -2.6175    0.4771   -3.6925 N   0  0  0  0  0  0  0  0  0  0  0  0
   -0.8048   -0.4849   -0.7505 C   0  0  0  0  0  0  0  0  0  0  0  0
   -0.4740   -1.5139    0.1359 C   0  0  0  0  0  0  0  0  0  0  0  0
   -0.8662   -3.1699    0.4254 S   0  0  0  0  0  0  0  0  0  0  0  0
    0.3009   -3.1995    1.7312 C   0  0  0  0  0  0  0  0  0  0  0  0
    0.6918   -4.1911    2.6390 C   0  0  0  0  0  0  0  0  0  0  0  0
    0.2284   -5.6106    2.5911 C   0  0  0  0  0  0  0  0  0  0  0  0
    0.1856   -6.1820    1.1754 C   0  0  0  0  0  0  0  0  0  0  0  0
    1.6512   -3.7050    3.5289 C   0  0  0  0  0  0  0  0  0  0  0  0
    2.0962   -2.0362    3.1848 S   0  0  0  0  0  0  0  0  0  0  0  0
    0.9462   -1.9646    1.9095 C   0  0  0  0  0  0  0  0  0  0  0  0
    0.4956   -1.0037    1.0007 C   0  0  0  0  0  0  0  0  0  0  0  0
    0.7696    0.2988    0.6845 N   0  0  0  0  0  0  0  0  0  0  0  0
   -0.0305    0.6651   -0.3905 C   0  0  0  0  0  0  0  0  0  0  0  0
   -0.1872    1.8460   -1.1785 C   0  0  0  0  0  0  0  0  0  0  0  0
    0.3214    3.1338   -1.1073 N   0  0  0  0  0  0  0  0  0  0  0  0
   -0.1435    3.8622   -2.1844 C   0  0  0  0  0  0  0  0  0  0  0  0
   -0.0192    5.1498   -2.7157 C   0  0  0  0  0  0  0  0  0  0  0  0
    0.7410    6.3057   -2.1365 C   0  0  0  0  0  0  0  0  0  0  0  0
   -0.1715    7.1768   -1.2668 C   0  0  0  0  0  0  0  0  0  0  0  0
    1.1940    3.7198   -0.1227 C   0  0  0  0  0  0  0  0  0  0  0  0
    2.6624    3.6269   -0.5451 C   0  0  0  0  0  0  0  0  0  0  0  0
    1.7118    0.9858    1.5393 C   0  0  0  0  0  0  0  0  0  0  0  0
    1.0277    1.5477    2.7859 C   0  0  0  0  0  0  0  0  0  0  0  0
    2.3483   -4.3156    4.5893 C   0  0  0  0  0  0  0  0  0  0  0  0
    2.0119   -5.3848    5.3688 C   0  0  0  0  0  0  0  0  0  0  0  0
    3.0601   -6.0798    6.1538 C   0  0  0  0  0  0  0  0  0  0  0  0
    4.1888   -5.7002    6.3522 O   0  0  0  0  0  0  0  0  0  0  0  0
    2.4372   -7.3607    6.5742 C   0  0  0  0  0  0  0  0  0  0  0  0
    3.0252   -8.4592    7.1763 C   0  0  0  0  0  0  0  0  0  0  0  0
    4.6484   -8.4226    7.6997 Cl  0  0  0  0  0  0  0  0  0  0  0  0
    2.2530   -9.6197    7.3378 C   0  0  0  0  0  0  0  0  0  0  0  0
    2.9321  -10.9938    8.0955 Cl  0  0  0  0  0  0  0  0  0  0  0  0
    0.9492   -9.6711    6.8463 C   0  0  0  0  0  0  0  0  0  0  0  0
    0.0619  -11.1279    6.9690 Cl  0  0  0  0  0  0  0  0  0  0  0  0
    0.3575   -8.5521    6.2384 C   0  0  0  0  0  0  0  0  0  0  0  0
   -1.1876   -8.7223    5.5119 Cl  0  0  0  0  0  0  0  0  0  0  0  0
    1.0894   -7.3772    6.1599 C   0  0  0  0  0  0  0  0  0  0  0  0
    0.7581   -6.0561    5.6268 C   0  0  0  0  0  0  0  0  0  0  0  0
   -0.4629   -5.4354    5.6782 C   0  0  0  0  0  0  0  0  0  0  0  0
   -0.6413   -4.0827    5.3172 C   0  0  0  0  0  0  0  0  0  0  0  0
   -0.8342   -2.9836    5.0493 N   0  0  0  0  0  0  0  0  0  0  0  0
   -1.6347   -5.9598    6.2633 C   0  0  0  0  0  0  0  0  0  0  0  0
   -2.6139   -6.2685    6.7754 N   0  0  0  0  0  0  0  0  0  0  0  0
   -0.2336    7.2492   -4.2482 H   0  0  0  0  0  0  0  0  0  0  0  0
   -4.2542    5.7320   -9.0915 H   0  0  0  0  0  0  0  0  0  0  0  0
   -2.2906    9.8293   -8.8903 H   0  0  0  0  0  0  0  0  0  0  0  0
    0.8978   -6.2236    3.1980 H   0  0  0  0  0  0  0  0  0  0  0  0
   -0.7733   -5.6740    3.0307 H   0  0  0  0  0  0  0  0  0  0  0  0
    1.1448   -6.0471    0.6811 H   0  0  0  0  0  0  0  0  0  0  0  0
   -0.5848   -5.7041    0.5780 H   0  0  0  0  0  0  0  0  0  0  0  0
   -0.0320   -7.2460    1.2235 H   0  0  0  0  0  0  0  0  0  0  0  0
    1.1634    6.9237   -2.9297 H   0  0  0  0  0  0  0  0  0  0  0  0
    1.5799    5.9534   -1.5400 H   0  0  0  0  0  0  0  0  0  0  0  0
   -0.9901    7.5781   -1.8587 H   0  0  0  0  0  0  0  0  0  0  0  0
    0.3934    8.0085   -0.8545 H   0  0  0  0  0  0  0  0  0  0  0  0
   -0.5977    6.6002   -0.4476 H   0  0  0  0  0  0  0  0  0  0  0  0
    1.0179    3.2440    0.8381 H   0  0  0  0  0  0  0  0  0  0  0  0
    0.9095    4.7675   -0.0087 H   0  0  0  0  0  0  0  0  0  0  0  0
    2.8347    4.2082   -1.4478 H   0  0  0  0  0  0  0  0  0  0  0  0
    2.9440    2.5993   -0.7670 H   0  0  0  0  0  0  0  0  0  0  0  0
    3.3060    4.0110    0.2424 H   0  0  0  0  0  0  0  0  0  0  0  0
    2.2493    1.7494    0.9882 H   0  0  0  0  0  0  0  0  0  0  0  0
    2.4482    0.2392    1.8537 H   0  0  0  0  0  0  0  0  0  0  0  0
    0.6230    0.7361    3.3852 H   0  0  0  0  0  0  0  0  0  0  0  0
    0.2068    2.2130    2.5251 H   0  0  0  0  0  0  0  0  0  0  0  0
    1.7477    2.0946    3.3881 H   0  0  0  0  0  0  0  0  0  0  0  0
    3.3295   -3.8996    4.8015 H   0  0  0  0  0  0  0  0  0  0  0  0
  1  2  2  0  0  0  0
  2  3  1  0  0  0  0
  3  4  2  0  0  0  0
  3  5  1  0  0  0  0
  5  6  2  0  0  0  0
  6  7  1  0  0  0  0
  7  8  1  0  0  0  0
  8  9  2  0  0  0  0
  9 10  1  0  0  0  0
 10 11  2  0  0  0  0
 11 12  1  0  0  0  0
 12 13  3  0  0  0  0
 11 14  1  0  0  0  0
 14 15  3  0  0  0  0
  1 16  1  0  0  0  0
 16 17  1  0  0  0  0
 17 18  1  0  0  0  0
 18 19  1  0  0  0  0
 19 20  1  0  0  0  0
 20 21  1  0  0  0  0
 21 22  2  0  0  0  0
 22 23  1  0  0  0  0
 23 24  1  0  0  0  0
 21 25  1  0  0  0  0
 25 26  1  0  0  0  0
 26 27  1  0  0  0  0
 27 28  1  0  0  0  0
 28 29  1  0  0  0  0
 29 30  1  0  0  0  0
 30 31  1  0  0  0  0
 29 32  2  0  0  0  0
 32 33  1  0  0  0  0
 33 34  1  0  0  0  0
 34 35  1  0  0  0  0
 35 36  1  0  0  0  0
 36 37  1  0  0  0  0
 37 38  1  0  0  0  0
 38 39  1  0  0  0  0
 39 40  1  0  0  0  0
 40 41  1  0  0  0  0
 41 42  1  0  0  0  0
 42 43  1  0  0  0  0
 39 44  1  0  0  0  0
 44 45  1  0  0  0  0
 36 46  1  0  0  0  0
 46 47  1  0  0  0  0
 32 48  1  0  0  0  0
 48 49  2  0  0  0  0
 49 50  1  0  0  0  0
 50 51  2  0  0  0  0
 50 52  1  0  0  0  0
 52 53  2  0  0  0  0
 53 54  1  0  0  0  0
 53 55  1  0  0  0  0
 55 56  1  0  0  0  0
 55 57  2  0  0  0  0
 57 58  1  0  0  0  0
 57 59  1  0  0  0  0
 59 60  1  0  0  0  0
 59 61  2  0  0  0  0
 61 62  1  0  0  0  0
 62 63  2  0  0  0  0
 63 64  1  0  0  0  0
 64 65  3  0  0  0  0
 63 66  1  0  0  0  0
 66 67  3  0  0  0  0
 10  2  1  0  0  0  0
 41 16  2  0  0  0  0
 62 49  1  0  0  0  0
  9  5  1  0  0  0  0
 40 18  2  0  0  0  0
 61 52  1  0  0  0  0
 38 19  2  0  0  0  0
 24 20  2  0  0  0  0
 37 25  2  0  0  0  0
 35 26  2  0  0  0  0
 34 28  2  0  0  0  0
  1 68  1  0  0  0  0
  6 69  1  0  0  0  0
  8 70  1  0  0  0  0
 30 71  1  0  0  0  0
 30 72  1  0  0  0  0
 31 73  1  0  0  0  0
 31 74  1  0  0  0  0
 31 75  1  0  0  0  0
 42 76  1  0  0  0  0
 42 77  1  0  0  0  0
 43 78  1  0  0  0  0
 43 79  1  0  0  0  0
 43 80  1  0  0  0  0
 44 81  1  0  0  0  0
 44 82  1  0  0  0  0
 45 83  1  0  0  0  0
 45 84  1  0  0  0  0
 45 85  1  0  0  0  0
 46 86  1  0  0  0  0
 46 87  1  0  0  0  0
 47 88  1  0  0  0  0
 47 89  1  0  0  0  0
 47 90  1  0  0  0  0
 48 91  1  0  0  0  0
M  END
