
  xtb     02112201543D
 energy: -183.938056762727 gnorm: 0.000200126239 xtb: 6.4.1 (unknown)
101115  0     0  0            999 V2000
   -7.9086   -4.0238   -4.2777 C   0  0  0  0  0  0  0  0  0  0  0  0
   -8.8372   -4.8542   -3.7160 C   0  0  0  0  0  0  0  0  0  0  0  0
   -8.6455   -5.5445   -2.4095 C   0  0  0  0  0  0  0  0  0  0  0  0
   -7.6564   -5.5344   -1.7106 O   0  0  0  0  0  0  0  0  0  0  0  0
   -9.9632   -6.1105   -2.0883 C   0  0  0  0  0  0  0  0  0  0  0  0
  -10.5168   -6.8359   -1.0847 C   0  0  0  0  0  0  0  0  0  0  0  0
  -12.1907   -7.1240   -1.3905 S   0  0  0  0  0  0  0  0  0  0  0  0
  -12.1462   -6.2523   -2.8785 C   0  0  0  0  0  0  0  0  0  0  0  0
  -10.8967   -5.7705   -3.1203 C   0  0  0  0  0  0  0  0  0  0  0  0
  -10.2161   -4.9976   -4.1393 C   0  0  0  0  0  0  0  0  0  0  0  0
  -10.7866   -4.5586   -5.3065 C   0  0  0  0  0  0  0  0  0  0  0  0
  -10.1093   -3.8686   -6.3294 C   0  0  0  0  0  0  0  0  0  0  0  0
   -9.6042   -3.3166   -7.2009 N   0  0  0  0  0  0  0  0  0  0  0  0
  -12.1476   -4.7928   -5.5868 C   0  0  0  0  0  0  0  0  0  0  0  0
  -13.2564   -4.9754   -5.8208 N   0  0  0  0  0  0  0  0  0  0  0  0
   -6.5240   -3.9982   -3.9861 C   0  0  0  0  0  0  0  0  0  0  0  0
   -5.6124   -5.0291   -3.7960 C   0  0  0  0  0  0  0  0  0  0  0  0
   -5.8934   -6.4852   -3.9874 C   0  0  0  0  0  0  0  0  0  0  0  0
   -5.5045   -7.3265   -2.7724 C   0  0  0  0  0  0  0  0  0  0  0  0
   -4.3252   -4.5231   -3.5678 C   0  0  0  0  0  0  0  0  0  0  0  0
   -4.2390   -3.1235   -3.5829 C   0  0  0  0  0  0  0  0  0  0  0  0
   -5.7602   -2.4067   -3.9491 S   0  0  0  0  0  0  0  0  0  0  0  0
   -2.9518   -2.6745   -3.2815 C   0  0  0  0  0  0  0  0  0  0  0  0
   -2.0632   -3.7357   -3.0593 C   0  0  0  0  0  0  0  0  0  0  0  0
   -2.7908   -5.2931   -3.2299 S   0  0  0  0  0  0  0  0  0  0  0  0
   -0.8185   -3.1740   -2.7272 C   0  0  0  0  0  0  0  0  0  0  0  0
    0.4648   -3.7231   -2.5029 C   0  0  0  0  0  0  0  0  0  0  0  0
    0.8366   -4.9922   -2.5528 N   0  0  0  0  0  0  0  0  0  0  0  0
    2.4325   -5.0735   -2.2976 S   0  0  0  0  0  0  0  0  0  0  0  0
    2.7145   -3.4920   -2.1084 N   0  0  0  0  0  0  0  0  0  0  0  0
    1.5702   -2.8398   -2.2354 C   0  0  0  0  0  0  0  0  0  0  0  0
    1.3228   -1.4580   -2.0636 C   0  0  0  0  0  0  0  0  0  0  0  0
    2.1167   -0.3955   -1.5985 C   0  0  0  0  0  0  0  0  0  0  0  0
    3.7326   -0.1129   -1.0449 S   0  0  0  0  0  0  0  0  0  0  0  0
    3.2676    1.5074   -0.5867 C   0  0  0  0  0  0  0  0  0  0  0  0
    3.9131    2.5261    0.1107 C   0  0  0  0  0  0  0  0  0  0  0  0
    3.1057    3.6311    0.2903 C   0  0  0  0  0  0  0  0  0  0  0  0
    1.5302    3.4236   -0.4539 S   0  0  0  0  0  0  0  0  0  0  0  0
    1.9365    1.8142   -0.9078 C   0  0  0  0  0  0  0  0  0  0  0  0
    1.2760    0.7167   -1.4636 C   0  0  0  0  0  0  0  0  0  0  0  0
   -0.0057    0.3959   -1.8372 N   0  0  0  0  0  0  0  0  0  0  0  0
   -1.1096    1.0933   -1.2020 C   0  0  0  0  0  0  0  0  0  0  0  0
   -1.1049    0.8706    0.3102 C   0  0  0  0  0  0  0  0  0  0  0  0
    0.0129   -0.9326   -2.2230 C   0  0  0  0  0  0  0  0  0  0  0  0
   -1.0160   -1.7681   -2.7044 C   0  0  0  0  0  0  0  0  0  0  0  0
   -2.3099   -1.4750   -3.0912 N   0  0  0  0  0  0  0  0  0  0  0  0
   -2.7431   -0.2793   -3.7868 C   0  0  0  0  0  0  0  0  0  0  0  0
   -2.8347   -0.5174   -5.2938 C   0  0  0  0  0  0  0  0  0  0  0  0
    3.3941    4.8275    0.9973 C   0  0  0  0  0  0  0  0  0  0  0  0
    4.1611    4.9327    2.1123 C   0  0  0  0  0  0  0  0  0  0  0  0
    4.7008    6.2508    2.5428 C   0  0  0  0  0  0  0  0  0  0  0  0
    4.3855    7.3360    2.1099 O   0  0  0  0  0  0  0  0  0  0  0  0
    5.7215    5.9403    3.5613 C   0  0  0  0  0  0  0  0  0  0  0  0
    6.5721    6.8397    4.2022 C   0  0  0  0  0  0  0  0  0  0  0  0
    7.4235    6.2570    5.1099 C   0  0  0  0  0  0  0  0  0  0  0  0
    7.4388    4.8773    5.3594 C   0  0  0  0  0  0  0  0  0  0  0  0
    6.6055    3.9782    4.7388 C   0  0  0  0  0  0  0  0  0  0  0  0
    5.7225    4.5523    3.8191 C   0  0  0  0  0  0  0  0  0  0  0  0
    4.6590    3.9311    3.0348 C   0  0  0  0  0  0  0  0  0  0  0  0
    4.0688    2.7277    3.3224 C   0  0  0  0  0  0  0  0  0  0  0  0
    2.8581    2.2723    2.7609 C   0  0  0  0  0  0  0  0  0  0  0  0
    1.8440    1.8632    2.4090 N   0  0  0  0  0  0  0  0  0  0  0  0
    4.5366    1.8305    4.3048 C   0  0  0  0  0  0  0  0  0  0  0  0
    4.8768    1.0519    5.0768 N   0  0  0  0  0  0  0  0  0  0  0  0
    8.5418    4.9923    6.3811 C   0  0  0  0  0  0  0  0  0  0  0  0
    9.9566    4.5789    5.9240 C   0  0  0  0  0  0  0  0  0  0  0  0
   10.8687    5.2374    6.9338 C   0  0  0  0  0  0  0  0  0  0  0  0
   10.8537    6.5433    6.6997 C   0  0  0  0  0  0  0  0  0  0  0  0
    9.9314    6.7898    5.5274 C   0  0  0  0  0  0  0  0  0  0  0  0
   10.1787    5.5071    4.7229 C   0  0  0  0  0  0  0  0  0  0  0  0
    8.5238    6.5302    6.1052 C   0  0  0  0  0  0  0  0  0  0  0  0
   -8.2514   -3.2632   -4.9706 H   0  0  0  0  0  0  0  0  0  0  0  0
  -10.0575   -7.2229   -0.1973 H   0  0  0  0  0  0  0  0  0  0  0  0
  -13.0409   -6.1547   -3.4600 H   0  0  0  0  0  0  0  0  0  0  0  0
   -6.9499   -6.6286   -4.2164 H   0  0  0  0  0  0  0  0  0  0  0  0
   -5.3112   -6.8219   -4.8519 H   0  0  0  0  0  0  0  0  0  0  0  0
   -4.4343   -7.2713   -2.5929 H   0  0  0  0  0  0  0  0  0  0  0  0
   -5.7744   -8.3653   -2.9451 H   0  0  0  0  0  0  0  0  0  0  0  0
   -6.0260   -6.9686   -1.8897 H   0  0  0  0  0  0  0  0  0  0  0  0
    4.9303    2.4771    0.4554 H   0  0  0  0  0  0  0  0  0  0  0  0
   -2.0523    0.7284   -1.6024 H   0  0  0  0  0  0  0  0  0  0  0  0
   -1.0079    2.1593   -1.4265 H   0  0  0  0  0  0  0  0  0  0  0  0
   -1.1894   -0.1914    0.5312 H   0  0  0  0  0  0  0  0  0  0  0  0
   -1.9516    1.3869    0.7537 H   0  0  0  0  0  0  0  0  0  0  0  0
   -0.1945    1.2472    0.7680 H   0  0  0  0  0  0  0  0  0  0  0  0
   -3.7220    0.0221   -3.4000 H   0  0  0  0  0  0  0  0  0  0  0  0
   -2.0162    0.5122   -3.6090 H   0  0  0  0  0  0  0  0  0  0  0  0
   -3.0978    0.4118   -5.7912 H   0  0  0  0  0  0  0  0  0  0  0  0
   -3.5933   -1.2586   -5.5282 H   0  0  0  0  0  0  0  0  0  0  0  0
   -1.8772   -0.8614   -5.6789 H   0  0  0  0  0  0  0  0  0  0  0  0
    2.9913    5.7533    0.6002 H   0  0  0  0  0  0  0  0  0  0  0  0
    6.5266    7.8952    3.9848 H   0  0  0  0  0  0  0  0  0  0  0  0
    6.6277    2.9193    4.9364 H   0  0  0  0  0  0  0  0  0  0  0  0
    8.2971    4.6387    7.3807 H   0  0  0  0  0  0  0  0  0  0  0  0
   10.0902    3.5122    5.7660 H   0  0  0  0  0  0  0  0  0  0  0  0
   11.3699    4.7090    7.7233 H   0  0  0  0  0  0  0  0  0  0  0  0
   11.3400    7.3239    7.2547 H   0  0  0  0  0  0  0  0  0  0  0  0
   10.0432    7.7374    5.0075 H   0  0  0  0  0  0  0  0  0  0  0  0
   11.1970    5.4504    4.3419 H   0  0  0  0  0  0  0  0  0  0  0  0
    9.4754    5.3529    3.9065 H   0  0  0  0  0  0  0  0  0  0  0  0
    8.2680    7.2027    6.9217 H   0  0  0  0  0  0  0  0  0  0  0  0
  1  2  2  0  0  0  0
  2  3  1  0  0  0  0
  3  4  2  0  0  0  0
  3  5  1  0  0  0  0
  5  6  2  0  0  0  0
  6  7  1  0  0  0  0
  7  8  1  0  0  0  0
  8  9  2  0  0  0  0
  9 10  1  0  0  0  0
 10 11  2  0  0  0  0
 11 12  1  0  0  0  0
 12 13  3  0  0  0  0
 11 14  1  0  0  0  0
 14 15  3  0  0  0  0
  1 16  1  0  0  0  0
 16 17  2  0  0  0  0
 17 18  1  0  0  0  0
 18 19  1  0  0  0  0
 17 20  1  0  0  0  0
 20 21  2  0  0  0  0
 21 22  1  0  0  0  0
 21 23  1  0  0  0  0
 23 24  2  0  0  0  0
 24 25  1  0  0  0  0
 24 26  1  0  0  0  0
 26 27  1  0  0  0  0
 27 28  2  0  0  0  0
 28 29  1  0  0  0  0
 29 30  1  0  0  0  0
 30 31  2  0  0  0  0
 31 32  1  0  0  0  0
 32 33  1  0  0  0  0
 33 34  1  0  0  0  0
 34 35  1  0  0  0  0
 35 36  1  0  0  0  0
 36 37  2  0  0  0  0
 37 38  1  0  0  0  0
 38 39  1  0  0  0  0
 39 40  1  0  0  0  0
 40 41  1  0  0  0  0
 41 42  1  0  0  0  0
 42 43  1  0  0  0  0
 41 44  1  0  0  0  0
 44 45  1  0  0  0  0
 45 46  1  0  0  0  0
 46 47  1  0  0  0  0
 47 48  1  0  0  0  0
 37 49  1  0  0  0  0
 49 50  2  0  0  0  0
 50 51  1  0  0  0  0
 51 52  2  0  0  0  0
 51 53  1  0  0  0  0
 53 54  2  0  0  0  0
 54 55  1  0  0  0  0
 55 56  2  0  0  0  0
 56 57  1  0  0  0  0
 57 58  2  0  0  0  0
 58 59  1  0  0  0  0
 59 60  2  0  0  0  0
 60 61  1  0  0  0  0
 61 62  3  0  0  0  0
 60 63  1  0  0  0  0
 63 64  3  0  0  0  0
 56 65  1  0  0  0  0
 65 66  1  0  0  0  0
 66 67  1  0  0  0  0
 67 68  2  0  0  0  0
 68 69  1  0  0  0  0
 69 70  1  0  0  0  0
 69 71  1  0  0  0  0
 10  2  1  0  0  0  0
 22 16  1  0  0  0  0
 46 23  1  0  0  0  0
 59 50  1  0  0  0  0
 71 65  1  0  0  0  0
  9  5  1  0  0  0  0
 25 20  1  0  0  0  0
 45 26  2  0  0  0  0
 58 53  1  0  0  0  0
 70 66  1  0  0  0  0
 31 27  1  0  0  0  0
 44 32  2  0  0  0  0
 71 55  1  0  0  0  0
 40 33  2  0  0  0  0
 39 35  2  0  0  0  0
  1 72  1  0  0  0  0
  6 73  1  0  0  0  0
  8 74  1  0  0  0  0
 18 75  1  0  0  0  0
 18 76  1  0  0  0  0
 19 77  1  0  0  0  0
 19 78  1  0  0  0  0
 19 79  1  0  0  0  0
 36 80  1  0  0  0  0
 42 81  1  0  0  0  0
 42 82  1  0  0  0  0
 43 83  1  0  0  0  0
 43 84  1  0  0  0  0
 43 85  1  0  0  0  0
 47 86  1  0  0  0  0
 47 87  1  0  0  0  0
 48 88  1  0  0  0  0
 48 89  1  0  0  0  0
 48 90  1  0  0  0  0
 49 91  1  0  0  0  0
 54 92  1  0  0  0  0
 57 93  1  0  0  0  0
 65 94  1  0  0  0  0
 66 95  1  0  0  0  0
 67 96  1  0  0  0  0
 68 97  1  0  0  0  0
 69 98  1  0  0  0  0
 70 99  1  0  0  0  0
 70100  1  0  0  0  0
 71101  1  0  0  0  0
M  END
