111

C         -1.14370       -4.35070        6.85100
C         -1.48000       -5.63800        6.54720
C         -0.99120       -6.74960        7.41180
O         -0.48910       -6.64810        8.50730
C         -1.20890       -7.96250        6.60610
C         -0.94150       -9.28870        6.70160
S         -1.51710      -10.13200        5.30990
C         -2.13650       -8.68710        4.59730
C         -1.89580       -7.61380        5.39590
C         -2.18870       -6.19390        5.41470
C         -3.16200       -5.58720        4.66050
C         -3.80410       -6.25940        3.60420
N         -4.31220       -6.78560        2.71910
C         -3.66030       -4.29740        4.92190
N         -4.12280       -3.27010        5.14650
C         -1.10230       -3.22440        6.00530
C         -1.04390       -1.89930        6.43440
C         -1.19110       -1.53920        7.84860
C         -2.36420       -1.92180        8.49530
C         -2.56520       -1.61410        9.82670
C         -1.58570       -0.92980       10.52550
C         -0.41360       -0.56290        9.88900
C         -0.19340       -0.85470        8.54980
C          1.12870       -0.52040        7.91900
C          2.00240       -1.76980        7.78720
C         -0.94570       -1.01430        5.35520
S         -0.93580        0.73180        5.23640
C         -0.83410        0.59170        3.51660
C         -0.78280        1.41710        2.38270
C         -0.87630        2.81920        2.23410
C         -0.85860        3.38090        0.91320
N         -1.00500        4.69600        0.92240
S         -1.14960        5.18700        2.45790
N         -1.02750        3.74000        3.17250
C         -0.60620        2.53060       -0.18750
C         -0.29960        2.81460       -1.52420
S         -0.17480        4.18740       -2.56980
C          0.45440        3.13210       -3.82080
C          0.90160        3.36860       -5.11360
C          0.87750        4.66190       -5.81230
C          1.73650        5.70610       -5.46480
C          2.79150        5.53730       -4.40920
C          4.00870        4.81070       -4.98640
C          1.66240        6.88980       -6.18620
C          0.76220        7.04690       -7.22310
C         -0.08520        6.00720       -7.56410
C         -0.02240        4.81900       -6.86360
C          1.35600        2.18720       -5.72810
S          1.17570        0.78020       -4.68710
C          0.53720        1.78070       -3.43450
C          0.08590        1.60650       -2.12340
N         -0.01140        0.58730       -1.21420
C         -0.44850        1.12310       -0.02150
C         -0.68330        0.55420        1.25490
N         -0.73970       -0.76050        1.68940
C         -0.81460       -0.73170        3.05920
C         -0.88720       -1.65000        4.10640
S         -0.94750       -3.36530        4.25610
C         -1.27690       -1.91450        0.99650
C         -2.77220       -2.07840        1.27030
C          0.57340       -0.70390       -1.49890
C         -0.29770       -1.53370       -2.44280
C          1.97750        2.20950       -6.97940
C          2.52320        1.19480       -7.72660
C          2.44580       -0.24060       -7.41750
O          1.95680       -0.75830       -6.42770
C          3.07060       -0.91860       -8.55950
C          3.32420       -2.19180       -8.95240
S          4.13090       -2.21050      -10.47780
C          4.12870       -0.48790      -10.58490
C          3.53090        0.06450       -9.49520
C          3.22360        1.38620       -8.98170
C          3.59620        2.56160       -9.58360
C          3.38470        3.85880       -9.07850
N          3.26570        4.94310       -8.71700
C          4.29180        2.55860      -10.80970
N          4.85470        2.56700      -11.81000
H         -0.78640       -4.18770        7.86400
H         -0.45250       -9.82470        7.48990
H         -2.62050       -8.73240        3.64230
H         -3.12460       -2.44450        7.93310
H         -3.48050       -1.91020       10.31600
H         -1.73100       -0.68740       11.56760
H          0.35360       -0.04130       10.44320
H          0.98300       -0.07780        6.93340
H          1.64620        0.21250        8.54020
H          2.97310       -1.50870        7.37210
H          1.53390       -2.50130        7.13250
H          2.15430       -2.23080        8.76050
H          3.09980        6.52040       -4.04980
H          2.40200        4.97490       -3.55950
H          4.36160        5.32100       -5.87960
H          4.81450        4.78180       -4.25650
H          3.75360        3.78870       -5.25880
H          2.33250        7.69830       -5.93300
H          0.72790        7.97570       -7.77180
H         -0.78720        6.11690       -8.37680
H         -0.67770        3.99840       -7.12130
H         -0.73550       -2.79960        1.34550
H         -1.13100       -1.80270       -0.07130
H         -3.14740       -2.94430        0.73170
H         -2.96840       -2.22390        2.32930
H         -3.31510       -1.19630        0.93730
H          1.53990       -0.52990       -1.98460
H          0.76420       -1.21990       -0.55720
H         -1.33510       -1.55720       -2.11510
H          0.07970       -2.55100       -2.49260
H         -0.27100       -1.11250       -3.44370
H          2.04140        3.20680       -7.39970
H          3.09450       -3.11220       -8.45410
H          4.56440       -0.01320      -11.44100
