107

C         -5.25290       -6.68330       -5.08450
C         -5.48460       -6.14090       -6.32710
C         -4.99220       -4.84440       -6.81470
O         -4.30650       -4.03670       -6.21120
C         -5.49670       -4.72430       -8.18770
C         -5.43410       -3.82720       -9.20290
S         -6.30790       -4.39900      -10.57690
C         -6.76000       -5.85930       -9.77540
C         -6.25750       -5.89390       -8.51180
C         -6.26140       -6.78680       -7.36820
C         -6.89650       -8.00380       -7.34270
C         -6.92670       -8.90440       -6.26250
N         -6.98780       -9.68190       -5.41770
C         -7.60830       -8.47660       -8.46370
N         -8.19580       -8.87430       -9.36620
C         -4.52720       -6.20520       -3.99190
C         -4.39260       -6.91970       -2.78840
C         -5.04080       -8.22710       -2.46960
C         -6.47730       -8.01450       -1.98600
C         -3.61380       -6.23380       -1.86810
Se        -3.04840       -6.66010       -0.10590
C         -2.17150       -5.02320       -0.18770
C         -1.32580       -4.24900        0.61020
C         -0.75560       -4.55050        1.86470
C          0.19100       -3.63750        2.42110
N          0.69100       -4.05740        3.57240
S          0.01680       -5.48990        3.92510
N         -0.93550       -5.62330        2.61840
C          0.44190       -2.42830        1.74010
C          1.23790       -1.34430        2.12230
Se         2.39630       -0.87840        3.49320
C          2.54810        0.78340        2.59030
C          3.22850        1.97890        2.87340
C          4.19950        2.16900        3.98970
C          5.06340        0.94460        4.27030
C          2.96530        2.95010        1.91220
S          1.92970        2.34520        0.62220
C          1.77530        0.82540        1.41930
C          1.05800       -0.35000        1.15610
N          0.20420       -0.79850        0.18170
C         -0.19020       -2.08570        0.51120
C         -1.02060       -3.05910       -0.11380
N         -1.65870       -3.13940       -1.33860
C         -2.34420       -4.32540       -1.39020
C         -3.13740       -4.99340       -2.33140
S         -3.66360       -4.66840       -3.94140
C         -1.45130       -2.38060       -2.55140
C         -0.02270       -2.53630       -3.06760
C         -0.38000        0.13950       -0.74970
C         -1.83560        0.43900       -0.39850
C          3.45260        4.26430        1.75060
C          3.74710        5.16910        2.73320
C          3.19640        5.14240        4.10570
O          2.49460        4.28660        4.60700
C          3.56310        6.43800        4.70910
C          3.25190        6.87690        5.99350
C          3.71700        8.13740        6.28250
C          4.42430        8.91440        5.35530
C          4.73020        8.49750        4.08190
C          4.27930        7.21090        3.77310
C          4.42660        6.43510        2.54580
C          5.15910        6.79930        1.44530
C          5.37380        5.98030        0.31700
N          5.61340        5.36280       -0.62150
C          5.83080        8.03080        1.30340
N          6.39270        9.01480        1.11720
C          4.58030       10.06480        6.31800
C          5.95910       10.25240        6.99760
C          6.60690        8.89050        7.03480
C          5.94370        8.15090        7.91360
C          4.83560        8.99930        8.48660
C          5.51160       10.37950        8.46250
C          3.79810        9.19630        7.35320
H         -5.70140       -7.65190       -4.90840
H         -4.93860       -2.87780       -9.23740
H         -7.35990       -6.57960      -10.29430
H         -5.04210       -8.89290       -3.33370
H         -4.46290       -8.70270       -1.67060
H         -6.48620       -7.38140       -1.10110
H         -7.07770       -7.54110       -2.75930
H         -6.92840       -8.97080       -1.73790
H          4.84020        3.02150        3.74930
H          3.63590        2.43620        4.88960
H          5.51450        0.57200        3.35290
H          4.47950        0.14300        4.72350
H          5.85770        1.21130        4.96300
H         -2.14500       -2.77840       -3.29520
H         -1.71470       -1.33470       -2.39690
H          0.11450       -1.93680       -3.96320
H          0.70510       -2.22820       -2.31990
H          0.16840       -3.57730       -3.31740
H          0.20280        1.06030       -0.67620
H         -0.27670       -0.22170       -1.77240
H         -2.43260       -0.47020       -0.38160
H         -1.89230        0.89940        0.58520
H         -2.25920        1.12600       -1.12610
H          3.55020        4.58650        0.71980
H          2.69660        6.25020        6.67370
H          5.26700        9.10940        3.37630
H          4.13800       11.00930        6.00770
H          6.55970       11.05840        6.58480
H          7.41930        8.59660        6.39630
H          6.09140        7.11480        8.15640
H          4.41410        8.66470        9.43100
H          6.34960       10.45020        9.15420
H          4.82120       11.20400        8.63540
H          2.84750        9.57560        7.72330
