
  xtb     01272209543D
 energy: -180.698242907038 gnorm: 0.000278133696 xtb: 6.4.1 (unknown)
 94105  0     0  0            999 V2000
    1.2533   -2.0023    8.0384 C   0  0  0  0  0  0  0  0  0  0  0  0
    0.0151   -1.8784    8.5960 C   0  0  0  0  0  0  0  0  0  0  0  0
   -0.1100   -1.7073   10.0725 C   0  0  0  0  0  0  0  0  0  0  0  0
    0.7586   -1.8820   10.8958 O   0  0  0  0  0  0  0  0  0  0  0  0
   -1.4890   -1.2343   10.2709 C   0  0  0  0  0  0  0  0  0  0  0  0
   -2.2619   -0.8062   11.3003 C   0  0  0  0  0  0  0  0  0  0  0  0
   -3.8444   -0.3949   10.7488 S   0  0  0  0  0  0  0  0  0  0  0  0
   -3.4681   -0.8161    9.1181 C   0  0  0  0  0  0  0  0  0  0  0  0
   -2.1809   -1.2412    9.0142 C   0  0  0  0  0  0  0  0  0  0  0  0
   -1.2986   -1.7743    7.9946 C   0  0  0  0  0  0  0  0  0  0  0  0
   -1.7190   -2.3149    6.8059 C   0  0  0  0  0  0  0  0  0  0  0  0
   -0.9101   -3.1237    5.9850 C   0  0  0  0  0  0  0  0  0  0  0  0
   -0.2896   -3.8325    5.3280 N   0  0  0  0  0  0  0  0  0  0  0  0
   -3.0443   -2.1625    6.3569 C   0  0  0  0  0  0  0  0  0  0  0  0
   -4.1129   -2.0136    5.9647 N   0  0  0  0  0  0  0  0  0  0  0  0
    1.6547   -1.7664    6.7074 C   0  0  0  0  0  0  0  0  0  0  0  0
    2.8096   -2.2421    6.0962 C   0  0  0  0  0  0  0  0  0  0  0  0
    3.7590   -3.2077    6.7196 C   0  0  0  0  0  0  0  0  0  0  0  0
    3.1878   -4.6269    6.6624 C   0  0  0  0  0  0  0  0  0  0  0  0
    2.9015   -1.8064    4.7717 C   0  0  0  0  0  0  0  0  0  0  0  0
    4.0566   -2.1381    3.5024 S   0  0  0  0  0  0  0  0  0  0  0  0
    3.1107   -1.1751    2.4247 C   0  0  0  0  0  0  0  0  0  0  0  0
    3.0598   -0.8607    1.0592 C   0  0  0  0  0  0  0  0  0  0  0  0
    3.8180   -1.3264   -0.0398 C   0  0  0  0  0  0  0  0  0  0  0  0
    3.3519   -1.0570   -1.3717 C   0  0  0  0  0  0  0  0  0  0  0  0
    4.1064   -1.6307   -2.2952 N   0  0  0  0  0  0  0  0  0  0  0  0
    5.3029   -2.4326   -1.5578 S   0  0  0  0  0  0  0  0  0  0  0  0
    4.9034   -2.0832   -0.0293 N   0  0  0  0  0  0  0  0  0  0  0  0
    2.2280   -0.2184   -1.5477 C   0  0  0  0  0  0  0  0  0  0  0  0
    1.5608    0.2429   -2.6930 C   0  0  0  0  0  0  0  0  0  0  0  0
    1.5655   -0.0082   -4.4022 S   0  0  0  0  0  0  0  0  0  0  0  0
    0.2092    1.0875   -4.5512 C   0  0  0  0  0  0  0  0  0  0  0  0
   -0.6162    1.4376   -5.6262 C   0  0  0  0  0  0  0  0  0  0  0  0
   -0.3554    1.0387   -7.0420 C   0  0  0  0  0  0  0  0  0  0  0  0
    1.0700    1.3784   -7.4779 C   0  0  0  0  0  0  0  0  0  0  0  0
   -1.6475    2.2778   -5.2122 C   0  0  0  0  0  0  0  0  0  0  0  0
   -1.5295    2.6915   -3.5023 S   0  0  0  0  0  0  0  0  0  0  0  0
   -0.1817    1.6405   -3.3223 C   0  0  0  0  0  0  0  0  0  0  0  0
    0.5806    1.1464   -2.2632 C   0  0  0  0  0  0  0  0  0  0  0  0
    0.6048    1.2515   -0.8965 N   0  0  0  0  0  0  0  0  0  0  0  0
    1.5774    0.3845   -0.4346 C   0  0  0  0  0  0  0  0  0  0  0  0
    1.9021   -0.0550    0.8710 C   0  0  0  0  0  0  0  0  0  0  0  0
    1.2522    0.0836    2.0823 N   0  0  0  0  0  0  0  0  0  0  0  0
    1.9783   -0.6012    3.0210 C   0  0  0  0  0  0  0  0  0  0  0  0
    1.8553   -0.9675    4.3627 C   0  0  0  0  0  0  0  0  0  0  0  0
    0.7309   -0.7073    5.6428 S   0  0  0  0  0  0  0  0  0  0  0  0
   -0.1258    0.4407    2.3481 C   0  0  0  0  0  0  0  0  0  0  0  0
   -0.2437    1.6731    3.2432 C   0  0  0  0  0  0  0  0  0  0  0  0
    0.1078    2.4484   -0.2529 C   0  0  0  0  0  0  0  0  0  0  0  0
    0.8152    3.6957   -0.7827 C   0  0  0  0  0  0  0  0  0  0  0  0
   -2.7344    2.8341   -5.9165 C   0  0  0  0  0  0  0  0  0  0  0  0
   -3.4371    2.3349   -6.9774 C   0  0  0  0  0  0  0  0  0  0  0  0
   -4.2858    3.2495   -7.7804 C   0  0  0  0  0  0  0  0  0  0  0  0
   -4.5566    4.4009   -7.5299 O   0  0  0  0  0  0  0  0  0  0  0  0
   -4.6863    2.4623   -8.9699 C   0  0  0  0  0  0  0  0  0  0  0  0
   -5.4081    2.8733  -10.0728 C   0  0  0  0  0  0  0  0  0  0  0  0
   -5.6375    1.9437  -11.0748 C   0  0  0  0  0  0  0  0  0  0  0  0
   -6.3316    2.2994  -12.1624 F   0  0  0  0  0  0  0  0  0  0  0  0
   -5.1499    0.6412  -10.9636 C   0  0  0  0  0  0  0  0  0  0  0  0
   -5.3746   -0.2304  -11.9528 F   0  0  0  0  0  0  0  0  0  0  0  0
   -4.4338    0.2244   -9.8512 C   0  0  0  0  0  0  0  0  0  0  0  0
   -4.2038    1.1477   -8.8444 C   0  0  0  0  0  0  0  0  0  0  0  0
   -3.5346    1.0124   -7.5491 C   0  0  0  0  0  0  0  0  0  0  0  0
   -3.2900   -0.1791   -6.9148 C   0  0  0  0  0  0  0  0  0  0  0  0
   -3.4630   -1.4422   -7.5169 C   0  0  0  0  0  0  0  0  0  0  0  0
   -3.5586   -2.4940   -7.9661 N   0  0  0  0  0  0  0  0  0  0  0  0
   -2.9330   -0.2948   -5.5566 C   0  0  0  0  0  0  0  0  0  0  0  0
   -2.6956   -0.4599   -4.4458 N   0  0  0  0  0  0  0  0  0  0  0  0
    2.0486   -2.2444    8.7376 H   0  0  0  0  0  0  0  0  0  0  0  0
   -2.0126   -0.7092   12.3378 H   0  0  0  0  0  0  0  0  0  0  0  0
   -4.2154   -0.7106    8.3573 H   0  0  0  0  0  0  0  0  0  0  0  0
    3.9480   -2.9328    7.7594 H   0  0  0  0  0  0  0  0  0  0  0  0
    4.7025   -3.1725    6.1716 H   0  0  0  0  0  0  0  0  0  0  0  0
    3.8924   -5.3304    7.0977 H   0  0  0  0  0  0  0  0  0  0  0  0
    2.2503   -4.6823    7.2106 H   0  0  0  0  0  0  0  0  0  0  0  0
    2.9966   -4.9147    5.6319 H   0  0  0  0  0  0  0  0  0  0  0  0
   -0.5127   -0.0404   -7.1432 H   0  0  0  0  0  0  0  0  0  0  0  0
   -1.0592    1.5492   -7.7014 H   0  0  0  0  0  0  0  0  0  0  0  0
    1.2595    2.4422   -7.3532 H   0  0  0  0  0  0  0  0  0  0  0  0
    1.8003    0.8232   -6.8966 H   0  0  0  0  0  0  0  0  0  0  0  0
    1.2009    1.1244   -8.5265 H   0  0  0  0  0  0  0  0  0  0  0  0
   -0.5953   -0.4066    2.8613 H   0  0  0  0  0  0  0  0  0  0  0  0
   -0.6454    0.5791    1.4001 H   0  0  0  0  0  0  0  0  0  0  0  0
    0.1594    1.4616    4.2298 H   0  0  0  0  0  0  0  0  0  0  0  0
    0.2979    2.5245    2.8367 H   0  0  0  0  0  0  0  0  0  0  0  0
   -1.2900    1.9435    3.3515 H   0  0  0  0  0  0  0  0  0  0  0  0
    0.2931    2.3768    0.8135 H   0  0  0  0  0  0  0  0  0  0  0  0
   -0.9685    2.5258   -0.4363 H   0  0  0  0  0  0  0  0  0  0  0  0
    0.4599    4.5696   -0.2437 H   0  0  0  0  0  0  0  0  0  0  0  0
    1.8903    3.6090   -0.6384 H   0  0  0  0  0  0  0  0  0  0  0  0
    0.6157    3.8408   -1.8405 H   0  0  0  0  0  0  0  0  0  0  0  0
   -3.0649    3.8129   -5.5793 H   0  0  0  0  0  0  0  0  0  0  0  0
   -5.7846    3.8802  -10.1566 H   0  0  0  0  0  0  0  0  0  0  0  0
   -4.0767   -0.7917   -9.8103 H   0  0  0  0  0  0  0  0  0  0  0  0
  1  2  2  0  0  0  0
  2  3  1  0  0  0  0
  3  4  2  0  0  0  0
  3  5  1  0  0  0  0
  5  6  2  0  0  0  0
  6  7  1  0  0  0  0
  7  8  1  0  0  0  0
  8  9  2  0  0  0  0
  9 10  1  0  0  0  0
 10 11  2  0  0  0  0
 11 12  1  0  0  0  0
 12 13  3  0  0  0  0
 11 14  1  0  0  0  0
 14 15  3  0  0  0  0
  1 16  1  0  0  0  0
 16 17  2  0  0  0  0
 17 18  1  0  0  0  0
 18 19  1  0  0  0  0
 17 20  1  0  0  0  0
 20 21  1  0  0  0  0
 21 22  1  0  0  0  0
 22 23  1  0  0  0  0
 23 24  1  0  0  0  0
 24 25  1  0  0  0  0
 25 26  2  0  0  0  0
 26 27  1  0  0  0  0
 27 28  1  0  0  0  0
 25 29  1  0  0  0  0
 29 30  1  0  0  0  0
 30 31  1  0  0  0  0
 31 32  1  0  0  0  0
 32 33  1  0  0  0  0
 33 34  1  0  0  0  0
 34 35  1  0  0  0  0
 33 36  2  0  0  0  0
 36 37  1  0  0  0  0
 37 38  1  0  0  0  0
 38 39  1  0  0  0  0
 39 40  1  0  0  0  0
 40 41  1  0  0  0  0
 41 42  1  0  0  0  0
 42 43  1  0  0  0  0
 43 44  1  0  0  0  0
 44 45  1  0  0  0  0
 45 46  1  0  0  0  0
 43 47  1  0  0  0  0
 47 48  1  0  0  0  0
 40 49  1  0  0  0  0
 49 50  1  0  0  0  0
 36 51  1  0  0  0  0
 51 52  2  0  0  0  0
 52 53  1  0  0  0  0
 53 54  2  0  0  0  0
 53 55  1  0  0  0  0
 55 56  2  0  0  0  0
 56 57  1  0  0  0  0
 57 58  1  0  0  0  0
 57 59  2  0  0  0  0
 59 60  1  0  0  0  0
 59 61  1  0  0  0  0
 61 62  2  0  0  0  0
 62 63  1  0  0  0  0
 63 64  2  0  0  0  0
 64 65  1  0  0  0  0
 65 66  3  0  0  0  0
 64 67  1  0  0  0  0
 67 68  3  0  0  0  0
 10  2  1  0  0  0  0
 46 16  1  0  0  0  0
 63 52  1  0  0  0  0
  9  5  1  0  0  0  0
 45 20  2  0  0  0  0
 62 55  1  0  0  0  0
 44 22  2  0  0  0  0
 42 23  2  0  0  0  0
 28 24  2  0  0  0  0
 41 29  2  0  0  0  0
 39 30  2  0  0  0  0
 38 32  2  0  0  0  0
  1 69  1  0  0  0  0
  6 70  1  0  0  0  0
  8 71  1  0  0  0  0
 18 72  1  0  0  0  0
 18 73  1  0  0  0  0
 19 74  1  0  0  0  0
 19 75  1  0  0  0  0
 19 76  1  0  0  0  0
 34 77  1  0  0  0  0
 34 78  1  0  0  0  0
 35 79  1  0  0  0  0
 35 80  1  0  0  0  0
 35 81  1  0  0  0  0
 47 82  1  0  0  0  0
 47 83  1  0  0  0  0
 48 84  1  0  0  0  0
 48 85  1  0  0  0  0
 48 86  1  0  0  0  0
 49 87  1  0  0  0  0
 49 88  1  0  0  0  0
 50 89  1  0  0  0  0
 50 90  1  0  0  0  0
 50 91  1  0  0  0  0
 51 92  1  0  0  0  0
 56 93  1  0  0  0  0
 61 94  1  0  0  0  0
M  END
