94

C          1.25330       -2.00230        8.03840
C          0.01510       -1.87840        8.59600
C         -0.11000       -1.70730       10.07250
O          0.75860       -1.88200       10.89580
C         -1.48900       -1.23430       10.27090
C         -2.26190       -0.80620       11.30030
S         -3.84440       -0.39490       10.74880
C         -3.46810       -0.81610        9.11810
C         -2.18090       -1.24120        9.01420
C         -1.29860       -1.77430        7.99460
C         -1.71900       -2.31490        6.80590
C         -0.91010       -3.12370        5.98500
N         -0.28960       -3.83250        5.32800
C         -3.04430       -2.16250        6.35690
N         -4.11290       -2.01360        5.96470
C          1.65470       -1.76640        6.70740
C          2.80960       -2.24210        6.09620
C          3.75900       -3.20770        6.71960
C          3.18780       -4.62690        6.66240
C          2.90150       -1.80640        4.77170
S          4.05660       -2.13810        3.50240
C          3.11070       -1.17510        2.42470
C          3.05980       -0.86070        1.05920
C          3.81800       -1.32640       -0.03980
C          3.35190       -1.05700       -1.37170
N          4.10640       -1.63070       -2.29520
S          5.30290       -2.43260       -1.55780
N          4.90340       -2.08320       -0.02930
C          2.22800       -0.21840       -1.54770
C          1.56080        0.24290       -2.69300
S          1.56550       -0.00820       -4.40220
C          0.20920        1.08750       -4.55120
C         -0.61620        1.43760       -5.62620
C         -0.35540        1.03870       -7.04200
C          1.07000        1.37840       -7.47790
C         -1.64750        2.27780       -5.21220
S         -1.52950        2.69150       -3.50230
C         -0.18170        1.64050       -3.32230
C          0.58060        1.14640       -2.26320
N          0.60480        1.25150       -0.89650
C          1.57740        0.38450       -0.43460
C          1.90210       -0.05500        0.87100
N          1.25220        0.08360        2.08230
C          1.97830       -0.60120        3.02100
C          1.85530       -0.96750        4.36270
S          0.73090       -0.70730        5.64280
C         -0.12580        0.44070        2.34810
C         -0.24370        1.67310        3.24320
C          0.10780        2.44840       -0.25290
C          0.81520        3.69570       -0.78270
C         -2.73440        2.83410       -5.91650
C         -3.43710        2.33490       -6.97740
C         -4.28580        3.24950       -7.78040
O         -4.55660        4.40090       -7.52990
C         -4.68630        2.46230       -8.96990
C         -5.40810        2.87330      -10.07280
C         -5.63750        1.94370      -11.07480
F         -6.33160        2.29940      -12.16240
C         -5.14990        0.64120      -10.96360
F         -5.37460       -0.23040      -11.95280
C         -4.43380        0.22440       -9.85120
C         -4.20380        1.14770       -8.84440
C         -3.53460        1.01240       -7.54910
C         -3.29000       -0.17910       -6.91480
C         -3.46300       -1.44220       -7.51690
N         -3.55860       -2.49400       -7.96610
C         -2.93300       -0.29480       -5.55660
N         -2.69560       -0.45990       -4.44580
H          2.04860       -2.24440        8.73760
H         -2.01260       -0.70920       12.33780
H         -4.21540       -0.71060        8.35730
H          3.94800       -2.93280        7.75940
H          4.70250       -3.17250        6.17160
H          3.89240       -5.33040        7.09770
H          2.25030       -4.68230        7.21060
H          2.99660       -4.91470        5.63190
H         -0.51270       -0.04040       -7.14320
H         -1.05920        1.54920       -7.70140
H          1.25950        2.44220       -7.35320
H          1.80030        0.82320       -6.89660
H          1.20090        1.12440       -8.52650
H         -0.59530       -0.40660        2.86130
H         -0.64540        0.57910        1.40010
H          0.15940        1.46160        4.22980
H          0.29790        2.52450        2.83670
H         -1.29000        1.94350        3.35150
H          0.29310        2.37680        0.81350
H         -0.96850        2.52580       -0.43630
H          0.45990        4.56960       -0.24370
H          1.89030        3.60900       -0.63840
H          0.61570        3.84080       -1.84050
H         -3.06490        3.81290       -5.57930
H         -5.78460        3.88020      -10.15660
H         -4.07670       -0.79170       -9.81030
