116

C          3.60750       -1.50740       -7.84090
C          4.80220       -2.15300       -7.61600
C          5.21590       -2.80760       -6.36660
O          4.58260       -2.89450       -5.32830
C          6.55870       -3.34000       -6.62800
C          7.51080       -4.03080       -5.95330
S          8.89110       -4.30240       -6.95370
C          8.17700       -3.47710       -8.29110
C          6.93660       -3.01960       -7.97190
C          5.85740       -2.28210       -8.60230
C          5.89740       -1.81250       -9.89210
C          7.02450       -2.02800      -10.71030
N          7.93410       -2.19350      -11.39090
C          4.88460       -1.08790      -10.54630
N          4.09810       -0.49300      -11.13750
C          2.52020       -1.26380       -7.00100
C          1.37590       -0.55360       -7.41280
C          1.11730       -0.04450       -8.79280
C          0.57070       -1.15900       -9.68930
C          0.46790       -0.41200       -6.37480
C          0.88200       -0.99980       -5.16440
S          2.42380       -1.75420       -5.30770
C         -0.05690       -0.78560       -4.15440
C         -1.15110       -0.02410       -4.58880
S         -1.08140        0.40410       -6.26200
C         -1.94940        0.23350       -3.46570
C         -3.05950        1.10600       -3.31070
N         -3.61770        1.70300       -4.36990
C         -4.58690        2.56740       -4.15360
C         -5.20010        3.21200       -5.35210
C         -5.02040        2.87060       -2.83870
C         -6.10470        3.86280       -2.57780
N         -4.48430        2.28140       -1.79060
C         -3.51020        1.38830       -2.00080
C         -2.92530        0.67750       -0.92000
C         -3.18650        0.72840        0.46050
S         -4.12490        1.64600        1.58420
C         -3.44320        0.71060        2.89650
C         -3.54560        0.80680        4.29330
C         -4.49990        1.71160        4.99780
C         -5.93780        1.48500        4.53170
C         -2.73610       -0.13070        4.91550
S         -1.91030       -1.18570        3.76640
C         -2.56290       -0.28450        2.45220
C         -2.40400       -0.26080        1.06490
N         -1.64800       -0.91020        0.12170
C         -1.20740       -2.26470        0.37780
C         -2.39730       -3.19870        0.59900
C         -1.92810       -0.31880       -1.09920
C         -1.33060       -0.43640       -2.37220
N         -0.17310       -1.04140       -2.81290
C          0.95560       -1.54590       -2.06290
C          1.15140       -3.04910       -2.25740
C         -2.46230       -0.34940        6.28750
C         -2.23970        0.62930        7.21150
C         -1.85350        2.02030        6.86940
O         -1.93210        2.57340        5.79290
C         -1.23290        2.56310        8.09350
C         -0.61460        3.80340        8.23120
C         -0.07410        4.02410        9.47510
C         -0.14270        3.08170       10.51030
C         -0.75680        1.85760       10.39140
C         -1.30930        1.61200        9.13140
C         -1.99570        0.42920        8.62500
C         -2.41570       -0.64950        9.35770
C         -3.17040       -1.71340        8.81950
N         -3.80550       -2.59330        8.44420
C         -2.19300       -0.81010       10.74000
N         -2.03630       -0.99840       11.86180
C          0.64020        3.95170       11.46120
C          2.12990        3.59780       11.69670
C          2.60560        2.88800       10.45340
C          2.66770        3.78180        9.47540
C          2.23480        5.11240       10.03990
C          2.76340        4.98100       11.47710
C          0.71320        5.00310       10.30940
H          3.47880       -1.10340       -8.83620
H          7.49670       -4.39530       -4.94590
H          8.72410       -3.39180       -9.20840
H          2.02550        0.36450       -9.23820
H          0.37760        0.75580       -8.72720
H          1.28610       -1.97410       -9.77000
H          0.37980       -0.76960      -10.68520
H         -0.35830       -1.55070       -9.28150
H         -4.71390        2.83500       -6.24720
H         -6.26570        2.99180       -5.39910
H         -5.08210        4.29360       -5.30490
H         -5.82900        4.84000       -2.97150
H         -7.02900        3.55320       -3.06350
H         -6.26800        3.93840       -1.50660
H         -4.43600        1.54120        6.07300
H         -4.20510        2.74530        4.80190
H         -6.60950        2.13390        5.08780
H         -6.23360        0.45250        4.70530
H         -6.04460        1.70530        3.47310
H         -0.57210       -2.25620        1.26920
H         -0.63620       -2.62610       -0.47000
H         -3.05320       -3.18450       -0.26910
H         -2.96980       -2.89960        1.47270
H         -2.04050       -4.21330        0.75230
H          1.85260       -1.03230       -2.42660
H          0.82640       -1.28350       -1.01220
H          1.91910       -3.40910       -1.57860
H          1.47340       -3.25470       -3.27440
H          0.23170       -3.60160       -2.07570
H         -2.31850       -1.38370        6.58050
H         -0.57890        4.49900        7.40730
H         -0.79680        1.13700       11.19150
H          0.13130        4.23500       12.38020
H          2.33100        3.09850       12.64060
H          2.78790        1.83060       10.40010
H          2.91160        3.62020        8.44160
H          2.53160        5.99250        9.47550
H          2.38110        5.74570       12.15180
H          3.85110        4.95840       11.52510
H          0.24980        5.97370       10.47490
