110

C         -5.72060        4.69640       -8.76400
C         -6.37930        5.89560       -8.69720
C         -6.48710        6.75640       -7.50180
O         -6.00540        6.55670       -6.40370
C         -7.30020        7.90420       -7.92060
C         -7.78840        9.04010       -7.36250
S         -8.69800        9.94370       -8.51710
C         -8.41760        8.78160       -9.76090
C         -7.65890        7.75060       -9.29890
C         -7.09480        6.51270       -9.80150
C         -7.24190        6.06560      -11.08970
C         -6.71530        4.87620      -11.62750
N         -6.31730        3.92580      -12.13620
C         -7.97590        6.80710      -12.03850
N         -8.57060        7.39760      -12.82280
C         -4.99920        3.98780       -7.78790
S         -4.70640        4.47330       -6.12600
C         -3.81060        3.02380       -5.83580
C         -3.20590        2.64910       -4.62980
S         -3.23040        3.63950       -3.18640
C         -2.33840        2.42300       -2.36160
C         -1.78890        2.20340       -1.09370
C         -1.74390        3.06620        0.02130
C         -1.03500        2.63830        1.18550
N         -1.03820        3.54800        2.14740
S         -1.86880        4.83690        1.62520
N         -2.25370        4.28100        0.15380
C         -0.46690        1.34730        1.19000
C          0.20910        0.68080        2.21720
S          0.76740        1.00210        3.81080
C          1.39980       -0.62890        3.89460
C          2.09280       -1.14070        4.99670
C          2.57640       -2.46600        5.03220
C          2.30950       -3.26460        3.89330
N          2.59840       -4.53970        3.63640
N          2.10850       -4.75270        2.44610
C          2.16240       -6.04420        1.82490
C          0.98190       -6.90140        2.27270
N          1.51210       -3.73610        1.87400
C          1.61480       -2.74070        2.76260
C          1.16250       -1.39470        2.73150
C          0.49250       -0.60920        1.76510
N          0.02310       -0.74860        0.48510
C         -0.55210        0.44710        0.08550
C         -1.18170        0.91180       -1.11250
N         -1.33740        0.40370       -2.39250
C         -2.04010        1.30720       -3.14590
C         -2.51760        1.42660       -4.47190
C         -2.42950        0.60110       -5.62550
C         -3.03360        0.98410       -6.85940
C         -3.74700        2.20230       -6.98170
C         -4.41440        2.75720       -8.06750
N         -2.77870        0.02680       -7.75090
N         -2.07570       -0.85480       -7.09170
C         -1.54950       -2.03220       -7.71900
C         -0.14160       -1.77480       -8.24850
N         -1.83030       -0.57640       -5.83470
C         -0.96610       -0.86200       -2.97570
C         -2.09730       -1.88420       -2.84820
C          0.24580       -1.98980       -0.21510
C          1.62120       -2.00890       -0.88540
C          3.25590       -2.77870        6.21030
C          3.31740       -1.72010        7.09660
S          2.49780       -0.29610        6.44340
C          3.93370       -1.55400        8.35170
C          4.57650       -2.43990        9.17650
C          4.65660       -3.91520        9.05730
O          4.30510       -4.62250        8.13990
C          5.25360       -4.37790       10.33060
C          5.50620       -5.66110       10.78110
F          5.21490       -6.72720       10.02860
C          6.06990       -5.85870       12.03530
C          6.37250       -4.76490       12.82760
C          6.13090       -3.46680       12.39560
C          5.57250       -3.27530       11.14210
C          5.21620       -2.05320       10.42090
C          5.52270       -0.78360       10.83650
C          6.17140       -0.48060       12.05280
N          6.68950       -0.15790       13.02520
C          5.29380        0.40730       10.11300
N          5.16970        1.42630        9.59780
H         -5.74780        4.18350       -9.71860
H         -7.67640        9.40330       -6.36070
H         -8.83170        8.94430      -10.73570
H          2.14050       -5.88980        0.74440
H          3.10320       -6.51230        2.12030
H          1.03590       -7.87900        1.80280
H          0.04330       -6.42870        1.99290
H          1.00390       -7.02910        3.35200
H         -4.47670        2.28350       -9.03080
H         -1.53750       -2.82890       -6.97210
H         -2.22340       -2.29340       -8.53660
H          0.52200       -1.49520       -7.43360
H         -0.15800       -0.97100       -8.98020
H          0.24430       -2.67220       -8.72320
H         -0.79080       -0.68880       -4.03930
H         -0.03830       -1.21400       -2.53840
H         -1.75210       -2.86450       -3.16520
H         -2.46840       -1.94890       -1.82680
H         -2.92490       -1.58910       -3.48770
H          0.22550       -2.78890        0.52880
H         -0.56100       -2.16830       -0.91770
H          1.79070       -1.11430       -1.48230
H          2.39450       -2.05470       -0.12330
H          1.71480       -2.88520       -1.52100
H          3.68580       -3.74360        6.40530
H          3.86970       -0.53510        8.71650
H          6.26160       -6.86480       12.37340
H          6.80620       -4.92330       13.80290
H          6.37430       -2.63690       13.03700
