
  xtb     02102218203D
 energy: -211.299767726935 gnorm: 0.000648979650 xtb: 6.4.1 (unknown)
110125  0     0  0            999 V2000
   -9.1284    2.7890   -5.6266 C   0  0  0  0  0  0  0  0  0  0  0  0
   -9.6847    1.9651   -6.5545 C   0  0  0  0  0  0  0  0  0  0  0  0
  -11.1600    2.0198   -6.7894 C   0  0  0  0  0  0  0  0  0  0  0  0
  -11.9172    2.8887   -6.4255 O   0  0  0  0  0  0  0  0  0  0  0  0
  -11.4628    0.7662   -7.4957 C   0  0  0  0  0  0  0  0  0  0  0  0
  -12.5649    0.1044   -7.9303 C   0  0  0  0  0  0  0  0  0  0  0  0
  -12.1260   -1.3752   -8.7007 S   0  0  0  0  0  0  0  0  0  0  0  0
  -10.4420   -1.0966   -8.4485 C   0  0  0  0  0  0  0  0  0  0  0  0
  -10.2400    0.0769   -7.7925 C   0  0  0  0  0  0  0  0  0  0  0  0
   -9.1228    0.8842   -7.3423 C   0  0  0  0  0  0  0  0  0  0  0  0
   -7.8427    0.7810   -7.8189 C   0  0  0  0  0  0  0  0  0  0  0  0
   -7.4582   -0.2829   -8.6587 C   0  0  0  0  0  0  0  0  0  0  0  0
   -7.1386   -1.1505   -9.3384 N   0  0  0  0  0  0  0  0  0  0  0  0
   -6.8490    1.7589   -7.6172 C   0  0  0  0  0  0  0  0  0  0  0  0
   -6.0412    2.5690   -7.5207 N   0  0  0  0  0  0  0  0  0  0  0  0
   -7.9059    2.6566   -4.9246 C   0  0  0  0  0  0  0  0  0  0  0  0
   -7.0859    1.1154   -4.7240 S   0  0  0  0  0  0  0  0  0  0  0  0
   -5.8824    1.8427   -3.7205 C   0  0  0  0  0  0  0  0  0  0  0  0
   -4.8006    1.1901   -3.1217 C   0  0  0  0  0  0  0  0  0  0  0  0
   -4.4670   -0.5182   -3.2997 S   0  0  0  0  0  0  0  0  0  0  0  0
   -3.0892   -0.3340   -2.2867 C   0  0  0  0  0  0  0  0  0  0  0  0
   -2.0867   -1.1350   -1.7269 C   0  0  0  0  0  0  0  0  0  0  0  0
   -1.9118   -2.5357   -1.7524 C   0  0  0  0  0  0  0  0  0  0  0  0
   -0.8766   -3.1123   -0.9483 C   0  0  0  0  0  0  0  0  0  0  0  0
   -0.8610   -4.4342   -1.0125 N   0  0  0  0  0  0  0  0  0  0  0  0
   -2.0471   -4.9114   -2.0069 S   0  0  0  0  0  0  0  0  0  0  0  0
   -2.6269   -3.4491   -2.3898 N   0  0  0  0  0  0  0  0  0  0  0  0
    0.0003   -2.2504   -0.2545 C   0  0  0  0  0  0  0  0  0  0  0  0
    1.1397   -2.5327    0.5085 C   0  0  0  0  0  0  0  0  0  0  0  0
    1.9827   -3.9087    1.1011 S   0  0  0  0  0  0  0  0  0  0  0  0
    3.1504   -2.8451    1.8540 C   0  0  0  0  0  0  0  0  0  0  0  0
    4.2277   -3.2892    2.6274 C   0  0  0  0  0  0  0  0  0  0  0  0
    5.1340   -2.3970    3.2337 C   0  0  0  0  0  0  0  0  0  0  0  0
    4.9156   -1.0177    3.0055 C   0  0  0  0  0  0  0  0  0  0  0  0
    5.5845    0.0556    3.4282 N   0  0  0  0  0  0  0  0  0  0  0  0
    4.9220    1.0673    2.9367 N   0  0  0  0  0  0  0  0  0  0  0  0
    5.3496    2.4220    3.1338 C   0  0  0  0  0  0  0  0  0  0  0  0
    6.2037    2.8931    1.9603 C   0  0  0  0  0  0  0  0  0  0  0  0
    3.8674    0.7745    2.2163 N   0  0  0  0  0  0  0  0  0  0  0  0
    3.8118   -0.5623    2.2260 C   0  0  0  0  0  0  0  0  0  0  0  0
    2.8969   -1.4730    1.6360 C   0  0  0  0  0  0  0  0  0  0  0  0
    1.7257   -1.3135    0.8609 C   0  0  0  0  0  0  0  0  0  0  0  0
    0.9679   -0.2858    0.3600 N   0  0  0  0  0  0  0  0  0  0  0  0
   -0.1149   -0.8327   -0.3108 C   0  0  0  0  0  0  0  0  0  0  0  0
   -1.2492   -0.2720   -0.9649 C   0  0  0  0  0  0  0  0  0  0  0  0
   -1.7711    1.0094   -1.0400 N   0  0  0  0  0  0  0  0  0  0  0  0
   -2.8872    0.9732   -1.8358 C   0  0  0  0  0  0  0  0  0  0  0  0
   -3.8713    1.8731   -2.3074 C   0  0  0  0  0  0  0  0  0  0  0  0
   -4.0942    3.2629   -2.1309 C   0  0  0  0  0  0  0  0  0  0  0  0
   -5.2003    3.9242   -2.7434 C   0  0  0  0  0  0  0  0  0  0  0  0
   -6.1213    3.2186   -3.5532 C   0  0  0  0  0  0  0  0  0  0  0  0
   -7.2731    3.6555   -4.2173 C   0  0  0  0  0  0  0  0  0  0  0  0
   -5.1484    5.2098   -2.3921 N   0  0  0  0  0  0  0  0  0  0  0  0
   -4.0897    5.2994   -1.6345 N   0  0  0  0  0  0  0  0  0  0  0  0
   -3.7039    6.5314   -1.0100 C   0  0  0  0  0  0  0  0  0  0  0  0
   -4.1980    6.5797    0.4329 C   0  0  0  0  0  0  0  0  0  0  0  0
   -3.4225    4.1890   -1.4367 N   0  0  0  0  0  0  0  0  0  0  0  0
   -1.5205    2.1381   -0.1724 C   0  0  0  0  0  0  0  0  0  0  0  0
   -1.7806    1.7844    1.2902 C   0  0  0  0  0  0  0  0  0  0  0  0
    1.5154    1.0482    0.2520 C   0  0  0  0  0  0  0  0  0  0  0  0
    1.7946    1.4190   -1.2027 C   0  0  0  0  0  0  0  0  0  0  0  0
    6.0953   -3.0412    4.0149 C   0  0  0  0  0  0  0  0  0  0  0  0
    5.9576   -4.4152    4.0214 C   0  0  0  0  0  0  0  0  0  0  0  0
    4.6218   -4.9263    3.0024 S   0  0  0  0  0  0  0  0  0  0  0  0
    6.7441   -5.3967    4.6601 C   0  0  0  0  0  0  0  0  0  0  0  0
    7.6055   -5.2631    5.7100 C   0  0  0  0  0  0  0  0  0  0  0  0
    8.6304   -6.3167    5.9379 C   0  0  0  0  0  0  0  0  0  0  0  0
    8.6792   -7.4077    5.4185 O   0  0  0  0  0  0  0  0  0  0  0  0
    9.5942   -5.7207    6.8873 C   0  0  0  0  0  0  0  0  0  0  0  0
   10.7931   -6.2282    7.3493 C   0  0  0  0  0  0  0  0  0  0  0  0
   11.5468   -5.4578    8.2221 C   0  0  0  0  0  0  0  0  0  0  0  0
   11.0914   -4.2048    8.6050 C   0  0  0  0  0  0  0  0  0  0  0  0
   12.2743   -3.0403    9.9102 I   0  0  0  0  0  0  0  0  0  0  0  0
    9.8848   -3.6838    8.1576 C   0  0  0  0  0  0  0  0  0  0  0  0
    9.1287   -4.4578    7.2941 C   0  0  0  0  0  0  0  0  0  0  0  0
    7.8171   -4.2192    6.6864 C   0  0  0  0  0  0  0  0  0  0  0  0
    6.8861   -3.3342    7.1642 C   0  0  0  0  0  0  0  0  0  0  0  0
    5.5363   -3.3126    6.7577 C   0  0  0  0  0  0  0  0  0  0  0  0
    4.4182   -3.2793    6.5015 N   0  0  0  0  0  0  0  0  0  0  0  0
    7.1413   -2.3977    8.1867 C   0  0  0  0  0  0  0  0  0  0  0  0
    7.3009   -1.6024    8.9988 N   0  0  0  0  0  0  0  0  0  0  0  0
   -9.7527    3.6215   -5.3152 H   0  0  0  0  0  0  0  0  0  0  0  0
  -13.5960    0.3852   -7.8526 H   0  0  0  0  0  0  0  0  0  0  0  0
   -9.7279   -1.8193   -8.7891 H   0  0  0  0  0  0  0  0  0  0  0  0
    4.4566    3.0434    3.2290 H   0  0  0  0  0  0  0  0  0  0  0  0
    5.9239    2.4465    4.0613 H   0  0  0  0  0  0  0  0  0  0  0  0
    7.0888    2.2691    1.8652 H   0  0  0  0  0  0  0  0  0  0  0  0
    5.6344    2.8398    1.0354 H   0  0  0  0  0  0  0  0  0  0  0  0
    6.5162    3.9207    2.1214 H   0  0  0  0  0  0  0  0  0  0  0  0
   -7.6124    4.6752   -4.2020 H   0  0  0  0  0  0  0  0  0  0  0  0
   -4.1447    7.3392   -1.5961 H   0  0  0  0  0  0  0  0  0  0  0  0
   -2.6139    6.5974   -1.0406 H   0  0  0  0  0  0  0  0  0  0  0  0
   -3.8935    7.5137    0.8959 H   0  0  0  0  0  0  0  0  0  0  0  0
   -5.2826    6.5123    0.4618 H   0  0  0  0  0  0  0  0  0  0  0  0
   -3.7789    5.7525    1.0008 H   0  0  0  0  0  0  0  0  0  0  0  0
   -2.2025    2.9321   -0.4815 H   0  0  0  0  0  0  0  0  0  0  0  0
   -0.5086    2.5136   -0.3215 H   0  0  0  0  0  0  0  0  0  0  0  0
   -2.8210    1.4956    1.4217 H   0  0  0  0  0  0  0  0  0  0  0  0
   -1.1563    0.9571    1.6198 H   0  0  0  0  0  0  0  0  0  0  0  0
   -1.5797    2.6470    1.9200 H   0  0  0  0  0  0  0  0  0  0  0  0
    2.4495    1.0525    0.8161 H   0  0  0  0  0  0  0  0  0  0  0  0
    0.8550    1.7708    0.7306 H   0  0  0  0  0  0  0  0  0  0  0  0
    0.8919    1.3744   -1.8078 H   0  0  0  0  0  0  0  0  0  0  0  0
    2.2016    2.4254   -1.2552 H   0  0  0  0  0  0  0  0  0  0  0  0
    2.5208    0.7301   -1.6285 H   0  0  0  0  0  0  0  0  0  0  0  0
    6.8835   -2.5119    4.5189 H   0  0  0  0  0  0  0  0  0  0  0  0
    6.7147   -6.3899    4.2222 H   0  0  0  0  0  0  0  0  0  0  0  0
   11.1285   -7.2040    7.0345 H   0  0  0  0  0  0  0  0  0  0  0  0
   12.4865   -5.8301    8.5997 H   0  0  0  0  0  0  0  0  0  0  0  0
    9.5622   -2.7040    8.4709 H   0  0  0  0  0  0  0  0  0  0  0  0
  1  2  2  0  0  0  0
  2  3  1  0  0  0  0
  3  4  2  0  0  0  0
  3  5  1  0  0  0  0
  5  6  2  0  0  0  0
  6  7  1  0  0  0  0
  7  8  1  0  0  0  0
  8  9  2  0  0  0  0
  9 10  1  0  0  0  0
 10 11  2  0  0  0  0
 11 12  1  0  0  0  0
 12 13  3  0  0  0  0
 11 14  1  0  0  0  0
 14 15  3  0  0  0  0
  1 16  1  0  0  0  0
 16 17  1  0  0  0  0
 17 18  1  0  0  0  0
 18 19  1  0  0  0  0
 19 20  1  0  0  0  0
 20 21  1  0  0  0  0
 21 22  1  0  0  0  0
 22 23  1  0  0  0  0
 23 24  1  0  0  0  0
 24 25  2  0  0  0  0
 25 26  1  0  0  0  0
 26 27  1  0  0  0  0
 24 28  1  0  0  0  0
 28 29  1  0  0  0  0
 29 30  1  0  0  0  0
 30 31  1  0  0  0  0
 31 32  1  0  0  0  0
 32 33  2  0  0  0  0
 33 34  1  0  0  0  0
 34 35  2  0  0  0  0
 35 36  1  0  0  0  0
 36 37  1  0  0  0  0
 37 38  1  0  0  0  0
 36 39  1  0  0  0  0
 39 40  2  0  0  0  0
 40 41  1  0  0  0  0
 41 42  1  0  0  0  0
 42 43  1  0  0  0  0
 43 44  1  0  0  0  0
 44 45  1  0  0  0  0
 45 46  1  0  0  0  0
 46 47  1  0  0  0  0
 47 48  1  0  0  0  0
 48 49  1  0  0  0  0
 49 50  1  0  0  0  0
 50 51  1  0  0  0  0
 51 52  1  0  0  0  0
 50 53  2  0  0  0  0
 53 54  1  0  0  0  0
 54 55  1  0  0  0  0
 55 56  1  0  0  0  0
 54 57  1  0  0  0  0
 46 58  1  0  0  0  0
 58 59  1  0  0  0  0
 43 60  1  0  0  0  0
 60 61  1  0  0  0  0
 33 62  1  0  0  0  0
 62 63  2  0  0  0  0
 63 64  1  0  0  0  0
 63 65  1  0  0  0  0
 65 66  2  0  0  0  0
 66 67  1  0  0  0  0
 67 68  2  0  0  0  0
 67 69  1  0  0  0  0
 69 70  2  0  0  0  0
 70 71  1  0  0  0  0
 71 72  2  0  0  0  0
 72 73  1  0  0  0  0
 72 74  1  0  0  0  0
 74 75  2  0  0  0  0
 75 76  1  0  0  0  0
 76 77  2  0  0  0  0
 77 78  1  0  0  0  0
 78 79  3  0  0  0  0
 77 80  1  0  0  0  0
 80 81  3  0  0  0  0
 10  2  1  0  0  0  0
 52 16  2  0  0  0  0
 76 66  1  0  0  0  0
  9  5  1  0  0  0  0
 51 18  2  0  0  0  0
 75 69  1  0  0  0  0
 48 19  2  0  0  0  0
 57 49  2  0  0  0  0
 47 21  2  0  0  0  0
 45 22  2  0  0  0  0
 27 23  2  0  0  0  0
 44 28  2  0  0  0  0
 42 29  2  0  0  0  0
 41 31  2  0  0  0  0
 64 32  1  0  0  0  0
 40 34  1  0  0  0  0
  1 82  1  0  0  0  0
  6 83  1  0  0  0  0
  8 84  1  0  0  0  0
 37 85  1  0  0  0  0
 37 86  1  0  0  0  0
 38 87  1  0  0  0  0
 38 88  1  0  0  0  0
 38 89  1  0  0  0  0
 52 90  1  0  0  0  0
 55 91  1  0  0  0  0
 55 92  1  0  0  0  0
 56 93  1  0  0  0  0
 56 94  1  0  0  0  0
 56 95  1  0  0  0  0
 58 96  1  0  0  0  0
 58 97  1  0  0  0  0
 59 98  1  0  0  0  0
 59 99  1  0  0  0  0
 59100  1  0  0  0  0
 60101  1  0  0  0  0
 60102  1  0  0  0  0
 61103  1  0  0  0  0
 61104  1  0  0  0  0
 61105  1  0  0  0  0
 62106  1  0  0  0  0
 65107  1  0  0  0  0
 70108  1  0  0  0  0
 71109  1  0  0  0  0
 74110  1  0  0  0  0
M  END
