113

C         10.09180        3.81780       -1.09160
C         11.17300        3.62620       -0.27230
C         11.23650        2.69270        0.87030
O         10.36510        1.93720        1.25520
C         12.57610        2.86860        1.44310
C         13.29700        2.36060        2.47380
S         14.86540        3.07690        2.53140
C         14.54670        4.06840        1.15590
C         13.28940        3.85070        0.68250
C         12.43810        4.33180       -0.38860
C         12.81430        5.28010       -1.30520
C         14.09470        5.86930       -1.26010
N         15.13350        6.35710       -1.24220
C         12.02940        5.78070       -2.36100
N         11.45160        6.23520       -3.24430
C          8.81490        3.23120       -1.07940
S          8.22550        2.00430        0.02930
C          6.67710        2.02180       -0.73740
C          5.55940        1.26450       -0.36740
S          5.53450        0.09650        0.93910
C          3.86500       -0.19820        0.63480
C          2.79910       -0.94640        1.16700
C          2.66090       -1.76020        2.31530
C          1.34920       -2.21800        2.69990
N          1.36730       -2.89390        3.83740
S          2.89230       -2.96260        4.37480
N          3.59300       -2.12620        3.18020
C          0.25130       -1.96520        1.84570
C         -1.10900       -2.32290        1.87670
S         -2.23730       -3.08310        2.93370
C         -3.51450       -2.79200        1.76860
C         -4.86560       -3.09790        1.96480
C         -5.85720       -2.76390        1.01740
C         -5.41670       -2.14100       -0.17710
N         -6.08640       -1.71510       -1.24880
N         -5.17070       -1.19370       -2.02020
C         -5.48470       -0.65860       -3.31340
C         -5.22190       -1.69650       -4.40070
N         -3.94020       -1.22770       -1.57010
C         -4.03990       -1.83380       -0.38250
C         -3.06620       -2.14900        0.59680
C         -1.68470       -1.89420        0.67570
N         -0.73610       -1.27760       -0.10420
C          0.43900       -1.27220        0.62280
C          1.66950       -0.63250        0.36950
N          2.01420        0.31000       -0.58080
C          3.35570        0.56360       -0.42340
C          4.31800        1.39750       -1.02170
C          4.25760        2.29350       -2.11930
C          5.39690        3.05450       -2.51020
C          6.62530        2.94070       -1.80990
C          7.83300        3.60480       -1.99110
N          5.04510        3.79270       -3.56320
N          3.79400        3.48130       -3.77720
C          3.02460        4.10170       -4.81650
C          2.15420        5.21730       -4.24550
N          3.26580        2.60180       -2.96050
C          1.13370        1.34430       -1.08910
C          1.16540        2.57520       -0.18250
C         -0.82020       -1.32760       -1.55140
C         -0.87920       -2.77450       -2.04130
C         -7.15200       -3.07810        1.44050
C         -7.18640       -3.65890        2.69130
S         -5.56130       -3.85330        3.35020
C         -8.25160       -4.12890        3.48860
C         -9.58480       -3.83100        3.43430
C        -10.23710       -2.73850        2.67280
O         -9.79730       -2.08010        1.75520
C        -11.56850       -2.57330        3.29360
C        -12.52450       -1.61510        3.01890
C        -13.71620       -1.61460        3.73460
C        -14.78900       -0.60180        3.50220
C        -13.88600       -2.60460        4.70520
F        -15.03470       -2.60720        5.40710
C        -12.94660       -3.58030        4.99550
C        -11.76320       -3.55900        4.27420
C        -10.57740       -4.40670        4.32650
C        -10.46510       -5.57880        5.02520
C         -9.35660       -6.45120        4.97070
N         -8.50710       -7.22340        4.95490
C        -11.48040       -6.09710        5.85660
N        -12.26860       -6.56380        6.54800
H         10.20950        4.54860       -1.88350
H         13.01460        1.62160        3.19640
H         15.30650        4.73500        0.80050
H         -6.53830       -0.37570       -3.29680
H         -4.86110        0.22410       -3.47190
H         -4.17960       -2.00580       -4.37870
H         -5.44270       -1.27340       -5.37630
H         -5.85140       -2.56940       -4.24680
H          7.99430        4.34310       -2.75610
H          2.40080        3.33350       -5.27970
H          3.73280        4.49800       -5.54550
H          2.77620        5.98490       -3.79180
H          1.56460        5.66840       -5.03820
H          1.48210        4.81730       -3.49010
H          1.47420        1.61910       -2.09080
H          0.11360        0.96940       -1.12440
H          0.46160        3.31720       -0.54940
H          2.15810        3.01660       -0.16690
H          0.88840        2.30420        0.83440
H         -1.72630       -0.80210       -1.86440
H          0.06360       -0.85550       -1.97720
H         -1.77880       -3.26530       -1.68070
H         -0.88720       -2.79070       -3.12770
H         -0.01230       -3.33040       -1.69000
H         -8.02560       -2.88030        0.84940
H         -7.93360       -4.77810        4.29710
H        -12.33770       -0.87420        2.25640
H        -14.97000       -0.03280        4.41370
H        -14.50920        0.08180        2.70600
H        -15.72340       -1.09590        3.23880
H        -13.15590       -4.30490        5.76500
