
  xtb     02022209263D
 energy: -198.207232306601 gnorm: 0.000398232087 xtb: 6.4.1 (unknown)
116131  0     0  0            999 V2000
   -8.4380   -4.2508  -10.2075 C   0  0  0  0  0  0  0  0  0  0  0  0
   -7.2779   -5.1923  -10.5040 C   0  0  0  0  0  0  0  0  0  0  0  0
   -6.0910   -4.8189   -9.7407 N   0  0  0  0  0  0  0  0  0  0  0  0
   -5.2323   -3.9010  -10.3228 C   0  0  0  0  0  0  0  0  0  0  0  0
   -5.4563   -3.4528  -11.4295 O   0  0  0  0  0  0  0  0  0  0  0  0
   -4.0521   -3.5160   -9.5344 C   0  0  0  0  0  0  0  0  0  0  0  0
   -3.1521   -2.6085  -10.0553 C   0  0  0  0  0  0  0  0  0  0  0  0
   -2.0464   -2.2080   -9.3132 C   0  0  0  0  0  0  0  0  0  0  0  0
   -1.8027   -2.7129   -8.0476 C   0  0  0  0  0  0  0  0  0  0  0  0
   -2.6896   -3.6866   -7.5012 C   0  0  0  0  0  0  0  0  0  0  0  0
   -2.4719   -4.3258   -6.2640 C   0  0  0  0  0  0  0  0  0  0  0  0
   -3.3650   -5.2427   -5.7710 C   0  0  0  0  0  0  0  0  0  0  0  0
   -4.5133   -5.5727   -6.4916 C   0  0  0  0  0  0  0  0  0  0  0  0
   -4.7411   -5.0032   -7.7266 C   0  0  0  0  0  0  0  0  0  0  0  0
   -3.8306   -4.0655   -8.2559 C   0  0  0  0  0  0  0  0  0  0  0  0
   -5.9426   -5.3880   -8.4879 C   0  0  0  0  0  0  0  0  0  0  0  0
   -6.7672   -6.1684   -8.0564 O   0  0  0  0  0  0  0  0  0  0  0  0
   -0.6638   -2.2053   -7.2995 C   0  0  0  0  0  0  0  0  0  0  0  0
    0.6336   -2.0541   -7.7187 C   0  0  0  0  0  0  0  0  0  0  0  0
    1.1947   -2.5184   -9.0261 C   0  0  0  0  0  0  0  0  0  0  0  0
    1.6025   -1.3426   -9.9136 C   0  0  0  0  0  0  0  0  0  0  0  0
    1.4374   -1.4539   -6.7242 C   0  0  0  0  0  0  0  0  0  0  0  0
    3.2755   -1.0045   -6.6509 Se  0  0  0  0  0  2  0  0  0  0  0  0
    2.8893   -0.4046   -4.9329 C   0  0  0  0  0  0  0  0  0  0  0  0
    3.5433    0.1984   -3.8522 C   0  0  0  0  0  0  0  0  0  0  0  0
    4.8833    0.6239   -3.7518 C   0  0  0  0  0  0  0  0  0  0  0  0
    5.3055    1.2732   -2.5528 C   0  0  0  0  0  0  0  0  0  0  0  0
    6.5750    1.6456   -2.5917 N   0  0  0  0  0  0  0  0  0  0  0  0
    7.1861    1.2103   -4.0303 S   0  0  0  0  0  0  0  0  0  0  0  0
    5.8497    0.5303   -4.6517 N   0  0  0  0  0  0  0  0  0  0  0  0
    4.3798    1.4090   -1.4985 C   0  0  0  0  0  0  0  0  0  0  0  0
    4.5787    1.9230   -0.2149 C   0  0  0  0  0  0  0  0  0  0  0  0
    5.9314    2.6869    0.7987 Se  0  0  0  0  0  2  0  0  0  0  0  0
    4.6500    2.7041    2.2153 C   0  0  0  0  0  0  0  0  0  0  0  0
    4.6662    3.1003    3.5485 C   0  0  0  0  0  0  0  0  0  0  0  0
    5.8172    3.7071    4.2937 C   0  0  0  0  0  0  0  0  0  0  0  0
    7.0745    3.9219    3.4658 C   0  0  0  0  0  0  0  0  0  0  0  0
    3.4255    2.8608    4.1778 C   0  0  0  0  0  0  0  0  0  0  0  0
    2.2462    2.1598    3.0794 S   0  0  0  0  0  0  0  0  0  0  0  0
    3.4079    2.1722    1.8104 C   0  0  0  0  0  0  0  0  0  0  0  0
    3.3761    1.7537    0.4758 C   0  0  0  0  0  0  0  0  0  0  0  0
    2.4520    1.1597   -0.3435 N   0  0  0  0  0  0  0  0  0  0  0  0
    3.0307    0.9481   -1.5796 C   0  0  0  0  0  0  0  0  0  0  0  0
    2.5877    0.3786   -2.8107 C   0  0  0  0  0  0  0  0  0  0  0  0
    1.3708   -0.0787   -3.2901 N   0  0  0  0  0  0  0  0  0  0  0  0
    1.5554   -0.5596   -4.5571 C   0  0  0  0  0  0  0  0  0  0  0  0
    0.7497   -1.1357   -5.5544 C   0  0  0  0  0  0  0  0  0  0  0  0
   -0.9152   -1.5857   -5.6742 S   0  0  0  0  0  0  0  0  0  0  0  0
    0.0392   -0.0905   -2.7339 C   0  0  0  0  0  0  0  0  0  0  0  0
   -0.3081   -1.4521   -2.1304 C   0  0  0  0  0  0  0  0  0  0  0  0
    1.1425    0.8683    0.1887 C   0  0  0  0  0  0  0  0  0  0  0  0
    0.2254    2.0898    0.1254 C   0  0  0  0  0  0  0  0  0  0  0  0
    3.1860    3.1254    5.5286 C   0  0  0  0  0  0  0  0  0  0  0  0
    2.0677    2.9243    6.3038 C   0  0  0  0  0  0  0  0  0  0  0  0
    0.7832    2.3831    5.8583 C   0  0  0  0  0  0  0  0  0  0  0  0
    0.4701    2.0341    4.7305 O   0  0  0  0  0  0  0  0  0  0  0  0
   -0.0855    2.3378    7.0461 C   0  0  0  0  0  0  0  0  0  0  0  0
   -1.4005    1.8844    7.1054 C   0  0  0  0  0  0  0  0  0  0  0  0
   -1.9573    1.9485    8.3601 C   0  0  0  0  0  0  0  0  0  0  0  0
   -1.2576    2.4330    9.4725 C   0  0  0  0  0  0  0  0  0  0  0  0
    0.0386    2.8899    9.4248 C   0  0  0  0  0  0  0  0  0  0  0  0
    0.6263    2.8289    8.1586 C   0  0  0  0  0  0  0  0  0  0  0  0
    1.9706    3.2071    7.7207 C   0  0  0  0  0  0  0  0  0  0  0  0
    2.9467    3.7283    8.5342 C   0  0  0  0  0  0  0  0  0  0  0  0
    4.2474    4.0963    8.1351 C   0  0  0  0  0  0  0  0  0  0  0  0
    5.3248    4.4198    7.8962 N   0  0  0  0  0  0  0  0  0  0  0  0
    2.7904    3.9754    9.9137 C   0  0  0  0  0  0  0  0  0  0  0  0
    2.7439    4.2040   11.0383 N   0  0  0  0  0  0  0  0  0  0  0  0
   -2.4183    2.1954   10.4058 C   0  0  0  0  0  0  0  0  0  0  0  0
   -2.3544    0.9576   11.3346 C   0  0  0  0  0  0  0  0  0  0  0  0
   -1.4768   -0.0549   10.6416 C   0  0  0  0  0  0  0  0  0  0  0  0
   -2.1404   -0.5126    9.5885 C   0  0  0  0  0  0  0  0  0  0  0  0
   -3.4788    0.1828    9.5500 C   0  0  0  0  0  0  0  0  0  0  0  0
   -3.7392    0.3517   11.0553 C   0  0  0  0  0  0  0  0  0  0  0  0
   -3.1986    1.6567    9.1655 C   0  0  0  0  0  0  0  0  0  0  0  0
   -8.1726   -3.2317  -10.4794 H   0  0  0  0  0  0  0  0  0  0  0  0
   -8.6878   -4.2853   -9.1495 H   0  0  0  0  0  0  0  0  0  0  0  0
   -9.3092   -4.5510  -10.7827 H   0  0  0  0  0  0  0  0  0  0  0  0
   -7.0125   -5.1462  -11.5616 H   0  0  0  0  0  0  0  0  0  0  0  0
   -7.5370   -6.2147  -10.2236 H   0  0  0  0  0  0  0  0  0  0  0  0
   -3.3351   -2.2000  -11.0377 H   0  0  0  0  0  0  0  0  0  0  0  0
   -1.3829   -1.4602   -9.7184 H   0  0  0  0  0  0  0  0  0  0  0  0
   -1.5788   -4.1014   -5.7022 H   0  0  0  0  0  0  0  0  0  0  0  0
   -3.1784   -5.7194   -4.8206 H   0  0  0  0  0  0  0  0  0  0  0  0
   -5.2276   -6.2855   -6.1082 H   0  0  0  0  0  0  0  0  0  0  0  0
    2.0848   -3.1200   -8.8160 H   0  0  0  0  0  0  0  0  0  0  0  0
    0.4668   -3.1462   -9.5422 H   0  0  0  0  0  0  0  0  0  0  0  0
    2.3626   -0.7406   -9.4167 H   0  0  0  0  0  0  0  0  0  0  0  0
    0.7499   -0.7036  -10.1323 H   0  0  0  0  0  0  0  0  0  0  0  0
    2.0109   -1.7078  -10.8522 H   0  0  0  0  0  0  0  0  0  0  0  0
    6.0617    3.0649    5.1454 H   0  0  0  0  0  0  0  0  0  0  0  0
    5.4973    4.6696    4.7046 H   0  0  0  0  0  0  0  0  0  0  0  0
    7.4606    2.9754    3.0874 H   0  0  0  0  0  0  0  0  0  0  0  0
    7.8416    4.3776    4.0869 H   0  0  0  0  0  0  0  0  0  0  0  0
    6.8792    4.5848    2.6229 H   0  0  0  0  0  0  0  0  0  0  0  0
   -0.0682    0.7144   -2.0127 H   0  0  0  0  0  0  0  0  0  0  0  0
   -0.6548    0.1134   -3.5560 H   0  0  0  0  0  0  0  0  0  0  0  0
   -0.3546   -2.2038   -2.9140 H   0  0  0  0  0  0  0  0  0  0  0  0
    0.4403   -1.7691   -1.4069 H   0  0  0  0  0  0  0  0  0  0  0  0
   -1.2770   -1.4050   -1.6413 H   0  0  0  0  0  0  0  0  0  0  0  0
    1.2746    0.5896    1.2385 H   0  0  0  0  0  0  0  0  0  0  0  0
    0.7175    0.0113   -0.3247 H   0  0  0  0  0  0  0  0  0  0  0  0
    0.5957    2.8637    0.7925 H   0  0  0  0  0  0  0  0  0  0  0  0
   -0.7766    1.8171    0.4439 H   0  0  0  0  0  0  0  0  0  0  0  0
    0.1808    2.5035   -0.8807 H   0  0  0  0  0  0  0  0  0  0  0  0
    4.0391    3.5467    6.0410 H   0  0  0  0  0  0  0  0  0  0  0  0
   -1.9018    1.5203    6.2221 H   0  0  0  0  0  0  0  0  0  0  0  0
    0.5589    3.2615   10.2913 H   0  0  0  0  0  0  0  0  0  0  0  0
   -2.8107    3.0744   10.9133 H   0  0  0  0  0  0  0  0  0  0  0  0
   -2.1044    1.1816   12.3681 H   0  0  0  0  0  0  0  0  0  0  0  0
   -0.4725   -0.2846   10.9461 H   0  0  0  0  0  0  0  0  0  0  0  0
   -1.8011   -1.2012    8.8368 H   0  0  0  0  0  0  0  0  0  0  0  0
   -4.2535   -0.2989    8.9589 H   0  0  0  0  0  0  0  0  0  0  0  0
   -4.5624    1.0285   11.2801 H   0  0  0  0  0  0  0  0  0  0  0  0
   -3.8941   -0.5980   11.5651 H   0  0  0  0  0  0  0  0  0  0  0  0
   -4.1005    2.1853    8.8622 H   0  0  0  0  0  0  0  0  0  0  0  0
  1  2  1  0  0  0  0
  2  3  1  0  0  0  0
  3  4  1  0  0  0  0
  4  5  2  0  0  0  0
  4  6  1  0  0  0  0
  6  7  1  0  0  0  0
  7  8  2  0  0  0  0
  8  9  1  0  0  0  0
  9 10  2  0  0  0  0
 10 11  1  0  0  0  0
 11 12  2  0  0  0  0
 12 13  1  0  0  0  0
 13 14  2  0  0  0  0
 14 15  1  0  0  0  0
 14 16  1  0  0  0  0
 16 17  2  0  0  0  0
  9 18  1  0  0  0  0
 18 19  2  0  0  0  0
 19 20  1  0  0  0  0
 20 21  1  0  0  0  0
 19 22  1  0  0  0  0
 22 23  1  0  0  0  0
 23 24  1  0  0  0  0
 24 25  1  0  0  0  0
 25 26  1  0  0  0  0
 26 27  1  0  0  0  0
 27 28  2  0  0  0  0
 28 29  1  0  0  0  0
 29 30  1  0  0  0  0
 27 31  1  0  0  0  0
 31 32  1  0  0  0  0
 32 33  1  0  0  0  0
 33 34  1  0  0  0  0
 34 35  1  0  0  0  0
 35 36  1  0  0  0  0
 36 37  1  0  0  0  0
 35 38  2  0  0  0  0
 38 39  1  0  0  0  0
 39 40  1  0  0  0  0
 40 41  1  0  0  0  0
 41 42  1  0  0  0  0
 42 43  1  0  0  0  0
 43 44  1  0  0  0  0
 44 45  1  0  0  0  0
 45 46  1  0  0  0  0
 46 47  1  0  0  0  0
 47 48  1  0  0  0  0
 45 49  1  0  0  0  0
 49 50  1  0  0  0  0
 42 51  1  0  0  0  0
 51 52  1  0  0  0  0
 38 53  1  0  0  0  0
 53 54  2  0  0  0  0
 54 55  1  0  0  0  0
 55 56  2  0  0  0  0
 55 57  1  0  0  0  0
 57 58  2  0  0  0  0
 58 59  1  0  0  0  0
 59 60  2  0  0  0  0
 60 61  1  0  0  0  0
 61 62  2  0  0  0  0
 62 63  1  0  0  0  0
 63 64  2  0  0  0  0
 64 65  1  0  0  0  0
 65 66  3  0  0  0  0
 64 67  1  0  0  0  0
 67 68  3  0  0  0  0
 60 69  1  0  0  0  0
 69 70  1  0  0  0  0
 70 71  1  0  0  0  0
 71 72  2  0  0  0  0
 72 73  1  0  0  0  0
 73 74  1  0  0  0  0
 73 75  1  0  0  0  0
 16  3  1  0  0  0  0
 48 18  1  0  0  0  0
 63 54  1  0  0  0  0
 75 69  1  0  0  0  0
 15  6  2  0  0  0  0
 47 22  2  0  0  0  0
 62 57  1  0  0  0  0
 74 70  1  0  0  0  0
 15 10  1  0  0  0  0
 46 24  2  0  0  0  0
 75 59  1  0  0  0  0
 44 25  2  0  0  0  0
 30 26  2  0  0  0  0
 43 31  2  0  0  0  0
 41 32  2  0  0  0  0
 40 34  2  0  0  0  0
  1 76  1  0  0  0  0
  1 77  1  0  0  0  0
  1 78  1  0  0  0  0
  2 79  1  0  0  0  0
  2 80  1  0  0  0  0
  7 81  1  0  0  0  0
  8 82  1  0  0  0  0
 11 83  1  0  0  0  0
 12 84  1  0  0  0  0
 13 85  1  0  0  0  0
 20 86  1  0  0  0  0
 20 87  1  0  0  0  0
 21 88  1  0  0  0  0
 21 89  1  0  0  0  0
 21 90  1  0  0  0  0
 36 91  1  0  0  0  0
 36 92  1  0  0  0  0
 37 93  1  0  0  0  0
 37 94  1  0  0  0  0
 37 95  1  0  0  0  0
 49 96  1  0  0  0  0
 49 97  1  0  0  0  0
 50 98  1  0  0  0  0
 50 99  1  0  0  0  0
 50100  1  0  0  0  0
 51101  1  0  0  0  0
 51102  1  0  0  0  0
 52103  1  0  0  0  0
 52104  1  0  0  0  0
 52105  1  0  0  0  0
 53106  1  0  0  0  0
 58107  1  0  0  0  0
 61108  1  0  0  0  0
 69109  1  0  0  0  0
 70110  1  0  0  0  0
 71111  1  0  0  0  0
 72112  1  0  0  0  0
 73113  1  0  0  0  0
 74114  1  0  0  0  0
 74115  1  0  0  0  0
 75116  1  0  0  0  0
M  END
