110

C          1.67190      -13.37780       -2.59910
C          2.23140      -11.99430       -2.90250
N          1.68710      -10.99270       -1.99060
C          0.51210      -10.36700       -2.37370
O         -0.03210      -10.65110       -3.42160
C         -0.01300       -9.34160       -1.45840
C         -1.14500       -8.63360       -1.80670
C         -1.63350       -7.63340       -0.97140
C         -1.02140       -7.33940        0.23170
C          0.15160       -8.04770        0.61790
C          0.87840       -7.75180        1.78950
C          2.01990       -8.44280        2.10540
C          2.49590       -9.44960        1.26300
C          1.82860       -9.74870        0.09400
C          0.64970       -9.05480       -0.24800
C          2.37400      -10.77890       -0.80800
O          3.38220      -11.40520       -0.55120
C         -1.52840       -6.23040        1.03100
C         -1.98210       -6.18110        2.32200
C         -2.18280       -7.36240        3.21710
C         -3.67180       -7.68630        3.34490
C         -2.32620       -4.85950        2.69220
C         -2.11720       -3.92000        1.68630
S         -1.53850       -4.66270        0.23990
C         -2.37650       -2.61480        2.12400
C         -2.78650       -2.57400        3.45740
S         -2.88710       -4.14390        4.18790
C         -2.87730       -1.21520        3.81120
C         -3.08050       -0.57890        5.05660
N         -3.40260       -1.12760        6.21730
S         -3.39990        0.02710        7.35160
N         -2.98220        1.27350        6.40770
C         -2.83690        0.83380        5.16790
C         -2.50730        1.56920        4.00750
C         -2.18310        2.92040        3.80020
S         -1.87680        4.35400        4.72500
C         -1.41090        5.17730        3.24770
C         -0.82130        6.40120        2.98320
C         -0.44610        6.54060        1.64560
S         -0.93780        5.14830        0.69210
C         -1.55560        4.37560        2.09830
C         -1.99790        3.09200        2.42280
N         -2.21160        1.90400        1.76480
C         -2.67550        1.90170        0.38970
C         -1.56290        2.08980       -0.64080
C         -2.46790        0.94490        2.72920
C         -2.53780       -0.46690        2.64980
N         -2.25080       -1.34960        1.62150
C         -1.43090       -1.15260        0.44670
C          0.01580       -0.85540        0.83430
C          0.35470        7.59560        1.17840
C          1.06940        7.68520        0.01120
C          1.11900        6.67100       -1.04810
O          0.32910        5.76330       -1.25100
C          2.32450        6.95760       -1.83820
C          2.87600        6.15930       -2.83670
C          4.05480        6.64450       -3.34820
C          4.63320        7.84350       -2.91050
C          4.09280        8.64400       -1.93060
C          2.89920        8.16220       -1.38610
C          2.07220        8.68840       -0.29980
C          2.20960        9.92010        0.28350
C          3.18830       10.86620       -0.08520
N          3.95950       11.67810       -0.33850
C          1.36930       10.43020        1.29540
N          0.72150       10.91180        2.11230
C          5.80930        7.70710       -3.84570
C          5.81540        8.56310       -5.13610
C          4.37160        8.83550       -5.47820
C          3.82980        7.69620       -5.88740
C          4.89740        6.63180       -5.82760
C          6.13800        7.47180       -6.16980
C          5.16770        6.36730       -4.32640
H          1.93070      -13.67250       -1.58480
H          0.58970      -13.37600       -2.70680
H          2.09150      -14.10160       -3.29200
H          1.96290      -11.69030       -3.91580
H          3.31620      -11.98840       -2.78160
H         -1.63510       -8.86230       -2.74090
H         -2.51040       -7.07510       -1.26560
H          0.53060       -6.95940        2.43470
H          2.56400       -8.20280        3.00630
H          3.39680       -9.99480        1.50070
H         -1.78140       -7.12950        4.20640
H         -1.65260       -8.22810        2.81790
H         -4.21130       -6.83640        3.75560
H         -4.09100       -7.92810        2.37050
H         -3.81310       -8.53830        4.00460
H         -0.61110        7.15200        3.72330
H         -3.39280        2.72350        0.27920
H         -3.22530        0.97260        0.22680
H         -0.70060        1.46970       -0.41790
H         -1.93860        1.83350       -1.62820
H         -1.23170        3.12290       -0.66620
H         -1.47320       -2.08340       -0.12430
H         -1.83150       -0.36340       -0.18150
H          0.42030       -1.67410        1.42530
H          0.62440       -0.74080       -0.05850
H          0.07580        0.05610        1.42530
H          0.50280        8.38070        1.91080
H          2.39850        5.24070       -3.13990
H          4.55870        9.55540       -1.59420
H          6.78890        7.66290       -3.37360
H          6.47150        9.42840       -5.09960
H          3.89280        9.78660       -5.33680
H          2.80760        7.50450       -6.15650
H          4.71900        5.73740       -6.41910
H          6.12580        7.84360       -7.19310
H          7.07760        6.95550       -5.97710
H          5.72620        5.44780       -4.16010
