119

C          6.65000      -11.82180        2.63610
C          5.15610      -11.71360        2.35840
N          4.76390      -10.32580        2.13320
C          4.39330       -9.58730        3.24550
O          4.38930      -10.08860        4.35200
C          4.00680       -8.18930        3.00510
C          3.62040       -7.39710        4.06780
C          3.23130       -6.07940        3.86060
C          3.22810       -5.51690        2.59450
C          3.66280       -6.29690        1.48090
C          3.79550       -5.78160        0.17580
C          4.21880       -6.57210       -0.86240
C          4.53840       -7.91270       -0.64790
C          4.46130       -8.44570        0.62150
C          4.03770       -7.64800        1.70440
C          4.84000       -9.85370        0.83490
O          5.19930      -10.57800       -0.07170
C          2.78590       -4.14080        2.45760
C          3.10890       -3.09040        3.28480
C          4.02160       -3.13950        4.43900
C          3.48370       -2.83770        5.68680
C          4.27180       -2.85990        6.82100
C          5.61410       -3.17720        6.71170
C          6.15630       -3.45440        5.46980
C          5.38040       -3.44030        4.31820
C          6.02710       -3.66630        2.98040
C          6.15910       -2.35130        2.20990
C          2.43530       -1.90900        2.90950
S          2.50800       -0.27670        3.52290
C          1.37900        0.19870        2.29980
C          0.77950        1.37140        1.81290
C          1.00060        2.73140        2.12490
C          0.41740        3.73950        1.28420
N          0.77840        4.96240        1.63790
S          1.75950        4.85790        2.92190
N          1.76600        3.24560        3.07410
C         -0.48190        3.34570        0.26840
C         -1.28220        4.09150       -0.61140
S         -1.53850        5.73990       -1.07400
C         -2.80820        5.20330       -2.15930
C         -3.65430        5.87940       -3.03410
C         -3.60020        7.32490       -3.29890
C         -3.96790        8.26320       -2.33180
C         -4.55900        7.84280       -1.01650
C         -6.04830        7.52980       -1.17920
C         -3.85870        9.61180       -2.64360
C         -3.39610       10.03080       -3.87770
C         -3.04250        9.09570       -4.83500
C         -3.14730        7.74910       -4.54510
C         -4.53120        5.00130       -3.68520
S         -4.27820        3.32440       -3.20690
C         -3.00520        3.81250       -2.15180
C         -2.11310        3.18460       -1.27690
N         -1.82980        1.90280       -0.87640
C         -0.81290        1.97690        0.05850
C         -0.05630        0.98310        0.73080
N          0.08210       -0.37870        0.53480
C          0.95440       -0.85050        1.47960
C          1.58070       -2.05950        1.81730
S          1.61950       -3.68290        1.22390
C         -0.25050       -1.18170       -0.62020
C         -1.27740       -2.26580       -0.29210
C         -2.86130        0.89790       -1.02010
C         -4.02920        1.17510       -0.07410
C         -5.52570        5.42960       -4.57600
C         -6.48870        4.71280       -5.22840
C         -7.47330        5.37110       -6.10760
O         -7.53830        6.55140       -6.37690
C         -8.36820        4.28710       -6.58730
C         -9.46550        4.35200       -7.42370
C        -10.14340        3.17270       -7.70880
C         -9.73090        1.96290       -7.16920
C         -8.62640        1.89400       -6.32900
C         -7.95070        3.06510       -6.04460
C         -6.75930        3.28040       -5.18780
O         -6.14600        2.41900       -4.57950
H          6.91760      -12.86160        2.80060
H          6.90850      -11.24860        3.52350
H          7.21700      -11.44400        1.78840
H          4.89520      -12.27590        1.46010
H          4.58360      -12.07880        3.21270
H          3.60980       -7.82500        5.05860
H          2.90570       -5.48650        4.70120
H          3.57770       -4.74160       -0.00990
H          4.31370       -6.15400       -1.85300
H          4.86600       -8.54570       -1.45860
H          2.43350       -2.59360        5.76120
H          3.83980       -2.62950        7.78310
H          6.24040       -3.20030        7.59090
H          7.20910       -3.68420        5.38820
H          7.02020       -4.09380        3.13060
H          5.44810       -4.37610        2.38830
H          6.65410       -2.52050        1.25640
H          5.18060       -1.91660        2.02010
H          6.74310       -1.63490        2.78320
H         -4.43820        8.64920       -0.29110
H         -4.04670        6.96210       -0.62870
H         -6.57760        8.39880       -1.56380
H         -6.48380        7.25340       -0.22180
H         -6.19370        6.70690       -1.87590
H         -4.14420       10.34460       -1.90250
H         -3.31650       11.08560       -4.09420
H         -2.68700        9.41240       -5.80380
H         -2.86750        7.01020       -5.28240
H          0.66970       -1.66840       -0.96440
H         -0.59260       -0.52440       -1.42060
H         -2.15250       -1.85260        0.20460
H         -1.59210       -2.76260       -1.20560
H         -0.83930       -3.00890        0.36840
H         -3.21180        0.92830       -2.05580
H         -2.46010       -0.08560       -0.80770
H         -4.78680        0.40580       -0.19380
H         -4.48040        2.13890       -0.29370
H         -3.68730        1.17630        0.95930
H         -5.54280        6.50060       -4.76200
H         -9.78060        5.29730       -7.83820
H        -11.00520        3.19750       -8.35940
H        -10.27730        1.06180       -7.40590
H         -8.29900        0.95710       -5.90460
