
  xtb     02112201453D
 energy: -192.010681232762 gnorm: 0.000372994077 xtb: 6.4.1 (unknown)
110125  0     0  0            999 V2000
    1.6719  -13.3778   -2.5991 C   0  0  0  0  0  0  0  0  0  0  0  0
    2.2314  -11.9943   -2.9025 C   0  0  0  0  0  0  0  0  0  0  0  0
    1.6871  -10.9927   -1.9906 N   0  0  0  0  0  0  0  0  0  0  0  0
    0.5121  -10.3670   -2.3737 C   0  0  0  0  0  0  0  0  0  0  0  0
   -0.0321  -10.6511   -3.4216 O   0  0  0  0  0  0  0  0  0  0  0  0
   -0.0130   -9.3416   -1.4584 C   0  0  0  0  0  0  0  0  0  0  0  0
   -1.1450   -8.6336   -1.8067 C   0  0  0  0  0  0  0  0  0  0  0  0
   -1.6335   -7.6334   -0.9714 C   0  0  0  0  0  0  0  0  0  0  0  0
   -1.0214   -7.3394    0.2317 C   0  0  0  0  0  0  0  0  0  0  0  0
    0.1516   -8.0477    0.6179 C   0  0  0  0  0  0  0  0  0  0  0  0
    0.8784   -7.7518    1.7895 C   0  0  0  0  0  0  0  0  0  0  0  0
    2.0199   -8.4428    2.1054 C   0  0  0  0  0  0  0  0  0  0  0  0
    2.4959   -9.4496    1.2630 C   0  0  0  0  0  0  0  0  0  0  0  0
    1.8286   -9.7487    0.0940 C   0  0  0  0  0  0  0  0  0  0  0  0
    0.6497   -9.0548   -0.2480 C   0  0  0  0  0  0  0  0  0  0  0  0
    2.3740  -10.7789   -0.8080 C   0  0  0  0  0  0  0  0  0  0  0  0
    3.3822  -11.4052   -0.5512 O   0  0  0  0  0  0  0  0  0  0  0  0
   -1.5284   -6.2304    1.0310 C   0  0  0  0  0  0  0  0  0  0  0  0
   -1.9821   -6.1811    2.3220 C   0  0  0  0  0  0  0  0  0  0  0  0
   -2.1828   -7.3624    3.2171 C   0  0  0  0  0  0  0  0  0  0  0  0
   -3.6718   -7.6863    3.3449 C   0  0  0  0  0  0  0  0  0  0  0  0
   -2.3262   -4.8595    2.6922 C   0  0  0  0  0  0  0  0  0  0  0  0
   -2.1172   -3.9200    1.6863 C   0  0  0  0  0  0  0  0  0  0  0  0
   -1.5385   -4.6627    0.2399 S   0  0  0  0  0  0  0  0  0  0  0  0
   -2.3765   -2.6148    2.1240 C   0  0  0  0  0  0  0  0  0  0  0  0
   -2.7865   -2.5740    3.4574 C   0  0  0  0  0  0  0  0  0  0  0  0
   -2.8871   -4.1439    4.1879 S   0  0  0  0  0  0  0  0  0  0  0  0
   -2.8773   -1.2152    3.8112 C   0  0  0  0  0  0  0  0  0  0  0  0
   -3.0805   -0.5789    5.0566 C   0  0  0  0  0  0  0  0  0  0  0  0
   -3.4026   -1.1276    6.2173 N   0  0  0  0  0  0  0  0  0  0  0  0
   -3.3999    0.0271    7.3516 S   0  0  0  0  0  0  0  0  0  0  0  0
   -2.9822    1.2735    6.4077 N   0  0  0  0  0  0  0  0  0  0  0  0
   -2.8369    0.8338    5.1679 C   0  0  0  0  0  0  0  0  0  0  0  0
   -2.5073    1.5692    4.0075 C   0  0  0  0  0  0  0  0  0  0  0  0
   -2.1831    2.9204    3.8002 C   0  0  0  0  0  0  0  0  0  0  0  0
   -1.8768    4.3540    4.7250 S   0  0  0  0  0  0  0  0  0  0  0  0
   -1.4109    5.1773    3.2477 C   0  0  0  0  0  0  0  0  0  0  0  0
   -0.8213    6.4012    2.9832 C   0  0  0  0  0  0  0  0  0  0  0  0
   -0.4461    6.5406    1.6456 C   0  0  0  0  0  0  0  0  0  0  0  0
   -0.9378    5.1483    0.6921 S   0  0  0  0  0  0  0  0  0  0  0  0
   -1.5556    4.3756    2.0983 C   0  0  0  0  0  0  0  0  0  0  0  0
   -1.9979    3.0920    2.4228 C   0  0  0  0  0  0  0  0  0  0  0  0
   -2.2116    1.9040    1.7648 N   0  0  0  0  0  0  0  0  0  0  0  0
   -2.6755    1.9017    0.3897 C   0  0  0  0  0  0  0  0  0  0  0  0
   -1.5629    2.0898   -0.6408 C   0  0  0  0  0  0  0  0  0  0  0  0
   -2.4679    0.9449    2.7292 C   0  0  0  0  0  0  0  0  0  0  0  0
   -2.5378   -0.4669    2.6498 C   0  0  0  0  0  0  0  0  0  0  0  0
   -2.2508   -1.3496    1.6215 N   0  0  0  0  0  0  0  0  0  0  0  0
   -1.4309   -1.1526    0.4467 C   0  0  0  0  0  0  0  0  0  0  0  0
    0.0158   -0.8554    0.8343 C   0  0  0  0  0  0  0  0  0  0  0  0
    0.3547    7.5956    1.1784 C   0  0  0  0  0  0  0  0  0  0  0  0
    1.0694    7.6852    0.0112 C   0  0  0  0  0  0  0  0  0  0  0  0
    1.1190    6.6710   -1.0481 C   0  0  0  0  0  0  0  0  0  0  0  0
    0.3291    5.7633   -1.2510 O   0  0  0  0  0  0  0  0  0  0  0  0
    2.3245    6.9576   -1.8382 C   0  0  0  0  0  0  0  0  0  0  0  0
    2.8760    6.1593   -2.8367 C   0  0  0  0  0  0  0  0  0  0  0  0
    4.0548    6.6445   -3.3482 C   0  0  0  0  0  0  0  0  0  0  0  0
    4.6332    7.8435   -2.9105 C   0  0  0  0  0  0  0  0  0  0  0  0
    4.0928    8.6440   -1.9306 C   0  0  0  0  0  0  0  0  0  0  0  0
    2.8992    8.1622   -1.3861 C   0  0  0  0  0  0  0  0  0  0  0  0
    2.0722    8.6884   -0.2998 C   0  0  0  0  0  0  0  0  0  0  0  0
    2.2096    9.9201    0.2835 C   0  0  0  0  0  0  0  0  0  0  0  0
    3.1883   10.8662   -0.0852 C   0  0  0  0  0  0  0  0  0  0  0  0
    3.9595   11.6781   -0.3385 N   0  0  0  0  0  0  0  0  0  0  0  0
    1.3693   10.4302    1.2954 C   0  0  0  0  0  0  0  0  0  0  0  0
    0.7215   10.9118    2.1123 N   0  0  0  0  0  0  0  0  0  0  0  0
    5.8093    7.7071   -3.8457 C   0  0  0  0  0  0  0  0  0  0  0  0
    5.8154    8.5631   -5.1361 C   0  0  0  0  0  0  0  0  0  0  0  0
    4.3716    8.8355   -5.4782 C   0  0  0  0  0  0  0  0  0  0  0  0
    3.8298    7.6962   -5.8874 C   0  0  0  0  0  0  0  0  0  0  0  0
    4.8974    6.6318   -5.8276 C   0  0  0  0  0  0  0  0  0  0  0  0
    6.1380    7.4718   -6.1698 C   0  0  0  0  0  0  0  0  0  0  0  0
    5.1677    6.3673   -4.3264 C   0  0  0  0  0  0  0  0  0  0  0  0
    1.9307  -13.6725   -1.5848 H   0  0  0  0  0  0  0  0  0  0  0  0
    0.5897  -13.3760   -2.7068 H   0  0  0  0  0  0  0  0  0  0  0  0
    2.0915  -14.1016   -3.2920 H   0  0  0  0  0  0  0  0  0  0  0  0
    1.9629  -11.6903   -3.9158 H   0  0  0  0  0  0  0  0  0  0  0  0
    3.3162  -11.9884   -2.7816 H   0  0  0  0  0  0  0  0  0  0  0  0
   -1.6351   -8.8623   -2.7409 H   0  0  0  0  0  0  0  0  0  0  0  0
   -2.5104   -7.0751   -1.2656 H   0  0  0  0  0  0  0  0  0  0  0  0
    0.5306   -6.9594    2.4347 H   0  0  0  0  0  0  0  0  0  0  0  0
    2.5640   -8.2028    3.0063 H   0  0  0  0  0  0  0  0  0  0  0  0
    3.3968   -9.9948    1.5007 H   0  0  0  0  0  0  0  0  0  0  0  0
   -1.7814   -7.1295    4.2064 H   0  0  0  0  0  0  0  0  0  0  0  0
   -1.6526   -8.2281    2.8179 H   0  0  0  0  0  0  0  0  0  0  0  0
   -4.2113   -6.8364    3.7556 H   0  0  0  0  0  0  0  0  0  0  0  0
   -4.0910   -7.9281    2.3705 H   0  0  0  0  0  0  0  0  0  0  0  0
   -3.8131   -8.5383    4.0046 H   0  0  0  0  0  0  0  0  0  0  0  0
   -0.6111    7.1520    3.7233 H   0  0  0  0  0  0  0  0  0  0  0  0
   -3.3928    2.7235    0.2792 H   0  0  0  0  0  0  0  0  0  0  0  0
   -3.2253    0.9726    0.2268 H   0  0  0  0  0  0  0  0  0  0  0  0
   -0.7006    1.4697   -0.4179 H   0  0  0  0  0  0  0  0  0  0  0  0
   -1.9386    1.8335   -1.6282 H   0  0  0  0  0  0  0  0  0  0  0  0
   -1.2317    3.1229   -0.6662 H   0  0  0  0  0  0  0  0  0  0  0  0
   -1.4732   -2.0834   -0.1243 H   0  0  0  0  0  0  0  0  0  0  0  0
   -1.8315   -0.3634   -0.1815 H   0  0  0  0  0  0  0  0  0  0  0  0
    0.4203   -1.6741    1.4253 H   0  0  0  0  0  0  0  0  0  0  0  0
    0.6244   -0.7408   -0.0585 H   0  0  0  0  0  0  0  0  0  0  0  0
    0.0758    0.0561    1.4253 H   0  0  0  0  0  0  0  0  0  0  0  0
    0.5028    8.3807    1.9108 H   0  0  0  0  0  0  0  0  0  0  0  0
    2.3985    5.2407   -3.1399 H   0  0  0  0  0  0  0  0  0  0  0  0
    4.5587    9.5554   -1.5942 H   0  0  0  0  0  0  0  0  0  0  0  0
    6.7889    7.6629   -3.3736 H   0  0  0  0  0  0  0  0  0  0  0  0
    6.4715    9.4284   -5.0996 H   0  0  0  0  0  0  0  0  0  0  0  0
    3.8928    9.7866   -5.3368 H   0  0  0  0  0  0  0  0  0  0  0  0
    2.8076    7.5045   -6.1565 H   0  0  0  0  0  0  0  0  0  0  0  0
    4.7190    5.7374   -6.4191 H   0  0  0  0  0  0  0  0  0  0  0  0
    6.1258    7.8436   -7.1931 H   0  0  0  0  0  0  0  0  0  0  0  0
    7.0776    6.9555   -5.9771 H   0  0  0  0  0  0  0  0  0  0  0  0
    5.7262    5.4478   -4.1601 H   0  0  0  0  0  0  0  0  0  0  0  0
  1  2  1  0  0  0  0
  2  3  1  0  0  0  0
  3  4  1  0  0  0  0
  4  5  2  0  0  0  0
  4  6  1  0  0  0  0
  6  7  1  0  0  0  0
  7  8  2  0  0  0  0
  8  9  1  0  0  0  0
  9 10  2  0  0  0  0
 10 11  1  0  0  0  0
 11 12  2  0  0  0  0
 12 13  1  0  0  0  0
 13 14  2  0  0  0  0
 14 15  1  0  0  0  0
 14 16  1  0  0  0  0
 16 17  2  0  0  0  0
  9 18  1  0  0  0  0
 18 19  2  0  0  0  0
 19 20  1  0  0  0  0
 20 21  1  0  0  0  0
 19 22  1  0  0  0  0
 22 23  2  0  0  0  0
 23 24  1  0  0  0  0
 23 25  1  0  0  0  0
 25 26  2  0  0  0  0
 26 27  1  0  0  0  0
 26 28  1  0  0  0  0
 28 29  1  0  0  0  0
 29 30  2  0  0  0  0
 30 31  1  0  0  0  0
 31 32  1  0  0  0  0
 32 33  2  0  0  0  0
 33 34  1  0  0  0  0
 34 35  1  0  0  0  0
 35 36  1  0  0  0  0
 36 37  1  0  0  0  0
 37 38  1  0  0  0  0
 38 39  2  0  0  0  0
 39 40  1  0  0  0  0
 40 41  1  0  0  0  0
 41 42  1  0  0  0  0
 42 43  1  0  0  0  0
 43 44  1  0  0  0  0
 44 45  1  0  0  0  0
 43 46  1  0  0  0  0
 46 47  1  0  0  0  0
 47 48  1  0  0  0  0
 48 49  1  0  0  0  0
 49 50  1  0  0  0  0
 39 51  1  0  0  0  0
 51 52  2  0  0  0  0
 52 53  1  0  0  0  0
 53 54  2  0  0  0  0
 53 55  1  0  0  0  0
 55 56  2  0  0  0  0
 56 57  1  0  0  0  0
 57 58  2  0  0  0  0
 58 59  1  0  0  0  0
 59 60  2  0  0  0  0
 60 61  1  0  0  0  0
 61 62  2  0  0  0  0
 62 63  1  0  0  0  0
 63 64  3  0  0  0  0
 62 65  1  0  0  0  0
 65 66  3  0  0  0  0
 58 67  1  0  0  0  0
 67 68  1  0  0  0  0
 68 69  1  0  0  0  0
 69 70  2  0  0  0  0
 70 71  1  0  0  0  0
 71 72  1  0  0  0  0
 71 73  1  0  0  0  0
 16  3  1  0  0  0  0
 24 18  1  0  0  0  0
 48 25  1  0  0  0  0
 61 52  1  0  0  0  0
 73 67  1  0  0  0  0
 15  6  2  0  0  0  0
 27 22  1  0  0  0  0
 47 28  2  0  0  0  0
 60 55  1  0  0  0  0
 72 68  1  0  0  0  0
 15 10  1  0  0  0  0
 33 29  1  0  0  0  0
 46 34  2  0  0  0  0
 73 57  1  0  0  0  0
 42 35  2  0  0  0  0
 41 37  2  0  0  0  0
  1 74  1  0  0  0  0
  1 75  1  0  0  0  0
  1 76  1  0  0  0  0
  2 77  1  0  0  0  0
  2 78  1  0  0  0  0
  7 79  1  0  0  0  0
  8 80  1  0  0  0  0
 11 81  1  0  0  0  0
 12 82  1  0  0  0  0
 13 83  1  0  0  0  0
 20 84  1  0  0  0  0
 20 85  1  0  0  0  0
 21 86  1  0  0  0  0
 21 87  1  0  0  0  0
 21 88  1  0  0  0  0
 38 89  1  0  0  0  0
 44 90  1  0  0  0  0
 44 91  1  0  0  0  0
 45 92  1  0  0  0  0
 45 93  1  0  0  0  0
 45 94  1  0  0  0  0
 49 95  1  0  0  0  0
 49 96  1  0  0  0  0
 50 97  1  0  0  0  0
 50 98  1  0  0  0  0
 50 99  1  0  0  0  0
 51100  1  0  0  0  0
 56101  1  0  0  0  0
 59102  1  0  0  0  0
 67103  1  0  0  0  0
 68104  1  0  0  0  0
 69105  1  0  0  0  0
 70106  1  0  0  0  0
 71107  1  0  0  0  0
 72108  1  0  0  0  0
 72109  1  0  0  0  0
 73110  1  0  0  0  0
M  END
