
  xtb     02022202303D
 energy: -198.379243883218 gnorm: 0.000615680758 xtb: 6.4.1 (unknown)
109122  0     0  0            999 V2000
   -9.4491   -4.5157   -7.6842 C   0  0  0  0  0  0  0  0  0  0  0  0
  -10.3027   -4.3268   -6.4369 C   0  0  0  0  0  0  0  0  0  0  0  0
   -9.4903   -3.8785   -5.3098 N   0  0  0  0  0  0  0  0  0  0  0  0
   -8.8970   -4.8610   -4.5348 C   0  0  0  0  0  0  0  0  0  0  0  0
   -9.0745   -6.0378   -4.7767 O   0  0  0  0  0  0  0  0  0  0  0  0
   -8.0581   -4.3981   -3.4180 C   0  0  0  0  0  0  0  0  0  0  0  0
   -7.4377   -5.3232   -2.6033 C   0  0  0  0  0  0  0  0  0  0  0  0
   -6.6184   -4.9050   -1.5592 C   0  0  0  0  0  0  0  0  0  0  0  0
   -6.4138   -3.5617   -1.2992 C   0  0  0  0  0  0  0  0  0  0  0  0
   -7.0650   -2.5832   -2.1021 C   0  0  0  0  0  0  0  0  0  0  0  0
   -6.9657   -1.1977   -1.8617 C   0  0  0  0  0  0  0  0  0  0  0  0
   -7.6029   -0.2919   -2.6704 C   0  0  0  0  0  0  0  0  0  0  0  0
   -8.3719   -0.7246   -3.7522 C   0  0  0  0  0  0  0  0  0  0  0  0
   -8.5203   -2.0726   -4.0013 C   0  0  0  0  0  0  0  0  0  0  0  0
   -7.8812   -3.0212   -3.1769 C   0  0  0  0  0  0  0  0  0  0  0  0
   -9.3529   -2.5120   -5.1354 C   0  0  0  0  0  0  0  0  0  0  0  0
   -9.9013   -1.7294   -5.8846 O   0  0  0  0  0  0  0  0  0  0  0  0
   -5.5003   -3.1890   -0.2278 C   0  0  0  0  0  0  0  0  0  0  0  0
   -5.5162   -3.6053    1.0781 C   0  0  0  0  0  0  0  0  0  0  0  0
   -6.6157   -4.3756    1.7371 C   0  0  0  0  0  0  0  0  0  0  0  0
   -7.4429   -3.4575    2.6388 C   0  0  0  0  0  0  0  0  0  0  0  0
   -4.3959   -3.1150    1.7847 C   0  0  0  0  0  0  0  0  0  0  0  0
   -3.8566   -3.3202    3.4331 S   0  0  0  0  0  0  0  0  0  0  0  0
   -2.4540   -2.3735    3.0708 C   0  0  0  0  0  0  0  0  0  0  0  0
   -1.3024   -1.8852    3.7149 C   0  0  0  0  0  0  0  0  0  0  0  0
   -0.8637   -1.9016    5.0590 C   0  0  0  0  0  0  0  0  0  0  0  0
    0.3240   -1.1715    5.4207 C   0  0  0  0  0  0  0  0  0  0  0  0
    0.5661   -1.2191    6.7206 N   0  0  0  0  0  0  0  0  0  0  0  0
   -0.5859   -2.1075    7.4298 S   0  0  0  0  0  0  0  0  0  0  0  0
   -1.4444   -2.4658    6.1057 N   0  0  0  0  0  0  0  0  0  0  0  0
    1.1049   -0.5755    4.4032 C   0  0  0  0  0  0  0  0  0  0  0  0
    2.3527    0.0675    4.4000 C   0  0  0  0  0  0  0  0  0  0  0  0
    3.5408    0.6246    5.5268 S   0  0  0  0  0  0  0  0  0  0  0  0
    4.5191    1.1781    4.1789 C   0  0  0  0  0  0  0  0  0  0  0  0
    5.7439    1.8226    4.1136 C   0  0  0  0  0  0  0  0  0  0  0  0
    6.5595    2.1377    5.3243 C   0  0  0  0  0  0  0  0  0  0  0  0
    7.5918    1.0370    5.5856 C   0  0  0  0  0  0  0  0  0  0  0  0
    6.1201    2.0762    2.7784 C   0  0  0  0  0  0  0  0  0  0  0  0
    4.9119    1.4971    1.6251 S   0  0  0  0  0  0  0  0  0  0  0  0
    3.9353    0.9260    2.9229 C   0  0  0  0  0  0  0  0  0  0  0  0
    2.7004    0.2933    3.0590 C   0  0  0  0  0  0  0  0  0  0  0  0
    1.7064   -0.1711    2.2315 N   0  0  0  0  0  0  0  0  0  0  0  0
    0.7082   -0.6717    3.0410 C   0  0  0  0  0  0  0  0  0  0  0  0
   -0.5687   -1.1810    2.7264 C   0  0  0  0  0  0  0  0  0  0  0  0
   -1.2773   -1.1786    1.5371 N   0  0  0  0  0  0  0  0  0  0  0  0
   -2.4145   -1.9167    1.7494 C   0  0  0  0  0  0  0  0  0  0  0  0
   -3.5289   -2.3430    1.0142 C   0  0  0  0  0  0  0  0  0  0  0  0
   -4.0992   -2.1956   -0.6101 S   0  0  0  0  0  0  0  0  0  0  0  0
   -1.2546   -0.1363    0.5294 C   0  0  0  0  0  0  0  0  0  0  0  0
   -2.4075    0.8483    0.7233 C   0  0  0  0  0  0  0  0  0  0  0  0
    2.0123   -0.5882    0.8770 C   0  0  0  0  0  0  0  0  0  0  0  0
    3.1237   -1.6369    0.8579 C   0  0  0  0  0  0  0  0  0  0  0  0
    7.3096    2.7181    2.4368 C   0  0  0  0  0  0  0  0  0  0  0  0
    7.8343    3.0594    1.2087 C   0  0  0  0  0  0  0  0  0  0  0  0
    7.2121    2.8137   -0.0905 C   0  0  0  0  0  0  0  0  0  0  0  0
    6.1511    2.2561   -0.3207 O   0  0  0  0  0  0  0  0  0  0  0  0
    8.1248    3.3818   -1.0995 C   0  0  0  0  0  0  0  0  0  0  0  0
    7.9824    3.4166   -2.4556 C   0  0  0  0  0  0  0  0  0  0  0  0
    8.9934    4.0225   -3.2348 C   0  0  0  0  0  0  0  0  0  0  0  0
    8.8967    4.0912   -4.6377 C   0  0  0  0  0  0  0  0  0  0  0  0
    9.8894    4.6833   -5.3673 C   0  0  0  0  0  0  0  0  0  0  0  0
    9.7947    4.7485   -6.7034 F   0  0  0  0  0  0  0  0  0  0  0  0
   11.0189    5.2296   -4.7272 C   0  0  0  0  0  0  0  0  0  0  0  0
   11.9773    5.8035   -5.4680 F   0  0  0  0  0  0  0  0  0  0  0  0
   11.1406    5.1780   -3.3667 C   0  0  0  0  0  0  0  0  0  0  0  0
   10.1341    4.5762   -2.5856 C   0  0  0  0  0  0  0  0  0  0  0  0
   10.2507    4.5236   -1.1767 C   0  0  0  0  0  0  0  0  0  0  0  0
    9.2570    3.9358   -0.4404 C   0  0  0  0  0  0  0  0  0  0  0  0
    9.0931    3.7421    1.0005 C   0  0  0  0  0  0  0  0  0  0  0  0
    9.9935    4.1522    1.9533 C   0  0  0  0  0  0  0  0  0  0  0  0
    9.8597    3.9819    3.3459 C   0  0  0  0  0  0  0  0  0  0  0  0
    9.8277    3.8770    4.4904 N   0  0  0  0  0  0  0  0  0  0  0  0
   11.2022    4.8169    1.6613 C   0  0  0  0  0  0  0  0  0  0  0  0
   12.2007    5.3593    1.4951 N   0  0  0  0  0  0  0  0  0  0  0  0
   -8.6877   -5.2717   -7.5062 H   0  0  0  0  0  0  0  0  0  0  0  0
  -10.0753   -4.8377   -8.5112 H   0  0  0  0  0  0  0  0  0  0  0  0
   -8.9668   -3.5789   -7.9541 H   0  0  0  0  0  0  0  0  0  0  0  0
  -10.7676   -5.2712   -6.1487 H   0  0  0  0  0  0  0  0  0  0  0  0
  -11.0666   -3.5670   -6.6100 H   0  0  0  0  0  0  0  0  0  0  0  0
   -7.5844   -6.3738   -2.8033 H   0  0  0  0  0  0  0  0  0  0  0  0
   -6.1065   -5.6421   -0.9584 H   0  0  0  0  0  0  0  0  0  0  0  0
   -6.3873   -0.8487   -1.0202 H   0  0  0  0  0  0  0  0  0  0  0  0
   -7.5151    0.7652   -2.4703 H   0  0  0  0  0  0  0  0  0  0  0  0
   -8.8703   -0.0188   -4.3994 H   0  0  0  0  0  0  0  0  0  0  0  0
   -7.2648   -4.8235    0.9847 H   0  0  0  0  0  0  0  0  0  0  0  0
   -6.1750   -5.1712    2.3422 H   0  0  0  0  0  0  0  0  0  0  0  0
   -8.2346   -4.0242    3.1216 H   0  0  0  0  0  0  0  0  0  0  0  0
   -6.8171   -3.0126    3.4085 H   0  0  0  0  0  0  0  0  0  0  0  0
   -7.8953   -2.6605    2.0523 H   0  0  0  0  0  0  0  0  0  0  0  0
    5.8861    2.2046    6.1811 H   0  0  0  0  0  0  0  0  0  0  0  0
    7.0717    3.0948    5.2163 H   0  0  0  0  0  0  0  0  0  0  0  0
    8.2735    0.9406    4.7439 H   0  0  0  0  0  0  0  0  0  0  0  0
    8.1718    1.2807    6.4708 H   0  0  0  0  0  0  0  0  0  0  0  0
    7.0953    0.0824    5.7432 H   0  0  0  0  0  0  0  0  0  0  0  0
   -1.3260   -0.6005   -0.4597 H   0  0  0  0  0  0  0  0  0  0  0  0
   -0.3190    0.4140    0.6086 H   0  0  0  0  0  0  0  0  0  0  0  0
   -2.3662    1.2831    1.7197 H   0  0  0  0  0  0  0  0  0  0  0  0
   -2.3293    1.6459   -0.0101 H   0  0  0  0  0  0  0  0  0  0  0  0
   -3.3675    0.3564    0.5965 H   0  0  0  0  0  0  0  0  0  0  0  0
    2.3231    0.2885    0.3004 H   0  0  0  0  0  0  0  0  0  0  0  0
    1.1214   -1.0266    0.4316 H   0  0  0  0  0  0  0  0  0  0  0  0
    3.2827   -1.9739   -0.1625 H   0  0  0  0  0  0  0  0  0  0  0  0
    4.0563   -1.2249    1.2314 H   0  0  0  0  0  0  0  0  0  0  0  0
    2.8454   -2.4923    1.4702 H   0  0  0  0  0  0  0  0  0  0  0  0
    7.9090    2.9916    3.2940 H   0  0  0  0  0  0  0  0  0  0  0  0
    7.1105    2.9896   -2.9274 H   0  0  0  0  0  0  0  0  0  0  0  0
    8.0379    3.6771   -5.1424 H   0  0  0  0  0  0  0  0  0  0  0  0
   12.0122    5.6018   -2.8929 H   0  0  0  0  0  0  0  0  0  0  0  0
   11.1264    4.9535   -0.7186 H   0  0  0  0  0  0  0  0  0  0  0  0
  1  2  1  0  0  0  0
  2  3  1  0  0  0  0
  3  4  1  0  0  0  0
  4  5  2  0  0  0  0
  4  6  1  0  0  0  0
  6  7  1  0  0  0  0
  7  8  2  0  0  0  0
  8  9  1  0  0  0  0
  9 10  2  0  0  0  0
 10 11  1  0  0  0  0
 11 12  2  0  0  0  0
 12 13  1  0  0  0  0
 13 14  2  0  0  0  0
 14 15  1  0  0  0  0
 14 16  1  0  0  0  0
 16 17  2  0  0  0  0
  9 18  1  0  0  0  0
 18 19  2  0  0  0  0
 19 20  1  0  0  0  0
 20 21  1  0  0  0  0
 19 22  1  0  0  0  0
 22 23  1  0  0  0  0
 23 24  1  0  0  0  0
 24 25  1  0  0  0  0
 25 26  1  0  0  0  0
 26 27  1  0  0  0  0
 27 28  2  0  0  0  0
 28 29  1  0  0  0  0
 29 30  1  0  0  0  0
 27 31  1  0  0  0  0
 31 32  1  0  0  0  0
 32 33  1  0  0  0  0
 33 34  1  0  0  0  0
 34 35  1  0  0  0  0
 35 36  1  0  0  0  0
 36 37  1  0  0  0  0
 35 38  2  0  0  0  0
 38 39  1  0  0  0  0
 39 40  1  0  0  0  0
 40 41  1  0  0  0  0
 41 42  1  0  0  0  0
 42 43  1  0  0  0  0
 43 44  1  0  0  0  0
 44 45  1  0  0  0  0
 45 46  1  0  0  0  0
 46 47  1  0  0  0  0
 47 48  1  0  0  0  0
 45 49  1  0  0  0  0
 49 50  1  0  0  0  0
 42 51  1  0  0  0  0
 51 52  1  0  0  0  0
 38 53  1  0  0  0  0
 53 54  2  0  0  0  0
 54 55  1  0  0  0  0
 55 56  2  0  0  0  0
 55 57  1  0  0  0  0
 57 58  2  0  0  0  0
 58 59  1  0  0  0  0
 59 60  2  0  0  0  0
 60 61  1  0  0  0  0
 61 62  1  0  0  0  0
 61 63  2  0  0  0  0
 63 64  1  0  0  0  0
 63 65  1  0  0  0  0
 65 66  2  0  0  0  0
 66 67  1  0  0  0  0
 67 68  2  0  0  0  0
 68 69  1  0  0  0  0
 69 70  2  0  0  0  0
 70 71  1  0  0  0  0
 71 72  3  0  0  0  0
 70 73  1  0  0  0  0
 73 74  3  0  0  0  0
 16  3  1  0  0  0  0
 48 18  1  0  0  0  0
 69 54  1  0  0  0  0
 15  6  2  0  0  0  0
 47 22  2  0  0  0  0
 68 57  1  0  0  0  0
 15 10  1  0  0  0  0
 46 24  2  0  0  0  0
 66 59  1  0  0  0  0
 44 25  2  0  0  0  0
 30 26  2  0  0  0  0
 43 31  2  0  0  0  0
 41 32  2  0  0  0  0
 40 34  2  0  0  0  0
  1 75  1  0  0  0  0
  1 76  1  0  0  0  0
  1 77  1  0  0  0  0
  2 78  1  0  0  0  0
  2 79  1  0  0  0  0
  7 80  1  0  0  0  0
  8 81  1  0  0  0  0
 11 82  1  0  0  0  0
 12 83  1  0  0  0  0
 13 84  1  0  0  0  0
 20 85  1  0  0  0  0
 20 86  1  0  0  0  0
 21 87  1  0  0  0  0
 21 88  1  0  0  0  0
 21 89  1  0  0  0  0
 36 90  1  0  0  0  0
 36 91  1  0  0  0  0
 37 92  1  0  0  0  0
 37 93  1  0  0  0  0
 37 94  1  0  0  0  0
 49 95  1  0  0  0  0
 49 96  1  0  0  0  0
 50 97  1  0  0  0  0
 50 98  1  0  0  0  0
 50 99  1  0  0  0  0
 51100  1  0  0  0  0
 51101  1  0  0  0  0
 52102  1  0  0  0  0
 52103  1  0  0  0  0
 52104  1  0  0  0  0
 53105  1  0  0  0  0
 58106  1  0  0  0  0
 60107  1  0  0  0  0
 65108  1  0  0  0  0
 67109  1  0  0  0  0
M  END
