
  xtb     02112201353D
 energy: -178.908087118350 gnorm: 0.000811555927 xtb: 6.4.1 (unknown)
 91103  0     0  0            999 V2000
    2.5087   -1.9928    8.8891 C   0  0  0  0  0  0  0  0  0  0  0  0
    2.3153   -3.3440    8.8391 C   0  0  0  0  0  0  0  0  0  0  0  0
    3.1274   -4.2352    9.7068 C   0  0  0  0  0  0  0  0  0  0  0  0
    3.7962   -3.9125   10.6614 O   0  0  0  0  0  0  0  0  0  0  0  0
    2.9883   -5.5818    9.1084 C   0  0  0  0  0  0  0  0  0  0  0  0
    3.6328   -6.7572    9.4439 C   0  0  0  0  0  0  0  0  0  0  0  0
    3.3626   -7.8963    8.7011 C   0  0  0  0  0  0  0  0  0  0  0  0
    2.4631   -7.8325    7.6451 C   0  0  0  0  0  0  0  0  0  0  0  0
    2.1338   -9.4007    6.6244 Br  0  0  0  0  0  0  0  0  0  0  0  0
    1.7957   -6.6627    7.3008 C   0  0  0  0  0  0  0  0  0  0  0  0
    2.0644   -5.5303    8.0484 C   0  0  0  0  0  0  0  0  0  0  0  0
    1.5132   -4.1762    7.9746 C   0  0  0  0  0  0  0  0  0  0  0  0
    0.2915   -3.8538    7.4372 C   0  0  0  0  0  0  0  0  0  0  0  0
   -0.4899   -4.7401    6.6700 C   0  0  0  0  0  0  0  0  0  0  0  0
   -1.1496   -5.4146    6.0162 N   0  0  0  0  0  0  0  0  0  0  0  0
   -0.3549   -2.6240    7.6816 C   0  0  0  0  0  0  0  0  0  0  0  0
   -0.9266   -1.6508    7.8939 N   0  0  0  0  0  0  0  0  0  0  0  0
    2.2227   -1.0071    7.9246 C   0  0  0  0  0  0  0  0  0  0  0  0
    2.2851    0.3584    8.1608 C   0  0  0  0  0  0  0  0  0  0  0  0
    2.0248    1.1546    7.0526 C   0  0  0  0  0  0  0  0  0  0  0  0
    1.9167    2.8944    6.8883 S   0  0  0  0  0  0  0  0  0  0  0  0
    1.5360    2.6904    5.2173 C   0  0  0  0  0  0  0  0  0  0  0  0
    1.1739    3.4642    4.1066 C   0  0  0  0  0  0  0  0  0  0  0  0
    0.9315    4.8511    3.9938 C   0  0  0  0  0  0  0  0  0  0  0  0
    0.4407    5.3678    2.7514 C   0  0  0  0  0  0  0  0  0  0  0  0
    0.2038    6.6691    2.8033 N   0  0  0  0  0  0  0  0  0  0  0  0
    0.5716    7.1987    4.2872 S   0  0  0  0  0  0  0  0  0  0  0  0
    1.0471    5.7881    4.9217 N   0  0  0  0  0  0  0  0  0  0  0  0
    0.3250    4.4925    1.6489 C   0  0  0  0  0  0  0  0  0  0  0  0
    0.0064    4.7471    0.3105 C   0  0  0  0  0  0  0  0  0  0  0  0
    0.1778    3.5446   -0.3877 C   0  0  0  0  0  0  0  0  0  0  0  0
    0.5747    2.5598    0.4771 N   0  0  0  0  0  0  0  0  0  0  0  0
    1.0627    1.3117   -0.0597 C   0  0  0  0  0  0  0  0  0  0  0  0
   -0.0761    0.3541   -0.4103 C   0  0  0  0  0  0  0  0  0  0  0  0
    0.6509    3.1041    1.7441 C   0  0  0  0  0  0  0  0  0  0  0  0
    0.9694    2.5650    3.0177 C   0  0  0  0  0  0  0  0  0  0  0  0
    1.1817    1.2724    3.4756 N   0  0  0  0  0  0  0  0  0  0  0  0
    1.5130    1.3527    4.8040 C   0  0  0  0  0  0  0  0  0  0  0  0
    1.7836    0.4670    5.8476 C   0  0  0  0  0  0  0  0  0  0  0  0
    1.8819   -1.3731    6.0902 Se  0  0  0  0  0  2  0  0  0  0  0  0
    0.6650    0.0055    3.0057 C   0  0  0  0  0  0  0  0  0  0  0  0
   -0.7753   -0.2066    3.4671 C   0  0  0  0  0  0  0  0  0  0  0  0
   -0.0452    3.6676   -1.7611 C   0  0  0  0  0  0  0  0  0  0  0  0
   -0.4039    4.9959   -2.0808 C   0  0  0  0  0  0  0  0  0  0  0  0
   -0.4570    6.0725   -0.6963 S   0  0  0  0  0  0  0  0  0  0  0  0
   -0.6539    5.2424   -3.4157 C   0  0  0  0  0  0  0  0  0  0  0  0
   -0.5162    4.1366   -4.2611 C   0  0  0  0  0  0  0  0  0  0  0  0
   -0.0090    2.5883   -3.2846 Se  0  0  0  0  0  2  0  0  0  0  0  0
   -0.7530    4.2539   -5.6350 C   0  0  0  0  0  0  0  0  0  0  0  0
   -0.7016    3.3130   -6.6382 C   0  0  0  0  0  0  0  0  0  0  0  0
   -0.3620    1.9090   -6.4532 C   0  0  0  0  0  0  0  0  0  0  0  0
   -0.0562    1.3547   -5.4014 O   0  0  0  0  0  0  0  0  0  0  0  0
   -0.4563    1.2733   -7.7731 C   0  0  0  0  0  0  0  0  0  0  0  0
   -0.2424   -0.0296   -8.1201 C   0  0  0  0  0  0  0  0  0  0  0  0
   -0.4022   -0.4165   -9.4694 C   0  0  0  0  0  0  0  0  0  0  0  0
   -0.1993   -1.7483   -9.8844 C   0  0  0  0  0  0  0  0  0  0  0  0
   -0.3600   -2.1105  -11.1932 C   0  0  0  0  0  0  0  0  0  0  0  0
   -0.7312   -1.1333  -12.1263 C   0  0  0  0  0  0  0  0  0  0  0  0
   -0.8845   -1.5080  -13.4088 F   0  0  0  0  0  0  0  0  0  0  0  0
   -0.9398    0.1725  -11.7769 C   0  0  0  0  0  0  0  0  0  0  0  0
   -0.7800    0.5624  -10.4337 C   0  0  0  0  0  0  0  0  0  0  0  0
   -0.9927    1.9062  -10.0428 C   0  0  0  0  0  0  0  0  0  0  0  0
   -0.8346    2.2588   -8.7301 C   0  0  0  0  0  0  0  0  0  0  0  0
   -0.9876    3.5399   -8.0413 C   0  0  0  0  0  0  0  0  0  0  0  0
   -1.3400    4.7206   -8.6428 C   0  0  0  0  0  0  0  0  0  0  0  0
   -1.4902    5.9647   -7.9955 C   0  0  0  0  0  0  0  0  0  0  0  0
   -1.6337    7.0130   -7.5477 N   0  0  0  0  0  0  0  0  0  0  0  0
   -1.6059    4.8562  -10.0218 C   0  0  0  0  0  0  0  0  0  0  0  0
   -1.8336    5.0377  -11.1321 N   0  0  0  0  0  0  0  0  0  0  0  0
    3.0444   -1.6422    9.7671 H   0  0  0  0  0  0  0  0  0  0  0  0
    4.3298   -6.7799   10.2670 H   0  0  0  0  0  0  0  0  0  0  0  0
    3.8484   -8.8312    8.9344 H   0  0  0  0  0  0  0  0  0  0  0  0
    1.1068   -6.6518    6.4713 H   0  0  0  0  0  0  0  0  0  0  0  0
    2.4783    0.7583    9.1413 H   0  0  0  0  0  0  0  0  0  0  0  0
    1.6092    1.5462   -0.9835 H   0  0  0  0  0  0  0  0  0  0  0  0
    1.7789    0.8764    0.6392 H   0  0  0  0  0  0  0  0  0  0  0  0
    0.3267   -0.6177   -0.6819 H   0  0  0  0  0  0  0  0  0  0  0  0
   -0.6327    0.7408   -1.2638 H   0  0  0  0  0  0  0  0  0  0  0  0
   -0.7706    0.2347    0.4177 H   0  0  0  0  0  0  0  0  0  0  0  0
    0.7210   -0.0645    1.9268 H   0  0  0  0  0  0  0  0  0  0  0  0
    1.3068   -0.7774    3.4318 H   0  0  0  0  0  0  0  0  0  0  0  0
   -1.4153    0.5895    3.0917 H   0  0  0  0  0  0  0  0  0  0  0  0
   -1.1441   -1.1596    3.0980 H   0  0  0  0  0  0  0  0  0  0  0  0
   -0.8339   -0.2133    4.5540 H   0  0  0  0  0  0  0  0  0  0  0  0
   -0.9370    6.2105   -3.7935 H   0  0  0  0  0  0  0  0  0  0  0  0
   -1.0285    5.2599   -5.9312 H   0  0  0  0  0  0  0  0  0  0  0  0
    0.0433   -0.7565   -7.3747 H   0  0  0  0  0  0  0  0  0  0  0  0
    0.0864   -2.4836   -9.1473 H   0  0  0  0  0  0  0  0  0  0  0  0
   -0.2097   -3.1249  -11.5271 H   0  0  0  0  0  0  0  0  0  0  0  0
   -1.2252    0.8984  -12.5223 H   0  0  0  0  0  0  0  0  0  0  0  0
   -1.2778    2.6202  -10.7982 H   0  0  0  0  0  0  0  0  0  0  0  0
  1  2  2  0  0  0  0
  2  3  1  0  0  0  0
  3  4  2  0  0  0  0
  3  5  1  0  0  0  0
  5  6  2  0  0  0  0
  6  7  1  0  0  0  0
  7  8  2  0  0  0  0
  8  9  1  0  0  0  0
  8 10  1  0  0  0  0
 10 11  2  0  0  0  0
 11 12  1  0  0  0  0
 12 13  2  0  0  0  0
 13 14  1  0  0  0  0
 14 15  3  0  0  0  0
 13 16  1  0  0  0  0
 16 17  3  0  0  0  0
  1 18  1  0  0  0  0
 18 19  2  0  0  0  0
 19 20  1  0  0  0  0
 20 21  1  0  0  0  0
 21 22  1  0  0  0  0
 22 23  1  0  0  0  0
 23 24  1  0  0  0  0
 24 25  1  0  0  0  0
 25 26  2  0  0  0  0
 26 27  1  0  0  0  0
 27 28  1  0  0  0  0
 25 29  1  0  0  0  0
 29 30  1  0  0  0  0
 30 31  2  0  0  0  0
 31 32  1  0  0  0  0
 32 33  1  0  0  0  0
 33 34  1  0  0  0  0
 32 35  1  0  0  0  0
 35 36  1  0  0  0  0
 36 37  1  0  0  0  0
 37 38  1  0  0  0  0
 38 39  1  0  0  0  0
 39 40  1  0  0  0  0
 37 41  1  0  0  0  0
 41 42  1  0  0  0  0
 31 43  1  0  0  0  0
 43 44  2  0  0  0  0
 44 45  1  0  0  0  0
 44 46  1  0  0  0  0
 46 47  2  0  0  0  0
 47 48  1  0  0  0  0
 47 49  1  0  0  0  0
 49 50  2  0  0  0  0
 50 51  1  0  0  0  0
 51 52  2  0  0  0  0
 51 53  1  0  0  0  0
 53 54  2  0  0  0  0
 54 55  1  0  0  0  0
 55 56  2  0  0  0  0
 56 57  1  0  0  0  0
 57 58  2  0  0  0  0
 58 59  1  0  0  0  0
 58 60  1  0  0  0  0
 60 61  2  0  0  0  0
 61 62  1  0  0  0  0
 62 63  2  0  0  0  0
 63 64  1  0  0  0  0
 64 65  2  0  0  0  0
 65 66  1  0  0  0  0
 66 67  3  0  0  0  0
 65 68  1  0  0  0  0
 68 69  3  0  0  0  0
 12  2  1  0  0  0  0
 40 18  1  0  0  0  0
 48 43  1  0  0  0  0
 64 50  1  0  0  0  0
 11  5  1  0  0  0  0
 39 20  2  0  0  0  0
 63 53  1  0  0  0  0
 38 22  2  0  0  0  0
 61 55  1  0  0  0  0
 36 23  2  0  0  0  0
 28 24  2  0  0  0  0
 35 29  2  0  0  0  0
 45 30  1  0  0  0  0
  1 70  1  0  0  0  0
  6 71  1  0  0  0  0
  7 72  1  0  0  0  0
 10 73  1  0  0  0  0
 19 74  1  0  0  0  0
 33 75  1  0  0  0  0
 33 76  1  0  0  0  0
 34 77  1  0  0  0  0
 34 78  1  0  0  0  0
 34 79  1  0  0  0  0
 41 80  1  0  0  0  0
 41 81  1  0  0  0  0
 42 82  1  0  0  0  0
 42 83  1  0  0  0  0
 42 84  1  0  0  0  0
 46 85  1  0  0  0  0
 49 86  1  0  0  0  0
 54 87  1  0  0  0  0
 56 88  1  0  0  0  0
 57 89  1  0  0  0  0
 60 90  1  0  0  0  0
 62 91  1  0  0  0  0
M  END
