117

C          6.15640        3.56060       -4.36030
C          7.32550        3.41180       -3.67080
C          8.37400        4.45940       -3.73610
O          8.44140        5.38020       -4.51790
C          9.27730        4.16530       -2.59990
C         10.35400        4.89280       -2.13030
C         11.03670        4.42410       -1.01810
C         10.62860        3.24660       -0.40580
Br        11.56780        2.63900        1.13050
C          9.55580        2.49470       -0.87020
C          8.87880        2.96610       -1.98050
C          7.75570        2.40550       -2.73100
C          7.38560        1.08480       -2.74600
C          7.86920        0.11830       -1.84420
N          8.21050       -0.69620       -1.11050
C          6.54310        0.55230       -3.74360
N          5.90810        0.09240       -4.58240
C          4.90190        2.97480       -4.10630
C          3.82680        2.96850       -4.99230
C          3.97580        3.40180       -6.38750
C          4.84570        2.66670       -7.19200
C          5.03440        3.01070       -8.51530
C          4.37090        4.10880       -9.03790
C          3.52550        4.85050       -8.23490
C          3.30600        4.51170       -6.90470
C          2.40220        5.36880       -6.06150
C          0.95600        5.33350       -6.55590
C          2.68660        2.39880       -4.41800
S          1.08880        2.05790       -5.03720
C          0.66680        1.38410       -3.50430
C         -0.44220        0.81290       -2.86750
C         -1.77360        0.65400       -3.31030
C         -2.74950        0.14730       -2.39300
N         -3.96310        0.10050       -2.91980
S         -3.88230        0.64400       -4.44160
N         -2.29610        0.96240       -4.48700
C         -2.32630       -0.27150       -1.11240
C         -3.03730       -0.88340       -0.07200
S         -4.65920       -1.35090        0.30500
C         -4.08840       -1.97830        1.83360
C         -4.75220       -2.59690        2.89930
C         -6.19840       -2.84470        2.89090
C         -6.75510       -4.11850        3.05180
C         -5.91910       -5.36700        3.02600
C         -5.51600       -5.68800        1.58440
C         -8.13830       -4.22900        3.11240
C         -8.96220       -3.12350        2.99160
C         -8.40820       -1.87670        2.76390
C         -7.03290       -1.74180        2.71440
C         -3.86380       -2.93070        3.92240
S         -2.20000       -2.52290        3.51120
C         -2.70360       -1.84410        2.01220
C         -2.10670       -1.20100        0.92400
N         -0.85810       -0.78270        0.55160
C         -0.96410       -0.19130       -0.69680
C         -0.03070        0.45780       -1.54900
N          1.29090        0.84250       -1.39120
C          1.70720        1.40630       -2.56680
C          2.86440        1.98940       -3.08710
S          4.46690        2.30860       -2.53330
C          2.07020        1.04270       -0.18970
C          1.39610        2.03380        0.75580
C          0.29990       -1.29800        1.24920
C          1.05700       -2.31650        0.40120
C         -4.07600       -3.57930        5.15530
C         -5.21830       -3.70340        5.89580
C         -5.34710       -4.83840        6.84460
O         -4.46970       -5.57980        7.22060
C         -6.79210       -4.90060        7.17030
C         -7.47190       -5.85080        7.90460
C         -8.84890       -5.71620        8.04220
Cl        -9.75630       -6.86830        8.94120
C         -9.49800       -4.63580        7.43980
F        -10.82640       -4.52620        7.56110
C         -8.82040       -3.66920        6.71270
C         -7.44960       -3.80680        6.58040
C         -6.46100       -2.97320        5.90260
C         -6.62070       -1.64970        5.58480
C         -7.83070       -0.94500        5.74170
N         -8.79120       -0.32700        5.85350
C         -5.55260       -0.83610        5.15840
N         -4.69430       -0.14500        4.83750
H          6.17210        4.29580       -5.15960
H         10.65110        5.80490       -2.62380
H         11.88120        4.96760       -0.62350
H          9.26740        1.58570       -0.36670
H          5.35460        1.81330       -6.76780
H          5.70210        2.43020       -9.13320
H          4.52080        4.39250      -10.06890
H          3.03140        5.72070       -8.64150
H          2.76410        6.40040       -6.09790
H          2.43820        5.04180       -5.02100
H          0.88570        5.71310       -7.57180
H          0.32680        5.94710       -5.91550
H          0.57410        4.31580       -6.54470
H         -6.49880       -6.19800        3.43230
H         -5.01950       -5.26190        3.63180
H         -6.39940       -5.81460        0.96290
H         -4.93200       -6.60450        1.55130
H         -4.91870       -4.88000        1.16730
H         -8.57700       -5.20750        3.24710
H        -10.03340       -3.23990        3.05380
H         -9.03860       -1.01100        2.63420
H         -6.59180       -0.76850        2.55580
H          3.03340        1.44850       -0.50900
H          2.27370        0.09020        0.29950
H          0.40000        1.69920        1.03550
H          1.30330        3.00380        0.27270
H          1.99370        2.15230        1.65550
H         -0.07540       -1.78900        2.15040
H          0.94680       -0.48420        1.57640
H          1.38840       -1.88200       -0.53900
H          0.41290       -3.16280        0.17390
H          1.92430       -2.67950        0.94560
H         -3.22300       -4.12830        5.54620
H         -6.94740       -6.67640        8.35850
H         -9.37290       -2.85850        6.26620
