107

C          7.59020       -4.42750       -1.26920
C          7.94060       -5.38310       -0.34960
C          9.33690       -5.89370       -0.41010
O         10.16140       -5.64550       -1.26070
C          9.50910       -6.72670        0.79720
C         10.64450       -7.35640        1.26880
C         10.56310       -8.06410        2.45840
C          9.35620       -8.11790        3.14170
Br         9.27390       -9.07090        4.78440
C          8.20210       -7.49820        2.67570
C          8.28540       -6.79960        1.48410
C          7.26650       -6.06790        0.72200
C          5.91340       -6.21350        0.91430
C          4.91590       -5.68230        0.07940
N          4.04150       -5.28110       -0.54870
C          5.33410       -6.95740        1.96250
N          4.79020       -7.52060        2.80240
C          6.51120       -3.53680       -1.39760
S          6.18430       -3.01120       -3.05770
C          4.82540       -2.14280       -2.50500
C          3.81210       -1.33410       -3.02580
C          3.64620       -0.79500       -4.32020
C          2.62970        0.19290       -4.52210
N          2.63270        0.67920       -5.75320
S          3.81030       -0.05180       -6.58900
N          4.36590       -1.01210       -5.40930
C          1.74170        0.47950       -3.46180
C          0.60820        1.30140       -3.42780
S         -0.23620        2.40320       -4.45720
C         -1.44620        2.59120       -3.20180
C         -2.61080        3.34530       -3.13560
C         -3.09130        4.19050       -4.26960
C         -4.10190        3.42360       -5.12720
C         -3.27730        3.14950       -1.91490
S         -2.42110        2.02520       -0.85970
C         -1.18860        1.82940       -2.04960
C         -0.00090        1.10270       -2.18480
N          0.73080        0.21890       -1.43120
C          1.82750       -0.16950       -2.19320
C          2.96990       -0.97720       -1.93260
N          3.52630       -1.49300       -0.78020
C          4.65580       -2.20620       -1.11190
C          5.64770       -2.95850       -0.46030
C          5.97450       -2.93320        1.00130
C          6.69250       -1.62160        1.34360
C          3.07750       -1.36110        0.58260
C          2.34330       -2.61730        1.05350
C          0.00130       -0.50910       -0.41040
C         -0.69850       -1.72630       -1.01160
C         -4.48110        3.79050       -1.59800
C         -5.28890        3.69550       -0.49420
C         -5.07730        2.82550        0.66630
O         -4.12710        2.08960        0.87830
C         -6.24760        3.00760        1.54040
C         -6.50400        2.35950        2.74610
C         -7.69090        2.72370        3.33540
C         -8.56160        3.66130        2.76450
C         -8.32020        4.30800        1.57550
C         -7.11510        3.95640        0.96150
C         -6.52830        4.42110       -0.29450
C         -7.06240        5.38830       -1.10790
C         -6.50210        5.85480       -2.31510
N         -6.11850        6.29310       -3.30610
C         -8.26230        6.08190       -0.84470
N         -9.22470        6.69140       -0.70050
C         -9.55650        3.54310        3.89130
C         -9.58770        4.67520        4.94750
C         -8.20720        5.28330        4.96470
C         -7.38170        4.39810        5.50700
C         -8.18890        3.17500        5.86570
C         -9.52890        3.83290        6.23190
C         -8.58530        2.50020        4.52910
H          8.31770       -4.35120       -2.07590
H         11.56950       -7.29350        0.71750
H         11.42870       -8.56880        2.85840
H          7.28810       -7.56420        3.24330
H         -3.54830        5.11280       -3.90780
H         -2.22990        4.45500       -4.88620
H         -4.43160        4.04690       -5.95350
H         -3.64820        2.52070       -5.52930
H         -4.97200        3.14250       -4.53840
H          6.64850       -3.75020        1.24730
H          5.07700       -3.04230        1.61050
H          6.89340       -1.57510        2.41120
H          7.63940       -1.56880        0.81100
H          6.10070       -0.75350        1.06170
H          3.95520       -1.19970        1.21210
H          2.46350       -0.46290        0.66200
H          2.07160       -2.52270        2.10170
H          2.98170       -3.48910        0.93030
H          1.44520       -2.79720        0.47090
H          0.64490       -0.81320        0.40730
H         -0.74450        0.18170       -0.00900
H         -1.25010       -2.25400       -0.23860
H          0.02520       -2.40620       -1.45740
H         -1.39790       -1.41540       -1.78400
H         -4.82050        4.46110       -2.37520
H         -5.80810        1.63930        3.14710
H         -9.00390        5.02270        1.14950
H        -10.55360        3.20790        3.61290
H        -10.41660        5.36950        4.84040
H         -7.97020        6.24200        4.54190
H         -6.31650        4.46930        5.62750
H         -7.74480        2.50350        6.59600
H        -10.35010        3.12340        6.32350
H         -9.46680        4.44200        7.13240
H         -8.94910        1.48400        4.66920
