
  xtb     02022200153D
 energy: -225.698077375137 gnorm: 0.000751698326 xtb: 6.4.1 (unknown)
130146  0     0  0            999 V2000
   -3.7471   -6.2358    3.4006 C   0  0  0  0  0  0  0  0  0  0  0  0
   -4.1020   -7.5572    3.4947 C   0  0  0  0  0  0  0  0  0  0  0  0
   -3.8813   -8.5714    2.4446 C   0  0  0  0  0  0  0  0  0  0  0  0
   -3.3480   -8.4178    1.3657 O   0  0  0  0  0  0  0  0  0  0  0  0
   -4.2904   -9.8577    3.0452 C   0  0  0  0  0  0  0  0  0  0  0  0
   -4.3085  -11.1128    2.4692 C   0  0  0  0  0  0  0  0  0  0  0  0
   -4.7130  -12.1899    3.2423 C   0  0  0  0  0  0  0  0  0  0  0  0
   -5.0740  -11.9848    4.5671 C   0  0  0  0  0  0  0  0  0  0  0  0
   -5.6104  -13.4798    5.6111 Br  0  0  0  0  0  0  0  0  0  0  0  0
   -5.0578  -10.7295    5.1633 C   0  0  0  0  0  0  0  0  0  0  0  0
   -4.6629   -9.6545    4.3849 C   0  0  0  0  0  0  0  0  0  0  0  0
   -4.5617   -8.2265    4.6902 C   0  0  0  0  0  0  0  0  0  0  0  0
   -4.9409   -7.6333    5.8675 C   0  0  0  0  0  0  0  0  0  0  0  0
   -5.3970   -8.3392    6.9994 C   0  0  0  0  0  0  0  0  0  0  0  0
   -5.7665   -8.8590    7.9539 N   0  0  0  0  0  0  0  0  0  0  0  0
   -4.9651   -6.2416    6.0953 C   0  0  0  0  0  0  0  0  0  0  0  0
   -5.0402   -5.1223    6.3418 N   0  0  0  0  0  0  0  0  0  0  0  0
   -3.5334   -5.4864    2.2305 C   0  0  0  0  0  0  0  0  0  0  0  0
   -4.0557   -5.6040    0.9409 C   0  0  0  0  0  0  0  0  0  0  0  0
   -5.0487   -6.5723    0.4651 C   0  0  0  0  0  0  0  0  0  0  0  0
   -4.6844   -7.3471   -0.6374 C   0  0  0  0  0  0  0  0  0  0  0  0
   -5.5440   -8.2963   -1.1506 C   0  0  0  0  0  0  0  0  0  0  0  0
   -6.7935   -8.4632   -0.5798 C   0  0  0  0  0  0  0  0  0  0  0  0
   -7.1755   -7.6651    0.4822 C   0  0  0  0  0  0  0  0  0  0  0  0
   -6.3211   -6.7138    1.0282 C   0  0  0  0  0  0  0  0  0  0  0  0
   -6.8268   -5.8238    2.1344 C   0  0  0  0  0  0  0  0  0  0  0  0
   -7.4816   -6.5989    3.2785 C   0  0  0  0  0  0  0  0  0  0  0  0
   -3.5468   -4.6086    0.0984 C   0  0  0  0  0  0  0  0  0  0  0  0
   -3.8153   -4.2670   -1.5953 S   0  0  0  0  0  0  0  0  0  0  0  0
   -2.7443   -2.9166   -1.4616 C   0  0  0  0  0  0  0  0  0  0  0  0
   -2.1682   -1.9385   -2.2832 C   0  0  0  0  0  0  0  0  0  0  0  0
   -2.2115   -1.7608   -3.6839 C   0  0  0  0  0  0  0  0  0  0  0  0
   -1.3632   -0.7715   -4.2824 C   0  0  0  0  0  0  0  0  0  0  0  0
   -1.4488   -0.7649   -5.6035 N   0  0  0  0  0  0  0  0  0  0  0  0
   -2.5119   -1.8982   -6.0544 S   0  0  0  0  0  0  0  0  0  0  0  0
   -2.9003   -2.4469   -4.5823 N   0  0  0  0  0  0  0  0  0  0  0  0
   -0.6077    0.0775   -3.4441 C   0  0  0  0  0  0  0  0  0  0  0  0
    0.2107    1.1786   -3.7411 C   0  0  0  0  0  0  0  0  0  0  0  0
    0.7792    2.0619   -5.1138 S   0  0  0  0  0  0  0  0  0  0  0  0
    1.5629    3.1939   -4.0366 C   0  0  0  0  0  0  0  0  0  0  0  0
    2.2718    4.3855   -4.2446 C   0  0  0  0  0  0  0  0  0  0  0  0
    2.5303    5.0373   -5.5346 C   0  0  0  0  0  0  0  0  0  0  0  0
    3.3638    4.4795   -6.5058 C   0  0  0  0  0  0  0  0  0  0  0  0
    4.0764    3.1709   -6.3000 C   0  0  0  0  0  0  0  0  0  0  0  0
    3.6149    2.1077   -7.2974 C   0  0  0  0  0  0  0  0  0  0  0  0
    3.5670    5.1881   -7.6842 C   0  0  0  0  0  0  0  0  0  0  0  0
    2.9556    6.4068   -7.9083 C   0  0  0  0  0  0  0  0  0  0  0  0
    2.1300    6.9538   -6.9397 C   0  0  0  0  0  0  0  0  0  0  0  0
    1.9284    6.2757   -5.7546 C   0  0  0  0  0  0  0  0  0  0  0  0
    2.6086    4.9956   -3.0414 C   0  0  0  0  0  0  0  0  0  0  0  0
    2.1138    4.0415   -1.6471 S   0  0  0  0  0  0  0  0  0  0  0  0
    1.3812    2.8768   -2.6840 C   0  0  0  0  0  0  0  0  0  0  0  0
    0.6111    1.7250   -2.5178 C   0  0  0  0  0  0  0  0  0  0  0  0
    0.0911    1.0011   -1.4754 N   0  0  0  0  0  0  0  0  0  0  0  0
   -0.6537   -0.0327   -2.0243 C   0  0  0  0  0  0  0  0  0  0  0  0
   -1.3398   -1.1325   -1.4486 C   0  0  0  0  0  0  0  0  0  0  0  0
   -1.3784   -1.6497   -0.1687 N   0  0  0  0  0  0  0  0  0  0  0  0
   -2.2277   -2.7239   -0.1731 C   0  0  0  0  0  0  0  0  0  0  0  0
   -2.6794   -3.6973    0.7210 C   0  0  0  0  0  0  0  0  0  0  0  0
   -2.4815   -4.0741    2.3901 S   0  0  0  0  0  0  0  0  0  0  0  0
   -0.5142   -1.4180    0.9662 C   0  0  0  0  0  0  0  0  0  0  0  0
   -1.2552   -0.7392    2.1188 C   0  0  0  0  0  0  0  0  0  0  0  0
   -0.0788    1.6933   -0.2137 C   0  0  0  0  0  0  0  0  0  0  0  0
   -1.1730    2.7560   -0.3108 C   0  0  0  0  0  0  0  0  0  0  0  0
    3.3496    6.1906   -2.8993 C   0  0  0  0  0  0  0  0  0  0  0  0
    3.4359    7.0004   -1.8089 C   0  0  0  0  0  0  0  0  0  0  0  0
    4.5945    7.9146   -1.6347 C   0  0  0  0  0  0  0  0  0  0  0  0
    5.3974    8.2402   -2.4799 O   0  0  0  0  0  0  0  0  0  0  0  0
    4.5851    8.2796   -0.2029 C   0  0  0  0  0  0  0  0  0  0  0  0
    5.5441    9.0183    0.4860 C   0  0  0  0  0  0  0  0  0  0  0  0
    5.2769    9.1741    1.8253 C   0  0  0  0  0  0  0  0  0  0  0  0
    4.1382    8.6373    2.4417 C   0  0  0  0  0  0  0  0  0  0  0  0
    3.1764    7.9173    1.7739 C   0  0  0  0  0  0  0  0  0  0  0  0
    3.4317    7.7462    0.4115 C   0  0  0  0  0  0  0  0  0  0  0  0
    2.6291    7.0846   -0.6117 C   0  0  0  0  0  0  0  0  0  0  0  0
    1.2806    6.8427   -0.5404 C   0  0  0  0  0  0  0  0  0  0  0  0
    0.5076    6.9569    0.6298 C   0  0  0  0  0  0  0  0  0  0  0  0
   -0.1678    6.9910    1.5583 N   0  0  0  0  0  0  0  0  0  0  0  0
    0.5054    6.5137   -1.6713 C   0  0  0  0  0  0  0  0  0  0  0  0
   -0.1609    6.2959   -2.5811 N   0  0  0  0  0  0  0  0  0  0  0  0
    4.5249    9.1677    3.7992 C   0  0  0  0  0  0  0  0  0  0  0  0
    5.1285    8.1711    4.8196 C   0  0  0  0  0  0  0  0  0  0  0  0
    5.7810    7.0745    4.0151 C   0  0  0  0  0  0  0  0  0  0  0  0
    6.8571    7.5854    3.4320 C   0  0  0  0  0  0  0  0  0  0  0  0
    6.9517    9.0370    3.8316 C   0  0  0  0  0  0  0  0  0  0  0  0
    6.3714    8.9648    5.2531 C   0  0  0  0  0  0  0  0  0  0  0  0
    5.7915    9.7688    3.1123 C   0  0  0  0  0  0  0  0  0  0  0  0
   -3.5777   -5.6912    4.3229 H   0  0  0  0  0  0  0  0  0  0  0  0
   -4.0176  -11.2399    1.4382 H   0  0  0  0  0  0  0  0  0  0  0  0
   -4.7468  -13.1846    2.8257 H   0  0  0  0  0  0  0  0  0  0  0  0
   -5.3416  -10.6186    6.1973 H   0  0  0  0  0  0  0  0  0  0  0  0
   -3.7030   -7.2181   -1.0655 H   0  0  0  0  0  0  0  0  0  0  0  0
   -5.2409   -8.8987   -1.9932 H   0  0  0  0  0  0  0  0  0  0  0  0
   -7.4777   -9.2021   -0.9702 H   0  0  0  0  0  0  0  0  0  0  0  0
   -8.1678   -7.7753    0.8928 H   0  0  0  0  0  0  0  0  0  0  0  0
   -6.0142   -5.2180    2.5339 H   0  0  0  0  0  0  0  0  0  0  0  0
   -7.5641   -5.1354    1.7092 H   0  0  0  0  0  0  0  0  0  0  0  0
   -8.4554   -6.9852    2.9904 H   0  0  0  0  0  0  0  0  0  0  0  0
   -7.6173   -5.9483    4.1394 H   0  0  0  0  0  0  0  0  0  0  0  0
   -6.8596   -7.4404    3.5752 H   0  0  0  0  0  0  0  0  0  0  0  0
    3.9133    2.8098   -5.2832 H   0  0  0  0  0  0  0  0  0  0  0  0
    5.1510    3.3326   -6.4263 H   0  0  0  0  0  0  0  0  0  0  0  0
    3.8418    2.4093   -8.3167 H   0  0  0  0  0  0  0  0  0  0  0  0
    4.1173    1.1640   -7.0979 H   0  0  0  0  0  0  0  0  0  0  0  0
    2.5419    1.9523   -7.2191 H   0  0  0  0  0  0  0  0  0  0  0  0
    4.2286    4.7782   -8.4337 H   0  0  0  0  0  0  0  0  0  0  0  0
    3.1304    6.9349   -8.8338 H   0  0  0  0  0  0  0  0  0  0  0  0
    1.6522    7.9077   -7.1031 H   0  0  0  0  0  0  0  0  0  0  0  0
    1.2845    6.6859   -4.9903 H   0  0  0  0  0  0  0  0  0  0  0  0
   -0.1534   -2.3937    1.3111 H   0  0  0  0  0  0  0  0  0  0  0  0
    0.3550   -0.8463    0.6387 H   0  0  0  0  0  0  0  0  0  0  0  0
   -1.9847   -1.4216    2.5463 H   0  0  0  0  0  0  0  0  0  0  0  0
   -1.7857    0.1501    1.7858 H   0  0  0  0  0  0  0  0  0  0  0  0
   -0.5513   -0.4604    2.8978 H   0  0  0  0  0  0  0  0  0  0  0  0
    0.8777    2.1677    0.0262 H   0  0  0  0  0  0  0  0  0  0  0  0
   -0.3290    0.9962    0.5755 H   0  0  0  0  0  0  0  0  0  0  0  0
   -2.1278    2.2946   -0.5544 H   0  0  0  0  0  0  0  0  0  0  0  0
   -1.2655    3.2750    0.6393 H   0  0  0  0  0  0  0  0  0  0  0  0
   -0.9390    3.4888   -1.0792 H   0  0  0  0  0  0  0  0  0  0  0  0
    3.9847    6.4539   -3.7397 H   0  0  0  0  0  0  0  0  0  0  0  0
    6.4067    9.4190   -0.0230 H   0  0  0  0  0  0  0  0  0  0  0  0
    2.3030    7.5055    2.2532 H   0  0  0  0  0  0  0  0  0  0  0  0
    3.8189    9.8558    4.2599 H   0  0  0  0  0  0  0  0  0  0  0  0
    4.4414    7.8515    5.5986 H   0  0  0  0  0  0  0  0  0  0  0  0
    5.3741    6.0858    3.9096 H   0  0  0  0  0  0  0  0  0  0  0  0
    7.5287    7.1090    2.7419 H   0  0  0  0  0  0  0  0  0  0  0  0
    7.9248    9.5056    3.7113 H   0  0  0  0  0  0  0  0  0  0  0  0
    6.1372    9.9405    5.6763 H   0  0  0  0  0  0  0  0  0  0  0  0
    7.0077    8.4089    5.9400 H   0  0  0  0  0  0  0  0  0  0  0  0
    5.9122   10.8502    3.1241 H   0  0  0  0  0  0  0  0  0  0  0  0
  1  2  2  0  0  0  0
  2  3  1  0  0  0  0
  3  4  2  0  0  0  0
  3  5  1  0  0  0  0
  5  6  2  0  0  0  0
  6  7  1  0  0  0  0
  7  8  2  0  0  0  0
  8  9  1  0  0  0  0
  8 10  1  0  0  0  0
 10 11  2  0  0  0  0
 11 12  1  0  0  0  0
 12 13  2  0  0  0  0
 13 14  1  0  0  0  0
 14 15  3  0  0  0  0
 13 16  1  0  0  0  0
 16 17  3  0  0  0  0
  1 18  1  0  0  0  0
 18 19  2  0  0  0  0
 19 20  1  0  0  0  0
 20 21  2  0  0  0  0
 21 22  1  0  0  0  0
 22 23  2  0  0  0  0
 23 24  1  0  0  0  0
 24 25  2  0  0  0  0
 25 26  1  0  0  0  0
 26 27  1  0  0  0  0
 19 28  1  0  0  0  0
 28 29  1  0  0  0  0
 29 30  1  0  0  0  0
 30 31  1  0  0  0  0
 31 32  1  0  0  0  0
 32 33  1  0  0  0  0
 33 34  2  0  0  0  0
 34 35  1  0  0  0  0
 35 36  1  0  0  0  0
 33 37  1  0  0  0  0
 37 38  1  0  0  0  0
 38 39  1  0  0  0  0
 39 40  1  0  0  0  0
 40 41  1  0  0  0  0
 41 42  1  0  0  0  0
 42 43  2  0  0  0  0
 43 44  1  0  0  0  0
 44 45  1  0  0  0  0
 43 46  1  0  0  0  0
 46 47  2  0  0  0  0
 47 48  1  0  0  0  0
 48 49  2  0  0  0  0
 41 50  2  0  0  0  0
 50 51  1  0  0  0  0
 51 52  1  0  0  0  0
 52 53  1  0  0  0  0
 53 54  1  0  0  0  0
 54 55  1  0  0  0  0
 55 56  1  0  0  0  0
 56 57  1  0  0  0  0
 57 58  1  0  0  0  0
 58 59  1  0  0  0  0
 59 60  1  0  0  0  0
 57 61  1  0  0  0  0
 61 62  1  0  0  0  0
 54 63  1  0  0  0  0
 63 64  1  0  0  0  0
 50 65  1  0  0  0  0
 65 66  2  0  0  0  0
 66 67  1  0  0  0  0
 67 68  2  0  0  0  0
 67 69  1  0  0  0  0
 69 70  2  0  0  0  0
 70 71  1  0  0  0  0
 71 72  2  0  0  0  0
 72 73  1  0  0  0  0
 73 74  2  0  0  0  0
 74 75  1  0  0  0  0
 75 76  2  0  0  0  0
 76 77  1  0  0  0  0
 77 78  3  0  0  0  0
 76 79  1  0  0  0  0
 79 80  3  0  0  0  0
 72 81  1  0  0  0  0
 81 82  1  0  0  0  0
 82 83  1  0  0  0  0
 83 84  2  0  0  0  0
 84 85  1  0  0  0  0
 85 86  1  0  0  0  0
 85 87  1  0  0  0  0
 12  2  1  0  0  0  0
 60 18  1  0  0  0  0
 75 66  1  0  0  0  0
 87 81  1  0  0  0  0
 11  5  1  0  0  0  0
 25 20  1  0  0  0  0
 59 28  2  0  0  0  0
 74 69  1  0  0  0  0
 86 82  1  0  0  0  0
 58 30  2  0  0  0  0
 87 71  1  0  0  0  0
 56 31  2  0  0  0  0
 36 32  2  0  0  0  0
 55 37  2  0  0  0  0
 53 38  2  0  0  0  0
 52 40  2  0  0  0  0
 49 42  1  0  0  0  0
  1 88  1  0  0  0  0
  6 89  1  0  0  0  0
  7 90  1  0  0  0  0
 10 91  1  0  0  0  0
 21 92  1  0  0  0  0
 22 93  1  0  0  0  0
 23 94  1  0  0  0  0
 24 95  1  0  0  0  0
 26 96  1  0  0  0  0
 26 97  1  0  0  0  0
 27 98  1  0  0  0  0
 27 99  1  0  0  0  0
 27100  1  0  0  0  0
 44101  1  0  0  0  0
 44102  1  0  0  0  0
 45103  1  0  0  0  0
 45104  1  0  0  0  0
 45105  1  0  0  0  0
 46106  1  0  0  0  0
 47107  1  0  0  0  0
 48108  1  0  0  0  0
 49109  1  0  0  0  0
 61110  1  0  0  0  0
 61111  1  0  0  0  0
 62112  1  0  0  0  0
 62113  1  0  0  0  0
 62114  1  0  0  0  0
 63115  1  0  0  0  0
 63116  1  0  0  0  0
 64117  1  0  0  0  0
 64118  1  0  0  0  0
 64119  1  0  0  0  0
 65120  1  0  0  0  0
 70121  1  0  0  0  0
 73122  1  0  0  0  0
 81123  1  0  0  0  0
 82124  1  0  0  0  0
 83125  1  0  0  0  0
 84126  1  0  0  0  0
 85127  1  0  0  0  0
 86128  1  0  0  0  0
 86129  1  0  0  0  0
 87130  1  0  0  0  0
M  END
