85

C         -7.97400        1.84620       -0.25400
C         -8.37250        2.34570       -1.47430
C         -7.52430        2.46310       -2.65090
O         -6.34730        2.13370       -2.75500
C         -8.35240        3.06000       -3.70930
C         -8.01120        3.37750       -5.01030
C         -8.97880        3.93920       -5.82820
C        -10.25320        4.16610       -5.32600
Br       -11.56290        4.93540       -6.46610
C        -10.61170        3.85180       -4.01900
C         -9.64450        3.29180       -3.20310
C         -9.68920        2.85260       -1.80470
C        -10.78930        2.92490       -0.99190
C        -12.03900        3.44350       -1.39460
N        -13.07790        3.85430       -1.65750
C        -10.84950        2.50020        0.35270
N        -10.98410        2.17860        1.44690
C         -6.73610        1.35150        0.16680
C         -6.55030        0.90620        1.48090
C         -5.28100        0.45060        1.77300
S         -4.61050       -0.18470        3.26600
C         -3.09510       -0.38920        2.46060
C         -1.81170       -0.88130        2.71810
C         -1.28560       -1.48390        3.88190
C          0.05430       -1.98300        3.85330
N          0.40810       -2.55270        4.99460
S         -0.84160       -2.46450        6.01890
N         -1.88110       -1.69710        5.04490
C          0.82670       -1.78960        2.68690
C          2.16970       -2.09380        2.43760
C          2.46470       -1.60720        1.15800
N          1.35220       -1.02430        0.61470
C          1.48380       -0.34430       -0.65090
C          1.43790       -1.31910       -1.82730
C          0.31480       -1.13480        1.52380
C         -1.05100       -0.73630        1.51440
N         -1.88760       -0.20110        0.55270
C         -3.11230        0.01890        1.12170
C         -4.35600        0.49810        0.70590
Se        -5.13650        1.18250       -0.84410
C         -1.74690        0.02310       -0.86610
C         -1.52890        1.50050       -1.19240
C          3.80200       -1.80200        0.80500
C          4.51050       -2.45200        1.84120
S          3.51810       -2.81740        3.23670
C          5.85840       -2.68900        1.61380
C          6.31750       -2.24660        0.38280
Se         4.92190       -1.42680       -0.63100
C          7.58840       -2.25510       -0.21320
C          8.79030       -2.77660        0.19060
C          9.09120       -3.63230        1.35290
O          8.38900       -3.89860        2.30320
C         10.45990       -4.15360        1.11370
C         11.15830       -5.10080        1.84200
Cl        10.54870       -5.73240        3.30470
C         12.39070       -5.54490        1.34040
Cl        13.30550       -6.68980        2.22030
C         12.84980       -5.08910        0.10570
Cl        14.30490       -5.72210       -0.53230
C         12.13330       -4.13160       -0.63060
Cl        12.66710       -3.75370       -2.21600
C         10.96780       -3.61130       -0.08340
C         10.02830       -2.59810       -0.55370
C         10.32210       -1.52780       -1.35670
C          9.39370       -0.53290       -1.73840
N          8.70300        0.31100       -2.09810
C         11.61460       -1.14080       -1.77500
N         12.62180       -0.68320       -2.07920
H         -8.72490        1.82850        0.52790
H         -7.01260        3.18940       -5.37230
H         -8.75110        4.20090       -6.84980
H        -11.61420        4.04730       -3.67520
H         -7.35050        0.92610        2.20150
H          0.72720        0.42980       -0.73440
H          2.46370        0.15170       -0.64990
H          0.55560       -1.95450       -1.78710
H          2.31420       -1.96560       -1.81060
H          1.43610       -0.76840       -2.76350
H         -0.95390       -0.60470       -1.26190
H         -2.68700       -0.29600       -1.33700
H         -1.30610        1.61570       -2.24920
H         -2.43240        2.06780       -0.97120
H         -0.71600        1.92620       -0.60750
H          6.50590       -3.17270        2.32380
H          7.60240       -1.77300       -1.18610
