
  xtb     02022201523D
 energy: -211.905636708938 gnorm: 0.000464259939 xtb: 6.4.1 (unknown)
117130  0     0  0            999 V2000
    7.2393    1.9777    2.5093 C   0  0  0  0  0  0  0  0  0  0  0  0
    8.0918    2.7588    3.2344 C   0  0  0  0  0  0  0  0  0  0  0  0
    9.5563    2.6776    2.9886 C   0  0  0  0  0  0  0  0  0  0  0  0
   10.1468    1.8227    2.3698 O   0  0  0  0  0  0  0  0  0  0  0  0
   10.1140    3.9032    3.6065 C   0  0  0  0  0  0  0  0  0  0  0  0
   11.3952    4.4165    3.5342 C   0  0  0  0  0  0  0  0  0  0  0  0
   11.6543    5.6364    4.1403 C   0  0  0  0  0  0  0  0  0  0  0  0
   10.6332    6.3102    4.7978 C   0  0  0  0  0  0  0  0  0  0  0  0
   11.0031    8.0026    5.5761 Br  0  0  0  0  0  0  0  0  0  0  0  0
    9.3443    5.8004    4.8986 C   0  0  0  0  0  0  0  0  0  0  0  0
    9.0932    4.5816    4.2969 C   0  0  0  0  0  0  0  0  0  0  0  0
    7.8667    3.7916    4.2137 C   0  0  0  0  0  0  0  0  0  0  0  0
    6.8213    3.8542    5.0956 C   0  0  0  0  0  0  0  0  0  0  0  0
    6.7327    4.7995    6.1369 C   0  0  0  0  0  0  0  0  0  0  0  0
    6.6245    5.5487    6.9992 N   0  0  0  0  0  0  0  0  0  0  0  0
    5.7824    2.9024    5.1061 C   0  0  0  0  0  0  0  0  0  0  0  0
    4.9419    2.1222    5.1499 N   0  0  0  0  0  0  0  0  0  0  0  0
    5.8664    2.1579    2.2410 C   0  0  0  0  0  0  0  0  0  0  0  0
    5.0755    3.3074    2.2454 C   0  0  0  0  0  0  0  0  0  0  0  0
    5.5180    4.6756    2.5435 C   0  0  0  0  0  0  0  0  0  0  0  0
    4.8675    5.3341    3.5873 C   0  0  0  0  0  0  0  0  0  0  0  0
    5.2520    6.6030    3.9767 C   0  0  0  0  0  0  0  0  0  0  0  0
    6.2921    7.2288    3.3131 C   0  0  0  0  0  0  0  0  0  0  0  0
    6.8979    6.6045    2.2373 C   0  0  0  0  0  0  0  0  0  0  0  0
    6.5235    5.3316    1.8230 C   0  0  0  0  0  0  0  0  0  0  0  0
    7.1063    4.7460    0.5624 C   0  0  0  0  0  0  0  0  0  0  0  0
    8.6063    4.9714    0.3859 C   0  0  0  0  0  0  0  0  0  0  0  0
    3.7533    3.0149    1.8928 C   0  0  0  0  0  0  0  0  0  0  0  0
    2.3380    4.0276    1.7359 S   0  0  0  0  0  0  0  0  0  0  0  0
    1.4321    2.6311    1.2694 C   0  0  0  0  0  0  0  0  0  0  0  0
    0.1182    2.2895    0.9272 C   0  0  0  0  0  0  0  0  0  0  0  0
   -1.0512    3.0802    0.9063 C   0  0  0  0  0  0  0  0  0  0  0  0
   -2.2992    2.4551    0.5926 C   0  0  0  0  0  0  0  0  0  0  0  0
   -3.3173    3.2997    0.6460 N   0  0  0  0  0  0  0  0  0  0  0  0
   -2.7495    4.7588    1.0559 S   0  0  0  0  0  0  0  0  0  0  0  0
   -1.1836    4.3690    1.1788 N   0  0  0  0  0  0  0  0  0  0  0  0
   -2.3018    1.0913    0.2271 C   0  0  0  0  0  0  0  0  0  0  0  0
   -3.3462    0.2887   -0.2488 C   0  0  0  0  0  0  0  0  0  0  0  0
   -5.0388    0.4057   -0.5851 S   0  0  0  0  0  0  0  0  0  0  0  0
   -4.9916   -1.2203   -1.2286 C   0  0  0  0  0  0  0  0  0  0  0  0
   -5.9806   -2.0364   -1.7905 C   0  0  0  0  0  0  0  0  0  0  0  0
   -7.3854   -1.6314   -1.8886 C   0  0  0  0  0  0  0  0  0  0  0  0
   -8.4280   -2.3739   -1.3232 C   0  0  0  0  0  0  0  0  0  0  0  0
   -8.1815   -3.5356   -0.3997 C   0  0  0  0  0  0  0  0  0  0  0  0
   -7.6815   -3.0345    0.9569 C   0  0  0  0  0  0  0  0  0  0  0  0
   -9.7304   -1.9406   -1.5335 C   0  0  0  0  0  0  0  0  0  0  0  0
  -10.0072   -0.8022   -2.2702 C   0  0  0  0  0  0  0  0  0  0  0  0
   -8.9680   -0.0451   -2.7799 C   0  0  0  0  0  0  0  0  0  0  0  0
   -7.6639   -0.4568   -2.5848 C   0  0  0  0  0  0  0  0  0  0  0  0
   -5.4524   -3.2637   -2.1920 C   0  0  0  0  0  0  0  0  0  0  0  0
   -3.7450   -3.4202   -1.7749 S   0  0  0  0  0  0  0  0  0  0  0  0
   -3.7223   -1.8143   -1.1516 C   0  0  0  0  0  0  0  0  0  0  0  0
   -2.7835   -0.9472   -0.5862 C   0  0  0  0  0  0  0  0  0  0  0  0
   -1.4423   -0.9381   -0.3195 N   0  0  0  0  0  0  0  0  0  0  0  0
   -1.1120    0.3013    0.1980 C   0  0  0  0  0  0  0  0  0  0  0  0
    0.1059    0.8908    0.6410 C   0  0  0  0  0  0  0  0  0  0  0  0
    1.3835    0.4039    0.8570 N   0  0  0  0  0  0  0  0  0  0  0  0
    2.1833    1.4517    1.2239 C   0  0  0  0  0  0  0  0  0  0  0  0
    3.5166    1.6669    1.5856 C   0  0  0  0  0  0  0  0  0  0  0  0
    4.9589    0.7372    1.7294 S   0  0  0  0  0  0  0  0  0  0  0  0
    1.9074   -0.9391    0.9570 C   0  0  0  0  0  0  0  0  0  0  0  0
    2.7981   -1.2976   -0.2330 C   0  0  0  0  0  0  0  0  0  0  0  0
   -0.6479   -2.0726   -0.7286 C   0  0  0  0  0  0  0  0  0  0  0  0
   -0.7708   -3.2368    0.2545 C   0  0  0  0  0  0  0  0  0  0  0  0
   -6.0741   -4.3779   -2.7862 C   0  0  0  0  0  0  0  0  0  0  0  0
   -7.1673   -4.3640   -3.6152 C   0  0  0  0  0  0  0  0  0  0  0  0
   -7.5822   -3.2141   -4.4456 C   0  0  0  0  0  0  0  0  0  0  0  0
   -7.0516   -2.1260   -4.5221 O   0  0  0  0  0  0  0  0  0  0  0  0
   -8.6833   -3.7162   -5.2922 C   0  0  0  0  0  0  0  0  0  0  0  0
   -9.4253   -3.0300   -6.2339 C   0  0  0  0  0  0  0  0  0  0  0  0
  -10.4040   -3.7181   -6.9337 C   0  0  0  0  0  0  0  0  0  0  0  0
  -10.5960   -5.0672   -6.6754 C   0  0  0  0  0  0  0  0  0  0  0  0
  -11.5409   -5.7211   -7.3710 F   0  0  0  0  0  0  0  0  0  0  0  0
   -9.8615   -5.7786   -5.7362 C   0  0  0  0  0  0  0  0  0  0  0  0
   -8.8925   -5.0819   -5.0340 C   0  0  0  0  0  0  0  0  0  0  0  0
   -7.9727   -5.5057   -3.9789 C   0  0  0  0  0  0  0  0  0  0  0  0
   -7.9651   -6.7334   -3.3677 C   0  0  0  0  0  0  0  0  0  0  0  0
   -7.1605   -7.0664   -2.2584 C   0  0  0  0  0  0  0  0  0  0  0  0
   -6.5572   -7.3886   -1.3357 N   0  0  0  0  0  0  0  0  0  0  0  0
   -8.7881   -7.8131   -3.7479 C   0  0  0  0  0  0  0  0  0  0  0  0
   -9.4234   -8.7305   -4.0172 N   0  0  0  0  0  0  0  0  0  0  0  0
    7.7071    1.1314    2.0136 H   0  0  0  0  0  0  0  0  0  0  0  0
   12.1692    3.8795    3.0083 H   0  0  0  0  0  0  0  0  0  0  0  0
   12.6409    6.0710    4.0972 H   0  0  0  0  0  0  0  0  0  0  0  0
    8.5729    6.3530    5.4105 H   0  0  0  0  0  0  0  0  0  0  0  0
    4.0635    4.8313    4.1051 H   0  0  0  0  0  0  0  0  0  0  0  0
    4.7461    7.0931    4.7936 H   0  0  0  0  0  0  0  0  0  0  0  0
    6.6151    8.2137    3.6148 H   0  0  0  0  0  0  0  0  0  0  0  0
    7.6707    7.1286    1.6968 H   0  0  0  0  0  0  0  0  0  0  0  0
    6.9034    3.6762    0.5197 H   0  0  0  0  0  0  0  0  0  0  0  0
    6.5827    5.2053   -0.2834 H   0  0  0  0  0  0  0  0  0  0  0  0
    9.1553    4.6397    1.2638 H   0  0  0  0  0  0  0  0  0  0  0  0
    8.9627    4.4043   -0.4707 H   0  0  0  0  0  0  0  0  0  0  0  0
    8.8364    6.0191    0.2126 H   0  0  0  0  0  0  0  0  0  0  0  0
   -7.4506   -4.2319   -0.8123 H   0  0  0  0  0  0  0  0  0  0  0  0
   -9.1144   -4.0841   -0.2562 H   0  0  0  0  0  0  0  0  0  0  0  0
   -8.4031   -2.3500    1.3974 H   0  0  0  0  0  0  0  0  0  0  0  0
   -6.7363   -2.5077    0.8455 H   0  0  0  0  0  0  0  0  0  0  0  0
   -7.5341   -3.8712    1.6353 H   0  0  0  0  0  0  0  0  0  0  0  0
  -10.5446   -2.5072   -1.1039 H   0  0  0  0  0  0  0  0  0  0  0  0
  -11.0319   -0.5005   -2.4290 H   0  0  0  0  0  0  0  0  0  0  0  0
   -9.1696    0.8605   -3.3312 H   0  0  0  0  0  0  0  0  0  0  0  0
   -6.8479    0.1132   -3.0000 H   0  0  0  0  0  0  0  0  0  0  0  0
    2.5121   -0.9854    1.8693 H   0  0  0  0  0  0  0  0  0  0  0  0
    1.0856   -1.6398    1.0735 H   0  0  0  0  0  0  0  0  0  0  0  0
    3.0674   -2.3489   -0.1864 H   0  0  0  0  0  0  0  0  0  0  0  0
    3.7111   -0.7090   -0.2090 H   0  0  0  0  0  0  0  0  0  0  0  0
    2.3008   -1.1017   -1.1809 H   0  0  0  0  0  0  0  0  0  0  0  0
   -1.0270   -2.3994   -1.7031 H   0  0  0  0  0  0  0  0  0  0  0  0
    0.3840   -1.7647   -0.8644 H   0  0  0  0  0  0  0  0  0  0  0  0
   -0.5400   -2.9280    1.2719 H   0  0  0  0  0  0  0  0  0  0  0  0
   -0.0929   -4.0350   -0.0341 H   0  0  0  0  0  0  0  0  0  0  0  0
   -1.7843   -3.6286    0.2461 H   0  0  0  0  0  0  0  0  0  0  0  0
   -5.6061   -5.3329   -2.5728 H   0  0  0  0  0  0  0  0  0  0  0  0
   -9.2409   -1.9815   -6.4075 H   0  0  0  0  0  0  0  0  0  0  0  0
  -11.0163   -3.2302   -7.6754 H   0  0  0  0  0  0  0  0  0  0  0  0
  -10.0582   -6.8277   -5.5893 H   0  0  0  0  0  0  0  0  0  0  0  0
  1  2  2  0  0  0  0
  2  3  1  0  0  0  0
  3  4  2  0  0  0  0
  3  5  1  0  0  0  0
  5  6  2  0  0  0  0
  6  7  1  0  0  0  0
  7  8  2  0  0  0  0
  8  9  1  0  0  0  0
  8 10  1  0  0  0  0
 10 11  2  0  0  0  0
 11 12  1  0  0  0  0
 12 13  2  0  0  0  0
 13 14  1  0  0  0  0
 14 15  3  0  0  0  0
 13 16  1  0  0  0  0
 16 17  3  0  0  0  0
  1 18  1  0  0  0  0
 18 19  2  0  0  0  0
 19 20  1  0  0  0  0
 20 21  2  0  0  0  0
 21 22  1  0  0  0  0
 22 23  2  0  0  0  0
 23 24  1  0  0  0  0
 24 25  2  0  0  0  0
 25 26  1  0  0  0  0
 26 27  1  0  0  0  0
 19 28  1  0  0  0  0
 28 29  1  0  0  0  0
 29 30  1  0  0  0  0
 30 31  1  0  0  0  0
 31 32  1  0  0  0  0
 32 33  1  0  0  0  0
 33 34  2  0  0  0  0
 34 35  1  0  0  0  0
 35 36  1  0  0  0  0
 33 37  1  0  0  0  0
 37 38  1  0  0  0  0
 38 39  1  0  0  0  0
 39 40  1  0  0  0  0
 40 41  1  0  0  0  0
 41 42  1  0  0  0  0
 42 43  2  0  0  0  0
 43 44  1  0  0  0  0
 44 45  1  0  0  0  0
 43 46  1  0  0  0  0
 46 47  2  0  0  0  0
 47 48  1  0  0  0  0
 48 49  2  0  0  0  0
 41 50  2  0  0  0  0
 50 51  1  0  0  0  0
 51 52  1  0  0  0  0
 52 53  1  0  0  0  0
 53 54  1  0  0  0  0
 54 55  1  0  0  0  0
 55 56  1  0  0  0  0
 56 57  1  0  0  0  0
 57 58  1  0  0  0  0
 58 59  1  0  0  0  0
 59 60  1  0  0  0  0
 57 61  1  0  0  0  0
 61 62  1  0  0  0  0
 54 63  1  0  0  0  0
 63 64  1  0  0  0  0
 50 65  1  0  0  0  0
 65 66  2  0  0  0  0
 66 67  1  0  0  0  0
 67 68  2  0  0  0  0
 67 69  1  0  0  0  0
 69 70  2  0  0  0  0
 70 71  1  0  0  0  0
 71 72  2  0  0  0  0
 72 73  1  0  0  0  0
 72 74  1  0  0  0  0
 74 75  2  0  0  0  0
 75 76  1  0  0  0  0
 76 77  2  0  0  0  0
 77 78  1  0  0  0  0
 78 79  3  0  0  0  0
 77 80  1  0  0  0  0
 80 81  3  0  0  0  0
 12  2  1  0  0  0  0
 60 18  1  0  0  0  0
 76 66  1  0  0  0  0
 11  5  1  0  0  0  0
 25 20  1  0  0  0  0
 59 28  2  0  0  0  0
 75 69  1  0  0  0  0
 58 30  2  0  0  0  0
 56 31  2  0  0  0  0
 36 32  2  0  0  0  0
 55 37  2  0  0  0  0
 53 38  2  0  0  0  0
 52 40  2  0  0  0  0
 49 42  1  0  0  0  0
  1 82  1  0  0  0  0
  6 83  1  0  0  0  0
  7 84  1  0  0  0  0
 10 85  1  0  0  0  0
 21 86  1  0  0  0  0
 22 87  1  0  0  0  0
 23 88  1  0  0  0  0
 24 89  1  0  0  0  0
 26 90  1  0  0  0  0
 26 91  1  0  0  0  0
 27 92  1  0  0  0  0
 27 93  1  0  0  0  0
 27 94  1  0  0  0  0
 44 95  1  0  0  0  0
 44 96  1  0  0  0  0
 45 97  1  0  0  0  0
 45 98  1  0  0  0  0
 45 99  1  0  0  0  0
 46100  1  0  0  0  0
 47101  1  0  0  0  0
 48102  1  0  0  0  0
 49103  1  0  0  0  0
 61104  1  0  0  0  0
 61105  1  0  0  0  0
 62106  1  0  0  0  0
 62107  1  0  0  0  0
 62108  1  0  0  0  0
 63109  1  0  0  0  0
 63110  1  0  0  0  0
 64111  1  0  0  0  0
 64112  1  0  0  0  0
 64113  1  0  0  0  0
 65114  1  0  0  0  0
 70115  1  0  0  0  0
 71116  1  0  0  0  0
 74117  1  0  0  0  0
M  END
