
  xtb     02022201413D
 energy: -211.731238543616 gnorm: 0.000639771555 xtb: 6.4.1 (unknown)
117130  0     0  0            999 V2000
   -1.6109   -6.8308    1.9376 C   0  0  0  0  0  0  0  0  0  0  0  0
   -1.3426   -8.1700    2.0548 C   0  0  0  0  0  0  0  0  0  0  0  0
   -0.0230   -8.7957    1.8351 C   0  0  0  0  0  0  0  0  0  0  0  0
    1.0208   -8.2451    1.5538 O   0  0  0  0  0  0  0  0  0  0  0  0
   -0.1950  -10.2182    2.1940 C   0  0  0  0  0  0  0  0  0  0  0  0
    0.7280  -11.2436    2.1269 C   0  0  0  0  0  0  0  0  0  0  0  0
    0.3426  -12.5089    2.5413 C   0  0  0  0  0  0  0  0  0  0  0  0
   -0.9445  -12.7099    3.0217 C   0  0  0  0  0  0  0  0  0  0  0  0
   -1.4451  -14.4510    3.5966 Br  0  0  0  0  0  0  0  0  0  0  0  0
   -1.8837  -11.6886    3.1003 C   0  0  0  0  0  0  0  0  0  0  0  0
   -1.4985  -10.4281    2.6753 C   0  0  0  0  0  0  0  0  0  0  0  0
   -2.2382   -9.1673    2.5975 C   0  0  0  0  0  0  0  0  0  0  0  0
   -3.5671   -9.0031    2.8941 C   0  0  0  0  0  0  0  0  0  0  0  0
   -4.2996   -7.8156    2.6872 C   0  0  0  0  0  0  0  0  0  0  0  0
   -4.9677   -6.8973    2.5152 N   0  0  0  0  0  0  0  0  0  0  0  0
   -4.3933  -10.0186    3.4183 C   0  0  0  0  0  0  0  0  0  0  0  0
   -5.1103  -10.7999    3.8576 N   0  0  0  0  0  0  0  0  0  0  0  0
   -0.8806   -5.8663    1.2203 C   0  0  0  0  0  0  0  0  0  0  0  0
   -0.0671   -5.9625    0.0896 C   0  0  0  0  0  0  0  0  0  0  0  0
    0.1885   -7.1535   -0.7260 C   0  0  0  0  0  0  0  0  0  0  0  0
    1.5259   -7.5023   -0.9230 C   0  0  0  0  0  0  0  0  0  0  0  0
    1.8659   -8.6131   -1.6671 C   0  0  0  0  0  0  0  0  0  0  0  0
    0.8678   -9.3765   -2.2470 C   0  0  0  0  0  0  0  0  0  0  0  0
   -0.4553   -9.0069   -2.0940 C   0  0  0  0  0  0  0  0  0  0  0  0
   -0.8243   -7.9017   -1.3352 C   0  0  0  0  0  0  0  0  0  0  0  0
   -2.2787   -7.5108   -1.2761 C   0  0  0  0  0  0  0  0  0  0  0  0
   -3.1950   -8.6676   -0.8749 C   0  0  0  0  0  0  0  0  0  0  0  0
    0.4681   -4.7143   -0.2530 C   0  0  0  0  0  0  0  0  0  0  0  0
    1.5604   -4.2168   -1.5255 S   0  0  0  0  0  0  0  0  0  0  0  0
    1.4459   -2.5900   -0.9496 C   0  0  0  0  0  0  0  0  0  0  0  0
    1.9740   -1.3216   -1.2333 C   0  0  0  0  0  0  0  0  0  0  0  0
    2.9744   -0.9098   -2.1423 C   0  0  0  0  0  0  0  0  0  0  0  0
    3.3998    0.4601   -2.1317 C   0  0  0  0  0  0  0  0  0  0  0  0
    4.3826    0.6902   -2.9876 N   0  0  0  0  0  0  0  0  0  0  0  0
    4.7395   -0.6947   -3.7450 S   0  0  0  0  0  0  0  0  0  0  0  0
    3.6532   -1.6432   -3.0101 N   0  0  0  0  0  0  0  0  0  0  0  0
    2.7092    1.3826   -1.3138 C   0  0  0  0  0  0  0  0  0  0  0  0
    2.7694    2.7801   -1.2451 C   0  0  0  0  0  0  0  0  0  0  0  0
    3.6827    4.0816   -1.9271 S   0  0  0  0  0  0  0  0  0  0  0  0
    2.6200    5.2087   -1.1057 C   0  0  0  0  0  0  0  0  0  0  0  0
    2.5725    6.5954   -1.0642 C   0  0  0  0  0  0  0  0  0  0  0  0
    3.5222    7.5063   -1.7197 C   0  0  0  0  0  0  0  0  0  0  0  0
    3.5422    7.6747   -3.1054 C   0  0  0  0  0  0  0  0  0  0  0  0
    2.5371    6.9978   -3.9928 C   0  0  0  0  0  0  0  0  0  0  0  0
    1.2156    7.7701   -3.9843 C   0  0  0  0  0  0  0  0  0  0  0  0
    4.4598    8.5631   -3.6493 C   0  0  0  0  0  0  0  0  0  0  0  0
    5.3416    9.2670   -2.8509 C   0  0  0  0  0  0  0  0  0  0  0  0
    5.3152    9.0968   -1.4777 C   0  0  0  0  0  0  0  0  0  0  0  0
    4.4051    8.2233   -0.9162 C   0  0  0  0  0  0  0  0  0  0  0  0
    1.5094    7.0536   -0.2642 C   0  0  0  0  0  0  0  0  0  0  0  0
    0.5966    5.7313    0.4536 S   0  0  0  0  0  0  0  0  0  0  0  0
    1.6185    4.5871   -0.3357 C   0  0  0  0  0  0  0  0  0  0  0  0
    1.7230    3.1955   -0.4098 C   0  0  0  0  0  0  0  0  0  0  0  0
    1.0444    2.1033    0.0615 N   0  0  0  0  0  0  0  0  0  0  0  0
    1.6419    0.9745   -0.4599 C   0  0  0  0  0  0  0  0  0  0  0  0
    1.3734   -0.4109   -0.3172 C   0  0  0  0  0  0  0  0  0  0  0  0
    0.5430   -1.1216    0.5345 N   0  0  0  0  0  0  0  0  0  0  0  0
    0.5927   -2.4374    0.1500 C   0  0  0  0  0  0  0  0  0  0  0  0
    0.0399   -3.6526    0.5582 C   0  0  0  0  0  0  0  0  0  0  0  0
   -1.0467   -4.1955    1.7773 S   0  0  0  0  0  0  0  0  0  0  0  0
    0.1663   -0.8311    1.9019 C   0  0  0  0  0  0  0  0  0  0  0  0
    1.2635   -1.2628    2.8741 C   0  0  0  0  0  0  0  0  0  0  0  0
   -0.2448    2.2706    0.6949 C   0  0  0  0  0  0  0  0  0  0  0  0
   -0.1176    2.7180    2.1516 C   0  0  0  0  0  0  0  0  0  0  0  0
    1.2056    8.4135   -0.1635 C   0  0  0  0  0  0  0  0  0  0  0  0
    0.2102    9.0573    0.5303 C   0  0  0  0  0  0  0  0  0  0  0  0
   -0.7293    8.4331    1.4613 C   0  0  0  0  0  0  0  0  0  0  0  0
   -0.8446    7.2482    1.7252 O   0  0  0  0  0  0  0  0  0  0  0  0
   -1.5172    9.5394    2.0435 C   0  0  0  0  0  0  0  0  0  0  0  0
   -2.5162    9.4749    2.9918 C   0  0  0  0  0  0  0  0  0  0  0  0
   -3.1074   10.6710    3.3831 C   0  0  0  0  0  0  0  0  0  0  0  0
   -4.3611   10.6499    4.5649 Cl  0  0  0  0  0  0  0  0  0  0  0  0
   -2.7043   11.8846    2.8382 C   0  0  0  0  0  0  0  0  0  0  0  0
   -1.7001   11.9381    1.8829 C   0  0  0  0  0  0  0  0  0  0  0  0
   -1.0977   10.7565    1.4774 C   0  0  0  0  0  0  0  0  0  0  0  0
   -0.0415   10.4835    0.5041 C   0  0  0  0  0  0  0  0  0  0  0  0
    0.5492   11.4149   -0.3112 C   0  0  0  0  0  0  0  0  0  0  0  0
    1.5060   11.1476   -1.3135 C   0  0  0  0  0  0  0  0  0  0  0  0
    2.2692   11.0211   -2.1631 N   0  0  0  0  0  0  0  0  0  0  0  0
    0.2473   12.7926   -0.2785 C   0  0  0  0  0  0  0  0  0  0  0  0
    0.0516   13.9237   -0.2991 N   0  0  0  0  0  0  0  0  0  0  0  0
   -2.4635   -6.4377    2.4800 H   0  0  0  0  0  0  0  0  0  0  0  0
    1.7219  -11.0542    1.7527 H   0  0  0  0  0  0  0  0  0  0  0  0
    1.0330  -13.3369    2.4967 H   0  0  0  0  0  0  0  0  0  0  0  0
   -2.8702  -11.8903    3.4848 H   0  0  0  0  0  0  0  0  0  0  0  0
    2.2952   -6.9086   -0.4553 H   0  0  0  0  0  0  0  0  0  0  0  0
    2.9040   -8.8781   -1.7967 H   0  0  0  0  0  0  0  0  0  0  0  0
    1.1181  -10.2488   -2.8325 H   0  0  0  0  0  0  0  0  0  0  0  0
   -1.2238   -9.5844   -2.5854 H   0  0  0  0  0  0  0  0  0  0  0  0
   -2.5772   -7.1544   -2.2671 H   0  0  0  0  0  0  0  0  0  0  0  0
   -2.4214   -6.6849   -0.5802 H   0  0  0  0  0  0  0  0  0  0  0  0
   -3.2966   -9.3906   -1.6797 H   0  0  0  0  0  0  0  0  0  0  0  0
   -4.1857   -8.2912   -0.6307 H   0  0  0  0  0  0  0  0  0  0  0  0
   -2.7978   -9.1858   -0.0052 H   0  0  0  0  0  0  0  0  0  0  0  0
    2.3604    5.9726   -3.6646 H   0  0  0  0  0  0  0  0  0  0  0  0
    2.9239    6.9632   -5.0125 H   0  0  0  0  0  0  0  0  0  0  0  0
    1.3869    8.8107   -4.2496 H   0  0  0  0  0  0  0  0  0  0  0  0
    0.5185    7.3360   -4.6972 H   0  0  0  0  0  0  0  0  0  0  0  0
    0.7603    7.7431   -2.9965 H   0  0  0  0  0  0  0  0  0  0  0  0
    4.4738    8.7093   -4.7194 H   0  0  0  0  0  0  0  0  0  0  0  0
    6.0430    9.9547   -3.2980 H   0  0  0  0  0  0  0  0  0  0  0  0
    5.9955    9.6464   -0.8448 H   0  0  0  0  0  0  0  0  0  0  0  0
    4.3739    8.0820    0.1553 H   0  0  0  0  0  0  0  0  0  0  0  0
   -0.0248    0.2268    2.0287 H   0  0  0  0  0  0  0  0  0  0  0  0
   -0.7540   -1.3847    2.1108 H   0  0  0  0  0  0  0  0  0  0  0  0
    2.1887   -0.7317    2.6600 H   0  0  0  0  0  0  0  0  0  0  0  0
    0.9586   -1.0400    3.8927 H   0  0  0  0  0  0  0  0  0  0  0  0
    1.4510   -2.3306    2.7954 H   0  0  0  0  0  0  0  0  0  0  0  0
   -0.7858    3.0466    0.1424 H   0  0  0  0  0  0  0  0  0  0  0  0
   -0.8095    1.3426    0.5941 H   0  0  0  0  0  0  0  0  0  0  0  0
    0.5875    2.0989    2.7021 H   0  0  0  0  0  0  0  0  0  0  0  0
    0.2311    3.7458    2.1968 H   0  0  0  0  0  0  0  0  0  0  0  0
   -1.0880    2.6686    2.6374 H   0  0  0  0  0  0  0  0  0  0  0  0
    1.8768    9.0364   -0.7431 H   0  0  0  0  0  0  0  0  0  0  0  0
   -2.8218    8.5283    3.4086 H   0  0  0  0  0  0  0  0  0  0  0  0
   -3.1811   12.7955    3.1645 H   0  0  0  0  0  0  0  0  0  0  0  0
   -1.4053   12.8917    1.4770 H   0  0  0  0  0  0  0  0  0  0  0  0
  1  2  2  0  0  0  0
  2  3  1  0  0  0  0
  3  4  2  0  0  0  0
  3  5  1  0  0  0  0
  5  6  2  0  0  0  0
  6  7  1  0  0  0  0
  7  8  2  0  0  0  0
  8  9  1  0  0  0  0
  8 10  1  0  0  0  0
 10 11  2  0  0  0  0
 11 12  1  0  0  0  0
 12 13  2  0  0  0  0
 13 14  1  0  0  0  0
 14 15  3  0  0  0  0
 13 16  1  0  0  0  0
 16 17  3  0  0  0  0
  1 18  1  0  0  0  0
 18 19  2  0  0  0  0
 19 20  1  0  0  0  0
 20 21  2  0  0  0  0
 21 22  1  0  0  0  0
 22 23  2  0  0  0  0
 23 24  1  0  0  0  0
 24 25  2  0  0  0  0
 25 26  1  0  0  0  0
 26 27  1  0  0  0  0
 19 28  1  0  0  0  0
 28 29  1  0  0  0  0
 29 30  1  0  0  0  0
 30 31  1  0  0  0  0
 31 32  1  0  0  0  0
 32 33  1  0  0  0  0
 33 34  2  0  0  0  0
 34 35  1  0  0  0  0
 35 36  1  0  0  0  0
 33 37  1  0  0  0  0
 37 38  1  0  0  0  0
 38 39  1  0  0  0  0
 39 40  1  0  0  0  0
 40 41  1  0  0  0  0
 41 42  1  0  0  0  0
 42 43  2  0  0  0  0
 43 44  1  0  0  0  0
 44 45  1  0  0  0  0
 43 46  1  0  0  0  0
 46 47  2  0  0  0  0
 47 48  1  0  0  0  0
 48 49  2  0  0  0  0
 41 50  2  0  0  0  0
 50 51  1  0  0  0  0
 51 52  1  0  0  0  0
 52 53  1  0  0  0  0
 53 54  1  0  0  0  0
 54 55  1  0  0  0  0
 55 56  1  0  0  0  0
 56 57  1  0  0  0  0
 57 58  1  0  0  0  0
 58 59  1  0  0  0  0
 59 60  1  0  0  0  0
 57 61  1  0  0  0  0
 61 62  1  0  0  0  0
 54 63  1  0  0  0  0
 63 64  1  0  0  0  0
 50 65  1  0  0  0  0
 65 66  2  0  0  0  0
 66 67  1  0  0  0  0
 67 68  2  0  0  0  0
 67 69  1  0  0  0  0
 69 70  2  0  0  0  0
 70 71  1  0  0  0  0
 71 72  1  0  0  0  0
 71 73  2  0  0  0  0
 73 74  1  0  0  0  0
 74 75  2  0  0  0  0
 75 76  1  0  0  0  0
 76 77  2  0  0  0  0
 77 78  1  0  0  0  0
 78 79  3  0  0  0  0
 77 80  1  0  0  0  0
 80 81  3  0  0  0  0
 12  2  1  0  0  0  0
 60 18  1  0  0  0  0
 76 66  1  0  0  0  0
 11  5  1  0  0  0  0
 25 20  1  0  0  0  0
 59 28  2  0  0  0  0
 75 69  1  0  0  0  0
 58 30  2  0  0  0  0
 56 31  2  0  0  0  0
 36 32  2  0  0  0  0
 55 37  2  0  0  0  0
 53 38  2  0  0  0  0
 52 40  2  0  0  0  0
 49 42  1  0  0  0  0
  1 82  1  0  0  0  0
  6 83  1  0  0  0  0
  7 84  1  0  0  0  0
 10 85  1  0  0  0  0
 21 86  1  0  0  0  0
 22 87  1  0  0  0  0
 23 88  1  0  0  0  0
 24 89  1  0  0  0  0
 26 90  1  0  0  0  0
 26 91  1  0  0  0  0
 27 92  1  0  0  0  0
 27 93  1  0  0  0  0
 27 94  1  0  0  0  0
 44 95  1  0  0  0  0
 44 96  1  0  0  0  0
 45 97  1  0  0  0  0
 45 98  1  0  0  0  0
 45 99  1  0  0  0  0
 46100  1  0  0  0  0
 47101  1  0  0  0  0
 48102  1  0  0  0  0
 49103  1  0  0  0  0
 61104  1  0  0  0  0
 61105  1  0  0  0  0
 62106  1  0  0  0  0
 62107  1  0  0  0  0
 62108  1  0  0  0  0
 63109  1  0  0  0  0
 63110  1  0  0  0  0
 64111  1  0  0  0  0
 64112  1  0  0  0  0
 64113  1  0  0  0  0
 65114  1  0  0  0  0
 70115  1  0  0  0  0
 73116  1  0  0  0  0
 74117  1  0  0  0  0
M  END
