112

C          4.09490       -5.84150       -5.07550
C          4.33780       -6.83750       -4.14900
C          3.83860       -6.88190       -2.77510
O          3.12400       -6.07210       -2.20770
C          4.34910       -8.13610       -2.19090
C          4.17210       -8.63360       -0.91460
C          4.76510       -9.84350       -0.58950
C          5.51280      -10.51690       -1.54540
Br         6.31950      -12.17270       -1.07680
C          5.69840      -10.02940       -2.83460
C          5.10440       -8.82140       -3.15680
C          5.10570       -8.03690       -4.39570
C          5.73570       -8.41900       -5.55460
C          5.77860       -7.67970       -6.75090
N          5.86080       -7.13440       -7.76030
C          6.43880       -9.63150       -5.71520
N          7.02010      -10.60000       -5.92010
C          3.44330       -4.61670       -4.94730
C          3.31440       -3.65440       -5.98520
O          3.63470       -3.71300       -7.28260
C          3.51060       -4.87650       -8.09830
C          2.21220       -5.63870       -7.87990
C          2.81320       -2.44300       -5.49780
S          2.47270       -0.91760       -6.29010
C          1.90500       -0.30500       -4.77620
C          1.32700        0.85880       -4.24970
C          0.90480        2.05050       -4.88030
C          0.20240        3.03260       -4.10720
N         -0.18920        4.06570       -4.83640
S          0.29270        3.82710       -6.36280
N          1.01430        2.39460       -6.15390
C          0.05840        2.83030       -2.71680
C         -0.45920        3.66230       -1.71380
S         -1.19360        5.21850       -1.55680
C         -1.20200        5.00990        0.17910
C         -1.63770        5.81410        1.24280
O         -2.14980        7.06390        1.11700
C         -3.57020        7.16930        1.02480
C         -4.13210        6.59520       -0.26860
C         -1.41220        5.21120        2.48490
S         -0.70650        3.61600        2.30680
C         -0.65910        3.78550        0.59250
C         -0.23310        3.01570       -0.49220
N          0.39770        1.81840       -0.70380
C          0.56650        1.66730       -2.06830
C          1.10180        0.61930       -2.86170
N          1.50500       -0.67210       -2.56740
C          1.98230       -1.22860       -3.72550
C          2.50430       -2.45840       -4.13300
S          2.81870       -3.99220       -3.41140
C          1.05800       -1.56240       -1.51660
C         -0.42450       -1.89050       -1.67830
C          1.09220        1.18020        0.39430
C          0.15680        0.35810        1.27800
C         -1.81690        5.75380        3.72090
C         -1.65790        5.27460        4.98540
C         -2.62340        5.68520        6.04040
O         -3.37320        6.63480        6.00860
C         -2.52590        4.63860        7.07770
C         -3.33510        4.48650        8.20140
C         -3.03380        3.38340        8.96380
C         -2.00140        2.49280        8.63860
C         -1.18620        2.63610        7.54110
C         -1.47860        3.75040        6.75230
C         -0.81880        4.23980        5.54450
C          0.47480        3.97190        5.17900
C          1.17290        4.73180        4.21660
N          1.79360        5.36030        3.48340
C          1.28050        2.98620        5.77990
N          1.96880        2.17260        6.20800
C         -2.28360        1.60680        9.82570
C         -3.04310        0.28110        9.57170
C         -3.87670        0.49430        8.33260
C         -4.85270        1.33770        8.64120
C         -4.69690        1.70990       10.09490
C         -4.13070        0.39390       10.65190
C         -3.43220        2.59960       10.18950
H          4.51430       -6.01580       -6.05480
H          3.58660       -8.08490       -0.19350
H          4.65250      -10.26440        0.39760
H          6.28900      -10.58970       -3.54050
H          4.38210       -5.53310       -7.99520
H          3.53140       -4.46070       -9.10960
H          1.36240       -4.96700       -7.98170
H          2.13400       -6.42160       -8.62840
H          2.17580       -6.09900       -6.89470
H         -4.04020        6.68180        1.88950
H         -3.75460        8.24400        1.07910
H         -3.62250        7.03090       -1.12430
H         -4.00740        5.51490       -0.30120
H         -5.19210        6.82440       -0.33280
H          1.24910       -1.14200       -0.53420
H          1.64790       -2.47750       -1.60920
H         -0.73860       -2.57740       -0.89750
H         -1.02770       -0.98630       -1.62100
H         -0.60160       -2.36040       -2.64280
H          1.91140        0.58380       -0.00860
H          1.53800        1.97290        1.00620
H         -0.39270       -0.38220        0.70390
H          0.73390       -0.14630        2.04810
H         -0.56210        1.01140        1.76550
H         -2.44280        6.63770        3.64230
H         -4.11980        5.19370        8.42020
H         -0.39700        1.94490        7.29320
H         -1.46780        1.48800       10.53580
H         -2.41680       -0.60690        9.58220
H         -3.64460        0.06840        7.37390
H         -5.59880        1.75710        7.99190
H         -5.57680        2.12220       10.58160
H         -3.73200        0.48580       11.66110
H         -4.84930       -0.42340       10.61320
H         -3.36710        3.12860       11.13810
