
  xtb     02022221563D
 energy: -204.041167646336 gnorm: 0.000549958714 xtb: 6.4.1 (unknown)
112126  0     0  0            999 V2000
    4.0949   -5.8415   -5.0755 C   0  0  0  0  0  0  0  0  0  0  0  0
    4.3378   -6.8375   -4.1490 C   0  0  0  0  0  0  0  0  0  0  0  0
    3.8386   -6.8819   -2.7751 C   0  0  0  0  0  0  0  0  0  0  0  0
    3.1240   -6.0721   -2.2077 O   0  0  0  0  0  0  0  0  0  0  0  0
    4.3491   -8.1361   -2.1909 C   0  0  0  0  0  0  0  0  0  0  0  0
    4.1721   -8.6336   -0.9146 C   0  0  0  0  0  0  0  0  0  0  0  0
    4.7651   -9.8435   -0.5895 C   0  0  0  0  0  0  0  0  0  0  0  0
    5.5128  -10.5169   -1.5454 C   0  0  0  0  0  0  0  0  0  0  0  0
    6.3195  -12.1727   -1.0768 Br  0  0  0  0  0  0  0  0  0  0  0  0
    5.6984  -10.0294   -2.8346 C   0  0  0  0  0  0  0  0  0  0  0  0
    5.1044   -8.8214   -3.1568 C   0  0  0  0  0  0  0  0  0  0  0  0
    5.1057   -8.0369   -4.3957 C   0  0  0  0  0  0  0  0  0  0  0  0
    5.7357   -8.4190   -5.5546 C   0  0  0  0  0  0  0  0  0  0  0  0
    5.7786   -7.6797   -6.7509 C   0  0  0  0  0  0  0  0  0  0  0  0
    5.8608   -7.1344   -7.7603 N   0  0  0  0  0  0  0  0  0  0  0  0
    6.4388   -9.6315   -5.7152 C   0  0  0  0  0  0  0  0  0  0  0  0
    7.0201  -10.6000   -5.9201 N   0  0  0  0  0  0  0  0  0  0  0  0
    3.4433   -4.6167   -4.9473 C   0  0  0  0  0  0  0  0  0  0  0  0
    3.3144   -3.6544   -5.9852 C   0  0  0  0  0  0  0  0  0  0  0  0
    3.6347   -3.7130   -7.2826 O   0  0  0  0  0  0  0  0  0  0  0  0
    3.5106   -4.8765   -8.0983 C   0  0  0  0  0  0  0  0  0  0  0  0
    2.2122   -5.6387   -7.8799 C   0  0  0  0  0  0  0  0  0  0  0  0
    2.8132   -2.4430   -5.4978 C   0  0  0  0  0  0  0  0  0  0  0  0
    2.4727   -0.9176   -6.2901 S   0  0  0  0  0  0  0  0  0  0  0  0
    1.9050   -0.3050   -4.7762 C   0  0  0  0  0  0  0  0  0  0  0  0
    1.3270    0.8588   -4.2497 C   0  0  0  0  0  0  0  0  0  0  0  0
    0.9048    2.0505   -4.8803 C   0  0  0  0  0  0  0  0  0  0  0  0
    0.2024    3.0326   -4.1072 C   0  0  0  0  0  0  0  0  0  0  0  0
   -0.1892    4.0657   -4.8364 N   0  0  0  0  0  0  0  0  0  0  0  0
    0.2927    3.8271   -6.3628 S   0  0  0  0  0  0  0  0  0  0  0  0
    1.0143    2.3946   -6.1539 N   0  0  0  0  0  0  0  0  0  0  0  0
    0.0584    2.8303   -2.7168 C   0  0  0  0  0  0  0  0  0  0  0  0
   -0.4592    3.6623   -1.7138 C   0  0  0  0  0  0  0  0  0  0  0  0
   -1.1936    5.2185   -1.5568 S   0  0  0  0  0  0  0  0  0  0  0  0
   -1.2020    5.0099    0.1791 C   0  0  0  0  0  0  0  0  0  0  0  0
   -1.6377    5.8141    1.2428 C   0  0  0  0  0  0  0  0  0  0  0  0
   -2.1498    7.0639    1.1170 O   0  0  0  0  0  0  0  0  0  0  0  0
   -3.5702    7.1693    1.0248 C   0  0  0  0  0  0  0  0  0  0  0  0
   -4.1321    6.5952   -0.2686 C   0  0  0  0  0  0  0  0  0  0  0  0
   -1.4122    5.2112    2.4849 C   0  0  0  0  0  0  0  0  0  0  0  0
   -0.7065    3.6160    2.3068 S   0  0  0  0  0  0  0  0  0  0  0  0
   -0.6591    3.7855    0.5925 C   0  0  0  0  0  0  0  0  0  0  0  0
   -0.2331    3.0157   -0.4922 C   0  0  0  0  0  0  0  0  0  0  0  0
    0.3977    1.8184   -0.7038 N   0  0  0  0  0  0  0  0  0  0  0  0
    0.5665    1.6673   -2.0683 C   0  0  0  0  0  0  0  0  0  0  0  0
    1.1018    0.6193   -2.8617 C   0  0  0  0  0  0  0  0  0  0  0  0
    1.5050   -0.6721   -2.5674 N   0  0  0  0  0  0  0  0  0  0  0  0
    1.9823   -1.2286   -3.7255 C   0  0  0  0  0  0  0  0  0  0  0  0
    2.5043   -2.4584   -4.1330 C   0  0  0  0  0  0  0  0  0  0  0  0
    2.8187   -3.9922   -3.4114 S   0  0  0  0  0  0  0  0  0  0  0  0
    1.0580   -1.5624   -1.5166 C   0  0  0  0  0  0  0  0  0  0  0  0
   -0.4245   -1.8905   -1.6783 C   0  0  0  0  0  0  0  0  0  0  0  0
    1.0922    1.1802    0.3943 C   0  0  0  0  0  0  0  0  0  0  0  0
    0.1568    0.3581    1.2780 C   0  0  0  0  0  0  0  0  0  0  0  0
   -1.8169    5.7538    3.7209 C   0  0  0  0  0  0  0  0  0  0  0  0
   -1.6579    5.2746    4.9854 C   0  0  0  0  0  0  0  0  0  0  0  0
   -2.6234    5.6852    6.0404 C   0  0  0  0  0  0  0  0  0  0  0  0
   -3.3732    6.6348    6.0086 O   0  0  0  0  0  0  0  0  0  0  0  0
   -2.5259    4.6386    7.0777 C   0  0  0  0  0  0  0  0  0  0  0  0
   -3.3351    4.4865    8.2014 C   0  0  0  0  0  0  0  0  0  0  0  0
   -3.0338    3.3834    8.9638 C   0  0  0  0  0  0  0  0  0  0  0  0
   -2.0014    2.4928    8.6386 C   0  0  0  0  0  0  0  0  0  0  0  0
   -1.1862    2.6361    7.5411 C   0  0  0  0  0  0  0  0  0  0  0  0
   -1.4786    3.7504    6.7523 C   0  0  0  0  0  0  0  0  0  0  0  0
   -0.8188    4.2398    5.5445 C   0  0  0  0  0  0  0  0  0  0  0  0
    0.4748    3.9719    5.1790 C   0  0  0  0  0  0  0  0  0  0  0  0
    1.1729    4.7318    4.2166 C   0  0  0  0  0  0  0  0  0  0  0  0
    1.7936    5.3603    3.4834 N   0  0  0  0  0  0  0  0  0  0  0  0
    1.2805    2.9862    5.7799 C   0  0  0  0  0  0  0  0  0  0  0  0
    1.9688    2.1726    6.2080 N   0  0  0  0  0  0  0  0  0  0  0  0
   -2.2836    1.6068    9.8257 C   0  0  0  0  0  0  0  0  0  0  0  0
   -3.0431    0.2811    9.5717 C   0  0  0  0  0  0  0  0  0  0  0  0
   -3.8767    0.4943    8.3326 C   0  0  0  0  0  0  0  0  0  0  0  0
   -4.8527    1.3377    8.6412 C   0  0  0  0  0  0  0  0  0  0  0  0
   -4.6969    1.7099   10.0949 C   0  0  0  0  0  0  0  0  0  0  0  0
   -4.1307    0.3939   10.6519 C   0  0  0  0  0  0  0  0  0  0  0  0
   -3.4322    2.5996   10.1895 C   0  0  0  0  0  0  0  0  0  0  0  0
    4.5143   -6.0158   -6.0548 H   0  0  0  0  0  0  0  0  0  0  0  0
    3.5866   -8.0849   -0.1935 H   0  0  0  0  0  0  0  0  0  0  0  0
    4.6525  -10.2644    0.3976 H   0  0  0  0  0  0  0  0  0  0  0  0
    6.2890  -10.5897   -3.5405 H   0  0  0  0  0  0  0  0  0  0  0  0
    4.3821   -5.5331   -7.9952 H   0  0  0  0  0  0  0  0  0  0  0  0
    3.5314   -4.4607   -9.1096 H   0  0  0  0  0  0  0  0  0  0  0  0
    1.3624   -4.9670   -7.9817 H   0  0  0  0  0  0  0  0  0  0  0  0
    2.1340   -6.4216   -8.6284 H   0  0  0  0  0  0  0  0  0  0  0  0
    2.1758   -6.0990   -6.8947 H   0  0  0  0  0  0  0  0  0  0  0  0
   -4.0402    6.6818    1.8895 H   0  0  0  0  0  0  0  0  0  0  0  0
   -3.7546    8.2440    1.0791 H   0  0  0  0  0  0  0  0  0  0  0  0
   -3.6225    7.0309   -1.1243 H   0  0  0  0  0  0  0  0  0  0  0  0
   -4.0074    5.5149   -0.3012 H   0  0  0  0  0  0  0  0  0  0  0  0
   -5.1921    6.8244   -0.3328 H   0  0  0  0  0  0  0  0  0  0  0  0
    1.2491   -1.1420   -0.5342 H   0  0  0  0  0  0  0  0  0  0  0  0
    1.6479   -2.4775   -1.6092 H   0  0  0  0  0  0  0  0  0  0  0  0
   -0.7386   -2.5774   -0.8975 H   0  0  0  0  0  0  0  0  0  0  0  0
   -1.0277   -0.9863   -1.6210 H   0  0  0  0  0  0  0  0  0  0  0  0
   -0.6016   -2.3604   -2.6428 H   0  0  0  0  0  0  0  0  0  0  0  0
    1.9114    0.5838   -0.0086 H   0  0  0  0  0  0  0  0  0  0  0  0
    1.5380    1.9729    1.0062 H   0  0  0  0  0  0  0  0  0  0  0  0
   -0.3927   -0.3822    0.7039 H   0  0  0  0  0  0  0  0  0  0  0  0
    0.7339   -0.1463    2.0481 H   0  0  0  0  0  0  0  0  0  0  0  0
   -0.5621    1.0114    1.7655 H   0  0  0  0  0  0  0  0  0  0  0  0
   -2.4428    6.6377    3.6423 H   0  0  0  0  0  0  0  0  0  0  0  0
   -4.1198    5.1937    8.4202 H   0  0  0  0  0  0  0  0  0  0  0  0
   -0.3970    1.9449    7.2932 H   0  0  0  0  0  0  0  0  0  0  0  0
   -1.4678    1.4880   10.5358 H   0  0  0  0  0  0  0  0  0  0  0  0
   -2.4168   -0.6069    9.5822 H   0  0  0  0  0  0  0  0  0  0  0  0
   -3.6446    0.0684    7.3739 H   0  0  0  0  0  0  0  0  0  0  0  0
   -5.5988    1.7571    7.9919 H   0  0  0  0  0  0  0  0  0  0  0  0
   -5.5768    2.1222   10.5816 H   0  0  0  0  0  0  0  0  0  0  0  0
   -3.7320    0.4858   11.6611 H   0  0  0  0  0  0  0  0  0  0  0  0
   -4.8493   -0.4234   10.6132 H   0  0  0  0  0  0  0  0  0  0  0  0
   -3.3671    3.1286   11.1381 H   0  0  0  0  0  0  0  0  0  0  0  0
  1  2  2  0  0  0  0
  2  3  1  0  0  0  0
  3  4  2  0  0  0  0
  3  5  1  0  0  0  0
  5  6  2  0  0  0  0
  6  7  1  0  0  0  0
  7  8  2  0  0  0  0
  8  9  1  0  0  0  0
  8 10  1  0  0  0  0
 10 11  2  0  0  0  0
 11 12  1  0  0  0  0
 12 13  2  0  0  0  0
 13 14  1  0  0  0  0
 14 15  3  0  0  0  0
 13 16  1  0  0  0  0
 16 17  3  0  0  0  0
  1 18  1  0  0  0  0
 18 19  2  0  0  0  0
 19 20  1  0  0  0  0
 20 21  1  0  0  0  0
 21 22  1  0  0  0  0
 19 23  1  0  0  0  0
 23 24  1  0  0  0  0
 24 25  1  0  0  0  0
 25 26  1  0  0  0  0
 26 27  1  0  0  0  0
 27 28  1  0  0  0  0
 28 29  2  0  0  0  0
 29 30  1  0  0  0  0
 30 31  1  0  0  0  0
 28 32  1  0  0  0  0
 32 33  1  0  0  0  0
 33 34  1  0  0  0  0
 34 35  1  0  0  0  0
 35 36  1  0  0  0  0
 36 37  1  0  0  0  0
 37 38  1  0  0  0  0
 38 39  1  0  0  0  0
 36 40  2  0  0  0  0
 40 41  1  0  0  0  0
 41 42  1  0  0  0  0
 42 43  1  0  0  0  0
 43 44  1  0  0  0  0
 44 45  1  0  0  0  0
 45 46  1  0  0  0  0
 46 47  1  0  0  0  0
 47 48  1  0  0  0  0
 48 49  1  0  0  0  0
 49 50  1  0  0  0  0
 47 51  1  0  0  0  0
 51 52  1  0  0  0  0
 44 53  1  0  0  0  0
 53 54  1  0  0  0  0
 40 55  1  0  0  0  0
 55 56  2  0  0  0  0
 56 57  1  0  0  0  0
 57 58  2  0  0  0  0
 57 59  1  0  0  0  0
 59 60  2  0  0  0  0
 60 61  1  0  0  0  0
 61 62  2  0  0  0  0
 62 63  1  0  0  0  0
 63 64  2  0  0  0  0
 64 65  1  0  0  0  0
 65 66  2  0  0  0  0
 66 67  1  0  0  0  0
 67 68  3  0  0  0  0
 66 69  1  0  0  0  0
 69 70  3  0  0  0  0
 62 71  1  0  0  0  0
 71 72  1  0  0  0  0
 72 73  1  0  0  0  0
 73 74  2  0  0  0  0
 74 75  1  0  0  0  0
 75 76  1  0  0  0  0
 75 77  1  0  0  0  0
 12  2  1  0  0  0  0
 50 18  1  0  0  0  0
 65 56  1  0  0  0  0
 77 71  1  0  0  0  0
 11  5  1  0  0  0  0
 49 23  2  0  0  0  0
 64 59  1  0  0  0  0
 76 72  1  0  0  0  0
 48 25  2  0  0  0  0
 77 61  1  0  0  0  0
 46 26  2  0  0  0  0
 31 27  2  0  0  0  0
 45 32  2  0  0  0  0
 43 33  2  0  0  0  0
 42 35  2  0  0  0  0
  1 78  1  0  0  0  0
  6 79  1  0  0  0  0
  7 80  1  0  0  0  0
 10 81  1  0  0  0  0
 21 82  1  0  0  0  0
 21 83  1  0  0  0  0
 22 84  1  0  0  0  0
 22 85  1  0  0  0  0
 22 86  1  0  0  0  0
 38 87  1  0  0  0  0
 38 88  1  0  0  0  0
 39 89  1  0  0  0  0
 39 90  1  0  0  0  0
 39 91  1  0  0  0  0
 51 92  1  0  0  0  0
 51 93  1  0  0  0  0
 52 94  1  0  0  0  0
 52 95  1  0  0  0  0
 52 96  1  0  0  0  0
 53 97  1  0  0  0  0
 53 98  1  0  0  0  0
 54 99  1  0  0  0  0
 54100  1  0  0  0  0
 54101  1  0  0  0  0
 55102  1  0  0  0  0
 60103  1  0  0  0  0
 63104  1  0  0  0  0
 71105  1  0  0  0  0
 72106  1  0  0  0  0
 73107  1  0  0  0  0
 74108  1  0  0  0  0
 75109  1  0  0  0  0
 76110  1  0  0  0  0
 76111  1  0  0  0  0
 77112  1  0  0  0  0
M  END
