
  xtb     02012223563D
 energy: -191.721991447341 gnorm: 0.000555206536 xtb: 6.4.1 (unknown)
103115  0     0  0            999 V2000
    5.8054    5.8527   -0.7411 C   0  0  0  0  0  0  0  0  0  0  0  0
    6.7556    5.3564    0.1043 C   0  0  0  0  0  0  0  0  0  0  0  0
    8.1917    5.6159   -0.1664 C   0  0  0  0  0  0  0  0  0  0  0  0
    8.6545    6.4263   -0.9369 O   0  0  0  0  0  0  0  0  0  0  0  0
    8.9211    4.6274    0.6589 C   0  0  0  0  0  0  0  0  0  0  0  0
   10.2745    4.3506    0.6969 C   0  0  0  0  0  0  0  0  0  0  0  0
   10.7209    3.3389    1.5333 C   0  0  0  0  0  0  0  0  0  0  0  0
    9.8088    2.6314    2.3052 C   0  0  0  0  0  0  0  0  0  0  0  0
   10.4444    1.2308    3.4213 Br  0  0  0  0  0  0  0  0  0  0  0  0
    8.4462    2.9050    2.2917 C   0  0  0  0  0  0  0  0  0  0  0  0
    8.0061    3.9176    1.4584 C   0  0  0  0  0  0  0  0  0  0  0  0
    6.6696    4.4722    1.2426 C   0  0  0  0  0  0  0  0  0  0  0  0
    5.6289    4.3990    2.1314 C   0  0  0  0  0  0  0  0  0  0  0  0
    5.6208    3.5675    3.2679 C   0  0  0  0  0  0  0  0  0  0  0  0
    5.5555    2.8804    4.1851 N   0  0  0  0  0  0  0  0  0  0  0  0
    4.4894    5.2259    2.0390 C   0  0  0  0  0  0  0  0  0  0  0  0
    3.5802    5.9262    2.0167 N   0  0  0  0  0  0  0  0  0  0  0  0
    4.4907    5.4001   -0.9641 C   0  0  0  0  0  0  0  0  0  0  0  0
    3.4922    6.0694   -1.6660 C   0  0  0  0  0  0  0  0  0  0  0  0
    3.6123    7.4410   -2.2426 C   0  0  0  0  0  0  0  0  0  0  0  0
    4.0293    7.3686   -3.7142 C   0  0  0  0  0  0  0  0  0  0  0  0
    2.3385    5.2911   -1.7814 C   0  0  0  0  0  0  0  0  0  0  0  0
    0.7861    5.5876   -2.5306 S   0  0  0  0  0  0  0  0  0  0  0  0
    0.2752    4.0135   -2.0363 C   0  0  0  0  0  0  0  0  0  0  0  0
   -0.8460    3.1784   -2.1437 C   0  0  0  0  0  0  0  0  0  0  0  0
   -2.0477    3.3235   -2.8724 C   0  0  0  0  0  0  0  0  0  0  0  0
   -2.9687    2.2250   -2.9165 C   0  0  0  0  0  0  0  0  0  0  0  0
   -4.0143    2.4733   -3.6892 N   0  0  0  0  0  0  0  0  0  0  0  0
   -3.8582    3.9628   -4.3016 S   0  0  0  0  0  0  0  0  0  0  0  0
   -2.4474    4.3480   -3.6092 N   0  0  0  0  0  0  0  0  0  0  0  0
   -2.7095    1.0857   -2.1224 C   0  0  0  0  0  0  0  0  0  0  0  0
   -3.4902   -0.0455   -1.8465 C   0  0  0  0  0  0  0  0  0  0  0  0
   -5.0113   -0.7257   -2.3027 S   0  0  0  0  0  0  0  0  0  0  0  0
   -4.7631   -2.0008   -1.1328 C   0  0  0  0  0  0  0  0  0  0  0  0
   -5.5444   -3.0970   -0.7563 C   0  0  0  0  0  0  0  0  0  0  0  0
   -6.8589   -3.4196   -1.3854 C   0  0  0  0  0  0  0  0  0  0  0  0
   -6.6505   -4.2154   -2.6768 C   0  0  0  0  0  0  0  0  0  0  0  0
   -4.9397   -3.8256    0.2607 C   0  0  0  0  0  0  0  0  0  0  0  0
   -3.3721   -3.1545    0.7142 S   0  0  0  0  0  0  0  0  0  0  0  0
   -3.5501   -1.8875   -0.4394 C   0  0  0  0  0  0  0  0  0  0  0  0
   -2.8182   -0.7737   -0.8558 C   0  0  0  0  0  0  0  0  0  0  0  0
   -1.6446   -0.1479   -0.5302 N   0  0  0  0  0  0  0  0  0  0  0  0
   -1.5412    0.9869   -1.3120 C   0  0  0  0  0  0  0  0  0  0  0  0
   -0.5393    1.9833   -1.4315 C   0  0  0  0  0  0  0  0  0  0  0  0
    0.7563    2.0766   -0.9474 N   0  0  0  0  0  0  0  0  0  0  0  0
    1.2471    3.3000   -1.3229 C   0  0  0  0  0  0  0  0  0  0  0  0
    2.4325    4.0234   -1.1886 C   0  0  0  0  0  0  0  0  0  0  0  0
    3.9819    3.7802   -0.4773 S   0  0  0  0  0  0  0  0  0  0  0  0
    1.6951    1.0169   -0.6456 C   0  0  0  0  0  0  0  0  0  0  0  0
    2.0104    0.1970   -1.8948 C   0  0  0  0  0  0  0  0  0  0  0  0
   -0.9696   -0.4926    0.7019 C   0  0  0  0  0  0  0  0  0  0  0  0
   -0.1117   -1.7484    0.5600 C   0  0  0  0  0  0  0  0  0  0  0  0
   -5.4085   -5.0261    0.8358 C   0  0  0  0  0  0  0  0  0  0  0  0
   -5.0346   -5.6145    2.0077 C   0  0  0  0  0  0  0  0  0  0  0  0
   -5.2401   -7.0738    2.2000 C   0  0  0  0  0  0  0  0  0  0  0  0
   -5.9153   -7.8080    1.5138 O   0  0  0  0  0  0  0  0  0  0  0  0
   -4.3957   -7.4323    3.3574 C   0  0  0  0  0  0  0  0  0  0  0  0
   -4.1335   -8.6644    3.8824 C   0  0  0  0  0  0  0  0  0  0  0  0
   -3.2651   -8.7707    4.9923 C   0  0  0  0  0  0  0  0  0  0  0  0
   -2.9646  -10.0191    5.5746 C   0  0  0  0  0  0  0  0  0  0  0  0
   -2.1203  -10.1123    6.6459 C   0  0  0  0  0  0  0  0  0  0  0  0
   -1.5508   -8.9413    7.1640 C   0  0  0  0  0  0  0  0  0  0  0  0
   -0.7216   -9.0526    8.2178 F   0  0  0  0  0  0  0  0  0  0  0  0
   -1.8083   -7.7060    6.6379 C   0  0  0  0  0  0  0  0  0  0  0  0
   -2.6775   -7.5912    5.5358 C   0  0  0  0  0  0  0  0  0  0  0  0
   -2.9729   -6.3261    4.9762 C   0  0  0  0  0  0  0  0  0  0  0  0
   -3.8237   -6.2488    3.9078 C   0  0  0  0  0  0  0  0  0  0  0  0
   -4.3392   -5.1021    3.1660 C   0  0  0  0  0  0  0  0  0  0  0  0
   -4.3981   -3.8153    3.6374 C   0  0  0  0  0  0  0  0  0  0  0  0
   -3.7571   -3.3779    4.8121 C   0  0  0  0  0  0  0  0  0  0  0  0
   -3.2320   -2.9615    5.7445 N   0  0  0  0  0  0  0  0  0  0  0  0
   -5.1817   -2.8109    3.0331 C   0  0  0  0  0  0  0  0  0  0  0  0
   -5.8494   -1.9886    2.5899 N   0  0  0  0  0  0  0  0  0  0  0  0
    6.1523    6.6409   -1.4017 H   0  0  0  0  0  0  0  0  0  0  0  0
   10.9621    4.9128    0.0847 H   0  0  0  0  0  0  0  0  0  0  0  0
   11.7704    3.0942    1.5866 H   0  0  0  0  0  0  0  0  0  0  0  0
    7.7684    2.3326    2.9049 H   0  0  0  0  0  0  0  0  0  0  0  0
    2.6395    7.9312   -2.1710 H   0  0  0  0  0  0  0  0  0  0  0  0
    4.3358    8.0284   -1.6779 H   0  0  0  0  0  0  0  0  0  0  0  0
    4.1016    8.3704   -4.1283 H   0  0  0  0  0  0  0  0  0  0  0  0
    4.9956    6.8800   -3.8167 H   0  0  0  0  0  0  0  0  0  0  0  0
    3.2948    6.8084   -4.2879 H   0  0  0  0  0  0  0  0  0  0  0  0
   -7.4816   -3.9860   -0.6935 H   0  0  0  0  0  0  0  0  0  0  0  0
   -7.3686   -2.4832   -1.6202 H   0  0  0  0  0  0  0  0  0  0  0  0
   -6.0511   -3.6431   -3.3809 H   0  0  0  0  0  0  0  0  0  0  0  0
   -7.6102   -4.4346   -3.1366 H   0  0  0  0  0  0  0  0  0  0  0  0
   -6.1415   -5.1545   -2.4711 H   0  0  0  0  0  0  0  0  0  0  0  0
    1.3236    0.3736    0.1464 H   0  0  0  0  0  0  0  0  0  0  0  0
    2.6052    1.4995   -0.2808 H   0  0  0  0  0  0  0  0  0  0  0  0
    1.1073   -0.2666   -2.2867 H   0  0  0  0  0  0  0  0  0  0  0  0
    2.4311    0.8350   -2.6687 H   0  0  0  0  0  0  0  0  0  0  0  0
    2.7322   -0.5795   -1.6566 H   0  0  0  0  0  0  0  0  0  0  0  0
   -1.7404   -0.6815    1.4580 H   0  0  0  0  0  0  0  0  0  0  0  0
   -0.3914    0.3683    1.0390 H   0  0  0  0  0  0  0  0  0  0  0  0
    0.4333   -1.9251    1.4830 H   0  0  0  0  0  0  0  0  0  0  0  0
   -0.7444   -2.6108    0.3676 H   0  0  0  0  0  0  0  0  0  0  0  0
    0.5970   -1.6601   -0.2587 H   0  0  0  0  0  0  0  0  0  0  0  0
   -6.0881   -5.6120    0.2250 H   0  0  0  0  0  0  0  0  0  0  0  0
   -4.5840   -9.5491    3.4578 H   0  0  0  0  0  0  0  0  0  0  0  0
   -3.4154  -10.9073    5.1580 H   0  0  0  0  0  0  0  0  0  0  0  0
   -1.8807  -11.0593    7.1027 H   0  0  0  0  0  0  0  0  0  0  0  0
   -1.3554   -6.8250    7.0654 H   0  0  0  0  0  0  0  0  0  0  0  0
   -2.5116   -5.4487    5.4017 H   0  0  0  0  0  0  0  0  0  0  0  0
  1  2  2  0  0  0  0
  2  3  1  0  0  0  0
  3  4  2  0  0  0  0
  3  5  1  0  0  0  0
  5  6  2  0  0  0  0
  6  7  1  0  0  0  0
  7  8  2  0  0  0  0
  8  9  1  0  0  0  0
  8 10  1  0  0  0  0
 10 11  2  0  0  0  0
 11 12  1  0  0  0  0
 12 13  2  0  0  0  0
 13 14  1  0  0  0  0
 14 15  3  0  0  0  0
 13 16  1  0  0  0  0
 16 17  3  0  0  0  0
  1 18  1  0  0  0  0
 18 19  2  0  0  0  0
 19 20  1  0  0  0  0
 20 21  1  0  0  0  0
 19 22  1  0  0  0  0
 22 23  1  0  0  0  0
 23 24  1  0  0  0  0
 24 25  1  0  0  0  0
 25 26  1  0  0  0  0
 26 27  1  0  0  0  0
 27 28  2  0  0  0  0
 28 29  1  0  0  0  0
 29 30  1  0  0  0  0
 27 31  1  0  0  0  0
 31 32  1  0  0  0  0
 32 33  1  0  0  0  0
 33 34  1  0  0  0  0
 34 35  1  0  0  0  0
 35 36  1  0  0  0  0
 36 37  1  0  0  0  0
 35 38  2  0  0  0  0
 38 39  1  0  0  0  0
 39 40  1  0  0  0  0
 40 41  1  0  0  0  0
 41 42  1  0  0  0  0
 42 43  1  0  0  0  0
 43 44  1  0  0  0  0
 44 45  1  0  0  0  0
 45 46  1  0  0  0  0
 46 47  1  0  0  0  0
 47 48  1  0  0  0  0
 45 49  1  0  0  0  0
 49 50  1  0  0  0  0
 42 51  1  0  0  0  0
 51 52  1  0  0  0  0
 38 53  1  0  0  0  0
 53 54  2  0  0  0  0
 54 55  1  0  0  0  0
 55 56  2  0  0  0  0
 55 57  1  0  0  0  0
 57 58  2  0  0  0  0
 58 59  1  0  0  0  0
 59 60  2  0  0  0  0
 60 61  1  0  0  0  0
 61 62  2  0  0  0  0
 62 63  1  0  0  0  0
 62 64  1  0  0  0  0
 64 65  2  0  0  0  0
 65 66  1  0  0  0  0
 66 67  2  0  0  0  0
 67 68  1  0  0  0  0
 68 69  2  0  0  0  0
 69 70  1  0  0  0  0
 70 71  3  0  0  0  0
 69 72  1  0  0  0  0
 72 73  3  0  0  0  0
 12  2  1  0  0  0  0
 48 18  1  0  0  0  0
 68 54  1  0  0  0  0
 11  5  1  0  0  0  0
 47 22  2  0  0  0  0
 67 57  1  0  0  0  0
 46 24  2  0  0  0  0
 65 59  1  0  0  0  0
 44 25  2  0  0  0  0
 30 26  2  0  0  0  0
 43 31  2  0  0  0  0
 41 32  2  0  0  0  0
 40 34  2  0  0  0  0
  1 74  1  0  0  0  0
  6 75  1  0  0  0  0
  7 76  1  0  0  0  0
 10 77  1  0  0  0  0
 20 78  1  0  0  0  0
 20 79  1  0  0  0  0
 21 80  1  0  0  0  0
 21 81  1  0  0  0  0
 21 82  1  0  0  0  0
 36 83  1  0  0  0  0
 36 84  1  0  0  0  0
 37 85  1  0  0  0  0
 37 86  1  0  0  0  0
 37 87  1  0  0  0  0
 49 88  1  0  0  0  0
 49 89  1  0  0  0  0
 50 90  1  0  0  0  0
 50 91  1  0  0  0  0
 50 92  1  0  0  0  0
 51 93  1  0  0  0  0
 51 94  1  0  0  0  0
 52 95  1  0  0  0  0
 52 96  1  0  0  0  0
 52 97  1  0  0  0  0
 53 98  1  0  0  0  0
 58 99  1  0  0  0  0
 60100  1  0  0  0  0
 61101  1  0  0  0  0
 64102  1  0  0  0  0
 66103  1  0  0  0  0
M  END
