87

C         -0.31030        5.40100        1.79050
C         -0.59930        6.02620        0.61670
C         -1.04700        5.37200       -0.64290
O         -1.01690        4.20130       -0.94470
C         -1.62500        6.46100       -1.45970
C         -2.24470        6.36890       -2.69200
C         -2.72480        7.52810       -3.27890
C         -2.57870        8.74190       -2.61890
Br        -3.25890       10.31530       -3.43880
C         -1.95790        8.85210       -1.38080
C         -1.47360        7.69140       -0.79910
C         -0.78360        7.46080        0.46780
C         -0.31990        8.42980        1.31430
C         -0.50370        9.81360        1.10520
N         -0.62870       10.94810        0.98680
C          0.43780        8.18840        2.48180
N          1.07830        8.08310        3.42840
C         -0.09440        4.00610        2.02100
C          0.47870        3.11570        1.13250
C          0.62560        1.74700        1.42600
C          0.18940        1.16990        2.64320
C         -0.33020        2.08800        3.59090
C         -0.45500        3.47260        3.29090
N         -0.98130        4.06970        4.36510
N         -1.13950        3.10080        5.22690
C         -1.63060        3.34780        6.55200
C         -0.51190        3.88200        7.44140
N         -0.78150        1.90770        4.83770
C          0.23890       -0.21870        2.88380
C          0.67410       -1.11350        1.93190
C          1.20580       -0.56120        0.73840
N          1.80840       -1.14450       -0.30410
N          2.10920       -0.15070       -1.09370
C          2.81830       -0.35670       -2.32320
C          4.32440       -0.33890       -2.07790
N          1.77980        1.04440       -0.68750
C          1.19470        0.83990        0.49620
C          0.61090       -2.54630        2.11510
C          0.15060       -3.38740        1.16250
C         -0.60630       -2.93910       -0.04360
O         -0.94920       -1.81320       -0.32620
C         -0.96800       -4.16920       -0.76630
C         -1.67930       -4.24690       -1.96180
C         -1.89170       -5.52910       -2.40440
C         -1.43780       -6.65610       -1.70370
C         -0.74850       -6.59440       -0.51690
C         -0.51460       -5.29570       -0.04970
C          0.17220       -4.84400        1.15570
C          0.77070       -5.64860        2.08650
C          1.45370       -5.19300        3.23490
N          2.02650       -4.90610        4.18760
C          0.79490       -7.05900        2.03200
N          0.85350       -8.20510        2.05490
C         -1.99340       -7.61330       -2.72840
C         -0.99920       -8.25530       -3.72780
C          0.15670       -7.29510       -3.86140
C         -0.27590       -6.23000       -4.52290
C         -1.73270       -6.45030       -4.84780
C         -1.73850       -7.97440       -5.04600
C         -2.50110       -6.35830       -3.50610
H         -0.31910        5.99300        2.69880
H         -2.34660        5.41050       -3.17680
H         -3.21260        7.49710       -4.24090
H         -1.87240        9.81420       -0.90230
H          0.84820        3.45120        0.17810
H         -2.01360        2.40080        6.93560
H         -2.43790        4.07980        6.47950
H         -0.89580        4.07930        8.43810
H          0.29300        3.15460        7.51340
H         -0.11600        4.80610        7.02740
H         -0.15180       -0.57490        3.82540
H          2.53060        0.44620       -3.00420
H          2.50760       -1.32280       -2.72550
H          4.85350       -0.49790       -3.01310
H          4.62550        0.62010       -1.66330
H          4.60000       -1.12610       -1.38030
H          0.94610       -2.92530        3.07180
H         -2.01390       -3.35240       -2.46360
H         -0.41810       -7.47120        0.01440
H         -2.73360       -8.32370       -2.36600
H         -0.74210       -9.28780       -3.50750
H          1.12450       -7.45930       -3.42510
H          0.25820       -5.32600       -4.75000
H         -2.14460       -5.83950       -5.64680
H         -1.17170       -8.28700       -5.92160
H         -2.73880       -8.40330       -5.08270
H         -3.57400       -6.24620       -3.64880
