
  xtb     02022202013D
 energy: -155.656753399772 gnorm: 0.000236903541 xtb: 6.4.1 (unknown)
 87 97  0     0  0            999 V2000
   -0.3103    5.4010    1.7905 C   0  0  0  0  0  0  0  0  0  0  0  0
   -0.5993    6.0262    0.6167 C   0  0  0  0  0  0  0  0  0  0  0  0
   -1.0470    5.3720   -0.6429 C   0  0  0  0  0  0  0  0  0  0  0  0
   -1.0169    4.2013   -0.9447 O   0  0  0  0  0  0  0  0  0  0  0  0
   -1.6250    6.4610   -1.4597 C   0  0  0  0  0  0  0  0  0  0  0  0
   -2.2447    6.3689   -2.6920 C   0  0  0  0  0  0  0  0  0  0  0  0
   -2.7248    7.5281   -3.2789 C   0  0  0  0  0  0  0  0  0  0  0  0
   -2.5787    8.7419   -2.6189 C   0  0  0  0  0  0  0  0  0  0  0  0
   -3.2589   10.3153   -3.4388 Br  0  0  0  0  0  0  0  0  0  0  0  0
   -1.9579    8.8521   -1.3808 C   0  0  0  0  0  0  0  0  0  0  0  0
   -1.4736    7.6914   -0.7991 C   0  0  0  0  0  0  0  0  0  0  0  0
   -0.7836    7.4608    0.4678 C   0  0  0  0  0  0  0  0  0  0  0  0
   -0.3199    8.4298    1.3143 C   0  0  0  0  0  0  0  0  0  0  0  0
   -0.5037    9.8136    1.1052 C   0  0  0  0  0  0  0  0  0  0  0  0
   -0.6287   10.9481    0.9868 N   0  0  0  0  0  0  0  0  0  0  0  0
    0.4378    8.1884    2.4818 C   0  0  0  0  0  0  0  0  0  0  0  0
    1.0783    8.0831    3.4284 N   0  0  0  0  0  0  0  0  0  0  0  0
   -0.0944    4.0061    2.0210 C   0  0  0  0  0  0  0  0  0  0  0  0
    0.4787    3.1157    1.1325 C   0  0  0  0  0  0  0  0  0  0  0  0
    0.6256    1.7470    1.4260 C   0  0  0  0  0  0  0  0  0  0  0  0
    0.1894    1.1699    2.6432 C   0  0  0  0  0  0  0  0  0  0  0  0
   -0.3302    2.0880    3.5909 C   0  0  0  0  0  0  0  0  0  0  0  0
   -0.4550    3.4726    3.2909 C   0  0  0  0  0  0  0  0  0  0  0  0
   -0.9813    4.0697    4.3651 N   0  0  0  0  0  0  0  0  0  0  0  0
   -1.1395    3.1008    5.2269 N   0  0  0  0  0  0  0  0  0  0  0  0
   -1.6306    3.3478    6.5520 C   0  0  0  0  0  0  0  0  0  0  0  0
   -0.5119    3.8820    7.4414 C   0  0  0  0  0  0  0  0  0  0  0  0
   -0.7815    1.9077    4.8377 N   0  0  0  0  0  0  0  0  0  0  0  0
    0.2389   -0.2187    2.8838 C   0  0  0  0  0  0  0  0  0  0  0  0
    0.6741   -1.1135    1.9319 C   0  0  0  0  0  0  0  0  0  0  0  0
    1.2058   -0.5612    0.7384 C   0  0  0  0  0  0  0  0  0  0  0  0
    1.8084   -1.1445   -0.3041 N   0  0  0  0  0  0  0  0  0  0  0  0
    2.1092   -0.1507   -1.0937 N   0  0  0  0  0  0  0  0  0  0  0  0
    2.8183   -0.3567   -2.3232 C   0  0  0  0  0  0  0  0  0  0  0  0
    4.3244   -0.3389   -2.0779 C   0  0  0  0  0  0  0  0  0  0  0  0
    1.7798    1.0444   -0.6875 N   0  0  0  0  0  0  0  0  0  0  0  0
    1.1947    0.8399    0.4962 C   0  0  0  0  0  0  0  0  0  0  0  0
    0.6109   -2.5463    2.1151 C   0  0  0  0  0  0  0  0  0  0  0  0
    0.1506   -3.3874    1.1625 C   0  0  0  0  0  0  0  0  0  0  0  0
   -0.6063   -2.9391   -0.0436 C   0  0  0  0  0  0  0  0  0  0  0  0
   -0.9492   -1.8132   -0.3262 O   0  0  0  0  0  0  0  0  0  0  0  0
   -0.9680   -4.1692   -0.7663 C   0  0  0  0  0  0  0  0  0  0  0  0
   -1.6793   -4.2469   -1.9618 C   0  0  0  0  0  0  0  0  0  0  0  0
   -1.8917   -5.5291   -2.4044 C   0  0  0  0  0  0  0  0  0  0  0  0
   -1.4378   -6.6561   -1.7037 C   0  0  0  0  0  0  0  0  0  0  0  0
   -0.7485   -6.5944   -0.5169 C   0  0  0  0  0  0  0  0  0  0  0  0
   -0.5146   -5.2957   -0.0497 C   0  0  0  0  0  0  0  0  0  0  0  0
    0.1722   -4.8440    1.1557 C   0  0  0  0  0  0  0  0  0  0  0  0
    0.7707   -5.6486    2.0865 C   0  0  0  0  0  0  0  0  0  0  0  0
    1.4537   -5.1930    3.2349 C   0  0  0  0  0  0  0  0  0  0  0  0
    2.0265   -4.9061    4.1876 N   0  0  0  0  0  0  0  0  0  0  0  0
    0.7949   -7.0590    2.0320 C   0  0  0  0  0  0  0  0  0  0  0  0
    0.8535   -8.2051    2.0549 N   0  0  0  0  0  0  0  0  0  0  0  0
   -1.9934   -7.6133   -2.7284 C   0  0  0  0  0  0  0  0  0  0  0  0
   -0.9992   -8.2553   -3.7278 C   0  0  0  0  0  0  0  0  0  0  0  0
    0.1567   -7.2951   -3.8614 C   0  0  0  0  0  0  0  0  0  0  0  0
   -0.2759   -6.2300   -4.5229 C   0  0  0  0  0  0  0  0  0  0  0  0
   -1.7327   -6.4503   -4.8478 C   0  0  0  0  0  0  0  0  0  0  0  0
   -1.7385   -7.9744   -5.0460 C   0  0  0  0  0  0  0  0  0  0  0  0
   -2.5011   -6.3583   -3.5061 C   0  0  0  0  0  0  0  0  0  0  0  0
   -0.3191    5.9930    2.6988 H   0  0  0  0  0  0  0  0  0  0  0  0
   -2.3466    5.4105   -3.1768 H   0  0  0  0  0  0  0  0  0  0  0  0
   -3.2126    7.4971   -4.2409 H   0  0  0  0  0  0  0  0  0  0  0  0
   -1.8724    9.8142   -0.9023 H   0  0  0  0  0  0  0  0  0  0  0  0
    0.8482    3.4512    0.1781 H   0  0  0  0  0  0  0  0  0  0  0  0
   -2.0136    2.4008    6.9356 H   0  0  0  0  0  0  0  0  0  0  0  0
   -2.4379    4.0798    6.4795 H   0  0  0  0  0  0  0  0  0  0  0  0
   -0.8958    4.0793    8.4381 H   0  0  0  0  0  0  0  0  0  0  0  0
    0.2930    3.1546    7.5134 H   0  0  0  0  0  0  0  0  0  0  0  0
   -0.1160    4.8061    7.0274 H   0  0  0  0  0  0  0  0  0  0  0  0
   -0.1518   -0.5749    3.8254 H   0  0  0  0  0  0  0  0  0  0  0  0
    2.5306    0.4462   -3.0042 H   0  0  0  0  0  0  0  0  0  0  0  0
    2.5076   -1.3228   -2.7255 H   0  0  0  0  0  0  0  0  0  0  0  0
    4.8535   -0.4979   -3.0131 H   0  0  0  0  0  0  0  0  0  0  0  0
    4.6255    0.6201   -1.6633 H   0  0  0  0  0  0  0  0  0  0  0  0
    4.6000   -1.1261   -1.3803 H   0  0  0  0  0  0  0  0  0  0  0  0
    0.9461   -2.9253    3.0718 H   0  0  0  0  0  0  0  0  0  0  0  0
   -2.0139   -3.3524   -2.4636 H   0  0  0  0  0  0  0  0  0  0  0  0
   -0.4181   -7.4712    0.0144 H   0  0  0  0  0  0  0  0  0  0  0  0
   -2.7336   -8.3237   -2.3660 H   0  0  0  0  0  0  0  0  0  0  0  0
   -0.7421   -9.2878   -3.5075 H   0  0  0  0  0  0  0  0  0  0  0  0
    1.1245   -7.4593   -3.4251 H   0  0  0  0  0  0  0  0  0  0  0  0
    0.2582   -5.3260   -4.7500 H   0  0  0  0  0  0  0  0  0  0  0  0
   -2.1446   -5.8395   -5.6468 H   0  0  0  0  0  0  0  0  0  0  0  0
   -1.1717   -8.2870   -5.9216 H   0  0  0  0  0  0  0  0  0  0  0  0
   -2.7388   -8.4033   -5.0827 H   0  0  0  0  0  0  0  0  0  0  0  0
   -3.5740   -6.2462   -3.6488 H   0  0  0  0  0  0  0  0  0  0  0  0
  1  2  2  0  0  0  0
  2  3  1  0  0  0  0
  3  4  2  0  0  0  0
  3  5  1  0  0  0  0
  5  6  2  0  0  0  0
  6  7  1  0  0  0  0
  7  8  2  0  0  0  0
  8  9  1  0  0  0  0
  8 10  1  0  0  0  0
 10 11  2  0  0  0  0
 11 12  1  0  0  0  0
 12 13  2  0  0  0  0
 13 14  1  0  0  0  0
 14 15  3  0  0  0  0
 13 16  1  0  0  0  0
 16 17  3  0  0  0  0
  1 18  1  0  0  0  0
 18 19  2  0  0  0  0
 19 20  1  0  0  0  0
 20 21  2  0  0  0  0
 21 22  1  0  0  0  0
 22 23  1  0  0  0  0
 23 24  2  0  0  0  0
 24 25  1  0  0  0  0
 25 26  1  0  0  0  0
 26 27  1  0  0  0  0
 25 28  1  0  0  0  0
 21 29  1  0  0  0  0
 29 30  2  0  0  0  0
 30 31  1  0  0  0  0
 31 32  2  0  0  0  0
 32 33  1  0  0  0  0
 33 34  1  0  0  0  0
 34 35  1  0  0  0  0
 33 36  1  0  0  0  0
 36 37  2  0  0  0  0
 30 38  1  0  0  0  0
 38 39  2  0  0  0  0
 39 40  1  0  0  0  0
 40 41  2  0  0  0  0
 40 42  1  0  0  0  0
 42 43  2  0  0  0  0
 43 44  1  0  0  0  0
 44 45  2  0  0  0  0
 45 46  1  0  0  0  0
 46 47  2  0  0  0  0
 47 48  1  0  0  0  0
 48 49  2  0  0  0  0
 49 50  1  0  0  0  0
 50 51  3  0  0  0  0
 49 52  1  0  0  0  0
 52 53  3  0  0  0  0
 45 54  1  0  0  0  0
 54 55  1  0  0  0  0
 55 56  1  0  0  0  0
 56 57  2  0  0  0  0
 57 58  1  0  0  0  0
 58 59  1  0  0  0  0
 58 60  1  0  0  0  0
 12  2  1  0  0  0  0
 23 18  1  0  0  0  0
 37 31  1  0  0  0  0
 48 39  1  0  0  0  0
 60 54  1  0  0  0  0
 11  5  1  0  0  0  0
 37 20  1  0  0  0  0
 47 42  1  0  0  0  0
 59 55  1  0  0  0  0
 28 22  2  0  0  0  0
 60 44  1  0  0  0  0
  1 61  1  0  0  0  0
  6 62  1  0  0  0  0
  7 63  1  0  0  0  0
 10 64  1  0  0  0  0
 19 65  1  0  0  0  0
 26 66  1  0  0  0  0
 26 67  1  0  0  0  0
 27 68  1  0  0  0  0
 27 69  1  0  0  0  0
 27 70  1  0  0  0  0
 29 71  1  0  0  0  0
 34 72  1  0  0  0  0
 34 73  1  0  0  0  0
 35 74  1  0  0  0  0
 35 75  1  0  0  0  0
 35 76  1  0  0  0  0
 38 77  1  0  0  0  0
 43 78  1  0  0  0  0
 46 79  1  0  0  0  0
 54 80  1  0  0  0  0
 55 81  1  0  0  0  0
 56 82  1  0  0  0  0
 57 83  1  0  0  0  0
 58 84  1  0  0  0  0
 59 85  1  0  0  0  0
 59 86  1  0  0  0  0
 60 87  1  0  0  0  0
M  END
