98

C          2.12360       -6.02770       -3.34420
C          1.78910       -7.31890       -3.67010
C          0.44360       -7.90640       -3.84050
O         -0.63370       -7.35030       -3.91510
C          0.65240       -9.36820       -3.89220
C         -0.29730      -10.36880       -3.97280
C          0.13020      -11.68670       -3.98630
C          1.48890      -11.96590       -3.91830
Br         2.05100      -13.78130       -3.92310
C          2.45640      -10.97090       -3.84290
C          2.02550       -9.65480       -3.83230
C          2.76250       -8.39280       -3.76020
C          4.12590       -8.27750       -3.83290
C          5.00680       -9.37590       -3.93390
N          5.77710      -10.22300       -4.01230
C          4.85680       -7.07010       -3.85920
N          5.53060       -6.14100       -3.90510
C          1.34000       -4.87500       -3.18880
C          0.00370       -4.58770       -3.46050
C         -0.34390       -3.30480       -3.08470
C         -1.59150       -2.46300       -3.10910
C         -1.89260       -2.14210       -4.59390
C         -3.01810       -1.14610       -4.83720
C         -2.77700       -3.16070       -2.42740
C         -2.45540       -3.60010       -1.00360
C         -1.12100       -1.23620       -2.35370
C          0.24910       -1.30640       -2.07500
C          0.71190       -2.57730       -2.53330
S          2.16310       -3.47350       -2.49150
C          0.92050       -0.27740       -1.37560
C          2.30880       -0.28490       -1.14960
C          2.92410        0.70930       -0.42570
C          2.15440        1.72720        0.13080
C          2.60020        2.87350        1.01670
C          3.04930        2.39610        2.41890
C          4.28260        1.50420        2.46110
C          3.67090        3.74660        0.34380
C          3.18900        4.35500       -0.96840
C          1.30110        3.61060        1.20230
C          0.87650        4.71540        1.91680
C         -0.49700        4.91780        1.81160
S         -1.24170        3.70040        0.76810
C          0.27100        2.94330        0.54020
C          0.77830        1.78290       -0.12040
C          0.12160        0.79760       -0.89250
C         -1.25820        0.83290       -1.16580
C         -1.87280       -0.15870       -1.89400
C         -1.37400        5.85970        2.37260
C         -1.18820        6.80980        3.34450
C          0.00510        7.04800        4.18670
O          1.12610        6.59460        4.07250
C         -0.43820        7.97100        5.24990
C          0.27940        8.44610        6.33130
C         -0.35300        9.29570        7.22430
C         -1.68190        9.64950        7.01780
Cl        -2.45480       10.69800        8.14500
C         -2.41300        9.18260        5.92960
C         -1.77760        8.33520        5.03780
C         -2.25090        7.67990        3.81880
C         -3.46170        7.91470        3.22220
C         -3.90410        7.36890        1.99770
N         -4.33870        6.98950        1.00440
C         -4.44350        8.78620        3.74110
N         -5.28900        9.47140        4.10560
H          3.17010       -5.85880       -3.11740
H         -1.34590      -10.11950       -4.02060
H         -0.58090      -12.49590       -4.04580
H          3.49930      -11.23700       -3.78810
H         -0.66010       -5.31400       -3.89060
H         -0.97670       -1.75280       -5.04630
H         -2.13180       -3.08540       -5.08930
H         -3.95370       -1.48880       -4.40380
H         -2.77180       -0.17100       -4.42590
H         -3.16740       -1.03190       -5.90860
H         -3.05370       -4.03320       -3.02200
H         -3.62830       -2.47990       -2.40620
H         -3.32910       -4.06210       -0.55060
H         -2.16130       -2.74830       -0.39360
H         -1.64480       -4.32510       -0.99680
H          2.89690       -1.08960       -1.56540
H          3.99450        0.69490       -0.29530
H          2.21290        1.85890        2.87400
H          3.23270        3.28950        3.01960
H          5.13760        1.98370        1.99270
H          4.53900        1.30260        3.49890
H          4.09490        0.55260        1.97190
H          3.95060        4.54440        1.03430
H          4.55500        3.13870        0.14930
H          2.33330        5.00560       -0.80300
H          3.98360        4.94480       -1.41890
H          2.89830        3.57660       -1.67090
H          1.50430        5.35990        2.50290
H         -1.84110        1.65750       -0.78330
H         -2.93520       -0.11300       -2.07480
H         -2.38500        5.77150        1.99120
H          1.30850        8.15290        6.46900
H          0.17390        9.68440        8.08120
H         -3.44160        9.47940        5.80980
