
  xtb     02102220443D
 energy: -214.188210715121 gnorm: 0.000424017550 xtb: 6.4.1 (unknown)
114127  0     0  0            999 V2000
    7.3882    3.1758   -2.0963 C   0  0  0  0  0  0  0  0  0  0  0  0
    7.4409    4.5140   -1.8053 C   0  0  0  0  0  0  0  0  0  0  0  0
    6.3814    5.3188   -1.1739 C   0  0  0  0  0  0  0  0  0  0  0  0
    5.3009    4.9355   -0.7645 O   0  0  0  0  0  0  0  0  0  0  0  0
    6.9026    6.6949   -1.1409 C   0  0  0  0  0  0  0  0  0  0  0  0
    6.4703    7.9583   -0.7119 C   0  0  0  0  0  0  0  0  0  0  0  0
    7.4310    8.9025   -0.9530 C   0  0  0  0  0  0  0  0  0  0  0  0
    7.3270   10.5640   -0.5937 Cl  0  0  0  0  0  0  0  0  0  0  0  0
    8.8751    8.2663   -1.7028 S   0  0  0  0  0  0  0  0  0  0  0  0
    8.1729    6.7009   -1.6950 C   0  0  0  0  0  0  0  0  0  0  0  0
    8.5686    5.3811   -2.1081 C   0  0  0  0  0  0  0  0  0  0  0  0
    9.7904    5.0678   -2.6500 C   0  0  0  0  0  0  0  0  0  0  0  0
   10.7526    6.0762   -2.8677 C   0  0  0  0  0  0  0  0  0  0  0  0
   11.5384    6.8925   -3.0497 N   0  0  0  0  0  0  0  0  0  0  0  0
   10.2341    3.7841   -3.0184 C   0  0  0  0  0  0  0  0  0  0  0  0
   10.6716    2.7675   -3.3272 N   0  0  0  0  0  0  0  0  0  0  0  0
    6.3801    2.2317   -1.8673 C   0  0  0  0  0  0  0  0  0  0  0  0
    6.5201    0.8877   -2.2527 C   0  0  0  0  0  0  0  0  0  0  0  0
    7.7124    0.3368   -2.9139 C   0  0  0  0  0  0  0  0  0  0  0  0
    7.6035   -0.0310   -4.2515 C   0  0  0  0  0  0  0  0  0  0  0  0
    8.6941   -0.5372   -4.9310 C   0  0  0  0  0  0  0  0  0  0  0  0
    9.9020   -0.6869   -4.2721 C   0  0  0  0  0  0  0  0  0  0  0  0
   10.0061   -0.3442   -2.9371 C   0  0  0  0  0  0  0  0  0  0  0  0
    8.9235    0.1706   -2.2373 C   0  0  0  0  0  0  0  0  0  0  0  0
    9.0471    0.4429   -0.7646 C   0  0  0  0  0  0  0  0  0  0  0  0
    8.5525   -0.7648    0.0350 C   0  0  0  0  0  0  0  0  0  0  0  0
    5.3724    0.1543   -1.9795 C   0  0  0  0  0  0  0  0  0  0  0  0
    4.9505   -1.5265   -2.2417 S   0  0  0  0  0  0  0  0  0  0  0  0
    3.4021   -1.2096   -1.5364 C   0  0  0  0  0  0  0  0  0  0  0  0
    2.1902   -1.8710   -1.3004 C   0  0  0  0  0  0  0  0  0  0  0  0
    1.7509   -3.1611   -1.6730 C   0  0  0  0  0  0  0  0  0  0  0  0
    0.3785   -3.5135   -1.4557 C   0  0  0  0  0  0  0  0  0  0  0  0
    0.0873   -4.7203   -1.9145 N   0  0  0  0  0  0  0  0  0  0  0  0
    1.4268   -5.3612   -2.5590 S   0  0  0  0  0  0  0  0  0  0  0  0
    2.4297   -4.1215   -2.2800 N   0  0  0  0  0  0  0  0  0  0  0  0
   -0.4564   -2.6109   -0.7594 C   0  0  0  0  0  0  0  0  0  0  0  0
   -1.7762   -2.7424   -0.3085 C   0  0  0  0  0  0  0  0  0  0  0  0
   -3.0827   -3.8733   -0.3974 S   0  0  0  0  0  0  0  0  0  0  0  0
   -4.0264   -2.8039    0.6222 C   0  0  0  0  0  0  0  0  0  0  0  0
   -5.3084   -2.8964    1.1426 C   0  0  0  0  0  0  0  0  0  0  0  0
   -6.2336   -4.0033    0.8564 C   0  0  0  0  0  0  0  0  0  0  0  0
   -6.5809   -4.9477    1.8248 C   0  0  0  0  0  0  0  0  0  0  0  0
   -5.9512   -4.9451    3.1888 C   0  0  0  0  0  0  0  0  0  0  0  0
   -4.6198   -5.6989    3.1524 C   0  0  0  0  0  0  0  0  0  0  0  0
   -7.4659   -5.9585    1.4751 C   0  0  0  0  0  0  0  0  0  0  0  0
   -7.9998   -6.0374    0.2027 C   0  0  0  0  0  0  0  0  0  0  0  0
   -7.6388   -5.1070   -0.7567 C   0  0  0  0  0  0  0  0  0  0  0  0
   -6.7552   -4.0970   -0.4305 C   0  0  0  0  0  0  0  0  0  0  0  0
   -5.6319   -1.7767    1.9329 C   0  0  0  0  0  0  0  0  0  0  0  0
   -4.3003   -0.6246    2.0261 S   0  0  0  0  0  0  0  0  0  0  0  0
   -3.3424   -1.6353    1.0089 C   0  0  0  0  0  0  0  0  0  0  0  0
   -2.0595   -1.6046    0.4583 C   0  0  0  0  0  0  0  0  0  0  0  0
   -0.9793   -0.7592    0.4672 N   0  0  0  0  0  0  0  0  0  0  0  0
    0.0198   -1.3517   -0.2875 C   0  0  0  0  0  0  0  0  0  0  0  0
    1.3175   -0.9286   -0.6775 C   0  0  0  0  0  0  0  0  0  0  0  0
    1.9765    0.2809   -0.5943 N   0  0  0  0  0  0  0  0  0  0  0  0
    3.2347    0.1133   -1.1055 C   0  0  0  0  0  0  0  0  0  0  0  0
    4.3558    0.9065   -1.3637 C   0  0  0  0  0  0  0  0  0  0  0  0
    4.8130    2.5535   -1.1326 S   0  0  0  0  0  0  0  0  0  0  0  0
    1.4764    1.6166   -0.3598 C   0  0  0  0  0  0  0  0  0  0  0  0
    1.9570    2.1848    0.9748 C   0  0  0  0  0  0  0  0  0  0  0  0
   -0.8761    0.1929    1.5534 C   0  0  0  0  0  0  0  0  0  0  0  0
   -0.2048   -0.4423    2.7694 C   0  0  0  0  0  0  0  0  0  0  0  0
   -6.8859   -1.6382    2.5311 C   0  0  0  0  0  0  0  0  0  0  0  0
   -7.3959   -0.6316    3.3184 C   0  0  0  0  0  0  0  0  0  0  0  0
   -6.7091    0.6092    3.6759 C   0  0  0  0  0  0  0  0  0  0  0  0
   -5.5657    0.9377    3.4089 O   0  0  0  0  0  0  0  0  0  0  0  0
   -7.6895    1.4119    4.4344 C   0  0  0  0  0  0  0  0  0  0  0  0
   -7.5398    2.6729    4.9723 C   0  0  0  0  0  0  0  0  0  0  0  0
   -8.6200    3.2343    5.6422 C   0  0  0  0  0  0  0  0  0  0  0  0
   -8.4763    4.8030    6.3261 Cl  0  0  0  0  0  0  0  0  0  0  0  0
   -9.8207    2.5271    5.7589 C   0  0  0  0  0  0  0  0  0  0  0  0
  -11.1504    3.2339    6.5849 Cl  0  0  0  0  0  0  0  0  0  0  0  0
   -9.9648    1.2537    5.2170 C   0  0  0  0  0  0  0  0  0  0  0  0
   -8.8903    0.6904    4.5499 C   0  0  0  0  0  0  0  0  0  0  0  0
   -8.7252   -0.6061    3.8915 C   0  0  0  0  0  0  0  0  0  0  0  0
   -9.6605   -1.6091    3.8790 C   0  0  0  0  0  0  0  0  0  0  0  0
   -9.4906   -2.8949    3.3239 C   0  0  0  0  0  0  0  0  0  0  0  0
   -9.4365   -3.9701    2.9227 N   0  0  0  0  0  0  0  0  0  0  0  0
  -10.9396   -1.4999    4.4646 C   0  0  0  0  0  0  0  0  0  0  0  0
  -11.9946   -1.4748    4.9165 N   0  0  0  0  0  0  0  0  0  0  0  0
    8.2556    2.7533   -2.5917 H   0  0  0  0  0  0  0  0  0  0  0  0
    5.5201    8.1649   -0.2567 H   0  0  0  0  0  0  0  0  0  0  0  0
    6.6570    0.0976   -4.7568 H   0  0  0  0  0  0  0  0  0  0  0  0
    8.6005   -0.8104   -5.9712 H   0  0  0  0  0  0  0  0  0  0  0  0
   10.7619   -1.0741   -4.7973 H   0  0  0  0  0  0  0  0  0  0  0  0
   10.9475   -0.4704   -2.4237 H   0  0  0  0  0  0  0  0  0  0  0  0
   10.0930    0.6359   -0.5206 H   0  0  0  0  0  0  0  0  0  0  0  0
    8.4671    1.3219   -0.4789 H   0  0  0  0  0  0  0  0  0  0  0  0
    8.6537   -0.5809    1.1021 H   0  0  0  0  0  0  0  0  0  0  0  0
    7.5061   -0.9643   -0.1855 H   0  0  0  0  0  0  0  0  0  0  0  0
    9.1293   -1.6500   -0.2223 H   0  0  0  0  0  0  0  0  0  0  0  0
   -6.6248   -5.4305    3.8966 H   0  0  0  0  0  0  0  0  0  0  0  0
   -5.7757   -3.9254    3.5354 H   0  0  0  0  0  0  0  0  0  0  0  0
   -4.1642   -5.7131    4.1399 H   0  0  0  0  0  0  0  0  0  0  0  0
   -4.7749   -6.7244    2.8257 H   0  0  0  0  0  0  0  0  0  0  0  0
   -3.9310   -5.2216    2.4586 H   0  0  0  0  0  0  0  0  0  0  0  0
   -7.7446   -6.6886    2.2198 H   0  0  0  0  0  0  0  0  0  0  0  0
   -8.6950   -6.8260   -0.0420 H   0  0  0  0  0  0  0  0  0  0  0  0
   -8.0446   -5.1648   -1.7554 H   0  0  0  0  0  0  0  0  0  0  0  0
   -6.4702   -3.3610   -1.1686 H   0  0  0  0  0  0  0  0  0  0  0  0
    1.8598    2.2550   -1.1633 H   0  0  0  0  0  0  0  0  0  0  0  0
    0.3888    1.6057   -0.4428 H   0  0  0  0  0  0  0  0  0  0  0  0
    1.4711    3.1375    1.1653 H   0  0  0  0  0  0  0  0  0  0  0  0
    1.7461    1.5070    1.7977 H   0  0  0  0  0  0  0  0  0  0  0  0
    3.0296    2.3540    0.9386 H   0  0  0  0  0  0  0  0  0  0  0  0
   -0.3338    1.0815    1.2500 H   0  0  0  0  0  0  0  0  0  0  0  0
   -1.8962    0.4897    1.8095 H   0  0  0  0  0  0  0  0  0  0  0  0
   -0.1518    0.2788    3.5801 H   0  0  0  0  0  0  0  0  0  0  0  0
    0.8024   -0.7730    2.5224 H   0  0  0  0  0  0  0  0  0  0  0  0
   -0.7758   -1.3031    3.1090 H   0  0  0  0  0  0  0  0  0  0  0  0
   -7.5473   -2.4697    2.3153 H   0  0  0  0  0  0  0  0  0  0  0  0
   -6.6082    3.2072    4.8741 H   0  0  0  0  0  0  0  0  0  0  0  0
  -10.9062    0.7414    5.3272 H   0  0  0  0  0  0  0  0  0  0  0  0
  1  2  2  0  0  0  0
  2  3  1  0  0  0  0
  3  4  2  0  0  0  0
  3  5  1  0  0  0  0
  5  6  1  0  0  0  0
  6  7  2  0  0  0  0
  7  8  1  0  0  0  0
  7  9  1  0  0  0  0
  9 10  1  0  0  0  0
 10 11  1  0  0  0  0
 11 12  2  0  0  0  0
 12 13  1  0  0  0  0
 13 14  3  0  0  0  0
 12 15  1  0  0  0  0
 15 16  3  0  0  0  0
  1 17  1  0  0  0  0
 17 18  2  0  0  0  0
 18 19  1  0  0  0  0
 19 20  2  0  0  0  0
 20 21  1  0  0  0  0
 21 22  2  0  0  0  0
 22 23  1  0  0  0  0
 23 24  2  0  0  0  0
 24 25  1  0  0  0  0
 25 26  1  0  0  0  0
 18 27  1  0  0  0  0
 27 28  1  0  0  0  0
 28 29  1  0  0  0  0
 29 30  1  0  0  0  0
 30 31  1  0  0  0  0
 31 32  1  0  0  0  0
 32 33  2  0  0  0  0
 33 34  1  0  0  0  0
 34 35  1  0  0  0  0
 32 36  1  0  0  0  0
 36 37  1  0  0  0  0
 37 38  1  0  0  0  0
 38 39  1  0  0  0  0
 39 40  1  0  0  0  0
 40 41  1  0  0  0  0
 41 42  2  0  0  0  0
 42 43  1  0  0  0  0
 43 44  1  0  0  0  0
 42 45  1  0  0  0  0
 45 46  2  0  0  0  0
 46 47  1  0  0  0  0
 47 48  2  0  0  0  0
 40 49  2  0  0  0  0
 49 50  1  0  0  0  0
 50 51  1  0  0  0  0
 51 52  1  0  0  0  0
 52 53  1  0  0  0  0
 53 54  1  0  0  0  0
 54 55  1  0  0  0  0
 55 56  1  0  0  0  0
 56 57  1  0  0  0  0
 57 58  1  0  0  0  0
 58 59  1  0  0  0  0
 56 60  1  0  0  0  0
 60 61  1  0  0  0  0
 53 62  1  0  0  0  0
 62 63  1  0  0  0  0
 49 64  1  0  0  0  0
 64 65  2  0  0  0  0
 65 66  1  0  0  0  0
 66 67  2  0  0  0  0
 66 68  1  0  0  0  0
 68 69  2  0  0  0  0
 69 70  1  0  0  0  0
 70 71  1  0  0  0  0
 70 72  2  0  0  0  0
 72 73  1  0  0  0  0
 72 74  1  0  0  0  0
 74 75  2  0  0  0  0
 75 76  1  0  0  0  0
 76 77  2  0  0  0  0
 77 78  1  0  0  0  0
 78 79  3  0  0  0  0
 77 80  1  0  0  0  0
 80 81  3  0  0  0  0
 11  2  1  0  0  0  0
 59 17  1  0  0  0  0
 76 65  1  0  0  0  0
 10  5  2  0  0  0  0
 24 19  1  0  0  0  0
 58 27  2  0  0  0  0
 75 68  1  0  0  0  0
 57 29  2  0  0  0  0
 55 30  2  0  0  0  0
 35 31  2  0  0  0  0
 54 36  2  0  0  0  0
 52 37  2  0  0  0  0
 51 39  2  0  0  0  0
 48 41  1  0  0  0  0
  1 82  1  0  0  0  0
  6 83  1  0  0  0  0
 20 84  1  0  0  0  0
 21 85  1  0  0  0  0
 22 86  1  0  0  0  0
 23 87  1  0  0  0  0
 25 88  1  0  0  0  0
 25 89  1  0  0  0  0
 26 90  1  0  0  0  0
 26 91  1  0  0  0  0
 26 92  1  0  0  0  0
 43 93  1  0  0  0  0
 43 94  1  0  0  0  0
 44 95  1  0  0  0  0
 44 96  1  0  0  0  0
 44 97  1  0  0  0  0
 45 98  1  0  0  0  0
 46 99  1  0  0  0  0
 47100  1  0  0  0  0
 48101  1  0  0  0  0
 60102  1  0  0  0  0
 60103  1  0  0  0  0
 61104  1  0  0  0  0
 61105  1  0  0  0  0
 61106  1  0  0  0  0
 62107  1  0  0  0  0
 62108  1  0  0  0  0
 63109  1  0  0  0  0
 63110  1  0  0  0  0
 63111  1  0  0  0  0
 64112  1  0  0  0  0
 69113  1  0  0  0  0
 74114  1  0  0  0  0
M  END
