
  xtb     02112202513D
 energy: -194.181491463463 gnorm: 0.000681939190 xtb: 6.4.1 (unknown)
107121  0     0  0            999 V2000
   -0.8536    8.5625   -5.7736 C   0  0  0  0  0  0  0  0  0  0  0  0
   -1.1973    9.5864   -4.9265 C   0  0  0  0  0  0  0  0  0  0  0  0
   -1.3243    9.5198   -3.4615 C   0  0  0  0  0  0  0  0  0  0  0  0
   -1.1468    8.5550   -2.7407 O   0  0  0  0  0  0  0  0  0  0  0  0
   -1.7145   10.8763   -3.0398 C   0  0  0  0  0  0  0  0  0  0  0  0
   -2.0065   11.5482   -1.8439 C   0  0  0  0  0  0  0  0  0  0  0  0
   -2.3223   12.8564   -2.0923 C   0  0  0  0  0  0  0  0  0  0  0  0
   -2.7423   14.0319   -0.9332 Cl  0  0  0  0  0  0  0  0  0  0  0  0
   -2.2684   13.2879   -3.7837 S   0  0  0  0  0  0  0  0  0  0  0  0
   -1.8121   11.6784   -4.1649 C   0  0  0  0  0  0  0  0  0  0  0  0
   -1.5027   10.9399   -5.3602 C   0  0  0  0  0  0  0  0  0  0  0  0
   -1.5196   11.4713   -6.6270 C   0  0  0  0  0  0  0  0  0  0  0  0
   -1.2226   10.7835   -7.8173 C   0  0  0  0  0  0  0  0  0  0  0  0
   -0.9892   10.2774   -8.8225 N   0  0  0  0  0  0  0  0  0  0  0  0
   -1.8569   12.8256   -6.8291 C   0  0  0  0  0  0  0  0  0  0  0  0
   -2.1307   13.9267   -7.0022 N   0  0  0  0  0  0  0  0  0  0  0  0
   -0.5619    7.2190   -5.5208 C   0  0  0  0  0  0  0  0  0  0  0  0
   -0.2269    6.2997   -6.5292 C   0  0  0  0  0  0  0  0  0  0  0  0
   -0.0554    6.6171   -7.9787 C   0  0  0  0  0  0  0  0  0  0  0  0
    1.3377    7.1901   -8.2492 C   0  0  0  0  0  0  0  0  0  0  0  0
   -0.0085    5.0293   -6.0141 C   0  0  0  0  0  0  0  0  0  0  0  0
    0.4695    3.3799   -6.8258 Se  0  0  0  0  0  2  0  0  0  0  0  0
    0.3784    2.7061   -5.0951 C   0  0  0  0  0  0  0  0  0  0  0  0
    0.5866    1.4958   -4.4256 C   0  0  0  0  0  0  0  0  0  0  0  0
    1.0584    0.2609   -4.9185 C   0  0  0  0  0  0  0  0  0  0  0  0
    1.3043   -0.7990   -3.9912 C   0  0  0  0  0  0  0  0  0  0  0  0
    1.7954   -1.8820   -4.5725 N   0  0  0  0  0  0  0  0  0  0  0  0
    1.9317   -1.5880   -6.1612 S   0  0  0  0  0  0  0  0  0  0  0  0
    1.3710   -0.0661   -6.1623 N   0  0  0  0  0  0  0  0  0  0  0  0
    0.9567   -0.6065   -2.6378 C   0  0  0  0  0  0  0  0  0  0  0  0
    0.9610   -1.5144   -1.5735 C   0  0  0  0  0  0  0  0  0  0  0  0
    1.4279   -3.2804   -1.2425 Se  0  0  0  0  0  2  0  0  0  0  0  0
    0.7238   -2.9757    0.4903 C   0  0  0  0  0  0  0  0  0  0  0  0
    0.5126   -3.8059    1.6022 C   0  0  0  0  0  0  0  0  0  0  0  0
    0.9988   -5.2174    1.6958 C   0  0  0  0  0  0  0  0  0  0  0  0
    2.4851   -5.3431    1.3658 C   0  0  0  0  0  0  0  0  0  0  0  0
   -0.1245   -3.1243    2.6306 C   0  0  0  0  0  0  0  0  0  0  0  0
   -0.3976   -1.4343    2.2349 S   0  0  0  0  0  0  0  0  0  0  0  0
    0.2484   -1.6677    0.6563 C   0  0  0  0  0  0  0  0  0  0  0  0
    0.3815   -0.8606   -0.4816 C   0  0  0  0  0  0  0  0  0  0  0  0
    0.0364    0.4166   -0.8368 N   0  0  0  0  0  0  0  0  0  0  0  0
    0.4004    0.6125   -2.1555 C   0  0  0  0  0  0  0  0  0  0  0  0
    0.3218    1.7207   -3.0438 C   0  0  0  0  0  0  0  0  0  0  0  0
   -0.0087    3.0558   -2.8848 N   0  0  0  0  0  0  0  0  0  0  0  0
    0.0327    3.6510   -4.1214 C   0  0  0  0  0  0  0  0  0  0  0  0
   -0.1754    4.9420   -4.6201 C   0  0  0  0  0  0  0  0  0  0  0  0
   -0.5947    6.4637   -3.9286 S   0  0  0  0  0  0  0  0  0  0  0  0
    0.1023    3.9076   -1.7204 C   0  0  0  0  0  0  0  0  0  0  0  0
    1.5644    4.2422   -1.4313 C   0  0  0  0  0  0  0  0  0  0  0  0
   -0.8348    1.1871    0.0203 C   0  0  0  0  0  0  0  0  0  0  0  0
   -0.0669    1.8869    1.1412 C   0  0  0  0  0  0  0  0  0  0  0  0
   -0.5435   -3.5418    3.9166 C   0  0  0  0  0  0  0  0  0  0  0  0
   -0.9958   -4.7533    4.3411 C   0  0  0  0  0  0  0  0  0  0  0  0
   -1.0132   -5.0555    5.7982 C   0  0  0  0  0  0  0  0  0  0  0  0
   -0.8325   -4.2684    6.7003 O   0  0  0  0  0  0  0  0  0  0  0  0
   -1.2443   -6.5089    5.8951 C   0  0  0  0  0  0  0  0  0  0  0  0
   -1.2383   -7.2876    7.0509 C   0  0  0  0  0  0  0  0  0  0  0  0
   -1.4665   -8.6240    6.8268 C   0  0  0  0  0  0  0  0  0  0  0  0
   -1.6835   -9.1529    5.5471 C   0  0  0  0  0  0  0  0  0  0  0  0
   -1.7004   -8.3969    4.3991 C   0  0  0  0  0  0  0  0  0  0  0  0
   -1.4743   -7.0332    4.6057 C   0  0  0  0  0  0  0  0  0  0  0  0
   -1.4615   -5.9316    3.6449 C   0  0  0  0  0  0  0  0  0  0  0  0
   -2.0185   -5.9638    2.3913 C   0  0  0  0  0  0  0  0  0  0  0  0
   -2.5252   -7.1264    1.7774 C   0  0  0  0  0  0  0  0  0  0  0  0
   -2.9311   -8.0436    1.2183 N   0  0  0  0  0  0  0  0  0  0  0  0
   -2.2396   -4.8183    1.6017 C   0  0  0  0  0  0  0  0  0  0  0  0
   -2.4903   -3.9167    0.9362 N   0  0  0  0  0  0  0  0  0  0  0  0
   -1.8326  -10.5612    6.0668 C   0  0  0  0  0  0  0  0  0  0  0  0
   -0.6242  -11.5018    5.8760 C   0  0  0  0  0  0  0  0  0  0  0  0
   -0.8642  -12.6073    6.8789 C   0  0  0  0  0  0  0  0  0  0  0  0
   -0.6574  -12.1056    8.0897 C   0  0  0  0  0  0  0  0  0  0  0  0
   -0.2748  -10.6523    7.9258 C   0  0  0  0  0  0  0  0  0  0  0  0
    0.4879  -10.7288    6.5968 C   0  0  0  0  0  0  0  0  0  0  0  0
   -1.5910   -9.9715    7.4934 C   0  0  0  0  0  0  0  0  0  0  0  0
   -0.8013    8.8221   -6.8227 H   0  0  0  0  0  0  0  0  0  0  0  0
   -1.9878   11.1059   -0.8659 H   0  0  0  0  0  0  0  0  0  0  0  0
   -0.8128    7.3232   -8.3220 H   0  0  0  0  0  0  0  0  0  0  0  0
   -0.1732    5.6863   -8.5427 H   0  0  0  0  0  0  0  0  0  0  0  0
    1.4871    8.1158   -7.6985 H   0  0  0  0  0  0  0  0  0  0  0  0
    2.1024    6.4774   -7.9469 H   0  0  0  0  0  0  0  0  0  0  0  0
    1.4519    7.3979   -9.3092 H   0  0  0  0  0  0  0  0  0  0  0  0
    0.4233   -5.8376    1.0000 H   0  0  0  0  0  0  0  0  0  0  0  0
    0.8310   -5.5932    2.7063 H   0  0  0  0  0  0  0  0  0  0  0  0
    3.0728   -4.6956    2.0124 H   0  0  0  0  0  0  0  0  0  0  0  0
    2.8078   -6.3702    1.5164 H   0  0  0  0  0  0  0  0  0  0  0  0
    2.6824   -5.0726    0.3292 H   0  0  0  0  0  0  0  0  0  0  0  0
   -0.4465    4.8263   -1.9420 H   0  0  0  0  0  0  0  0  0  0  0  0
   -0.3529    3.4456   -0.8522 H   0  0  0  0  0  0  0  0  0  0  0  0
    1.6293    4.8931   -0.5640 H   0  0  0  0  0  0  0  0  0  0  0  0
    2.1348    3.3351   -1.2387 H   0  0  0  0  0  0  0  0  0  0  0  0
    2.0092    4.7544   -2.2811 H   0  0  0  0  0  0  0  0  0  0  0  0
   -1.4053    1.8863   -0.5929 H   0  0  0  0  0  0  0  0  0  0  0  0
   -1.5517    0.4911    0.4694 H   0  0  0  0  0  0  0  0  0  0  0  0
   -0.7387    2.5300    1.7029 H   0  0  0  0  0  0  0  0  0  0  0  0
    0.7532    2.4843    0.7519 H   0  0  0  0  0  0  0  0  0  0  0  0
    0.3473    1.1484    1.8224 H   0  0  0  0  0  0  0  0  0  0  0  0
   -0.4759   -2.7884    4.6974 H   0  0  0  0  0  0  0  0  0  0  0  0
   -1.0712   -6.8412    8.0185 H   0  0  0  0  0  0  0  0  0  0  0  0
   -1.8664   -8.8144    3.4197 H   0  0  0  0  0  0  0  0  0  0  0  0
   -2.7853  -11.0434    5.8566 H   0  0  0  0  0  0  0  0  0  0  0  0
   -0.4406  -11.8046    4.8487 H   0  0  0  0  0  0  0  0  0  0  0  0
   -1.2027  -13.5923    6.6163 H   0  0  0  0  0  0  0  0  0  0  0  0
   -0.7887  -12.5877    9.0407 H   0  0  0  0  0  0  0  0  0  0  0  0
    0.2280  -10.1806    8.7658 H   0  0  0  0  0  0  0  0  0  0  0  0
    1.4047  -11.3099    6.6816 H   0  0  0  0  0  0  0  0  0  0  0  0
    0.7112   -9.7585    6.1568 H   0  0  0  0  0  0  0  0  0  0  0  0
   -2.3814  -10.0634    8.2358 H   0  0  0  0  0  0  0  0  0  0  0  0
  1  2  2  0  0  0  0
  2  3  1  0  0  0  0
  3  4  2  0  0  0  0
  3  5  1  0  0  0  0
  5  6  1  0  0  0  0
  6  7  2  0  0  0  0
  7  8  1  0  0  0  0
  7  9  1  0  0  0  0
  9 10  1  0  0  0  0
 10 11  1  0  0  0  0
 11 12  2  0  0  0  0
 12 13  1  0  0  0  0
 13 14  3  0  0  0  0
 12 15  1  0  0  0  0
 15 16  3  0  0  0  0
  1 17  1  0  0  0  0
 17 18  2  0  0  0  0
 18 19  1  0  0  0  0
 19 20  1  0  0  0  0
 18 21  1  0  0  0  0
 21 22  1  0  0  0  0
 22 23  1  0  0  0  0
 23 24  1  0  0  0  0
 24 25  1  0  0  0  0
 25 26  1  0  0  0  0
 26 27  2  0  0  0  0
 27 28  1  0  0  0  0
 28 29  1  0  0  0  0
 26 30  1  0  0  0  0
 30 31  1  0  0  0  0
 31 32  1  0  0  0  0
 32 33  1  0  0  0  0
 33 34  1  0  0  0  0
 34 35  1  0  0  0  0
 35 36  1  0  0  0  0
 34 37  2  0  0  0  0
 37 38  1  0  0  0  0
 38 39  1  0  0  0  0
 39 40  1  0  0  0  0
 40 41  1  0  0  0  0
 41 42  1  0  0  0  0
 42 43  1  0  0  0  0
 43 44  1  0  0  0  0
 44 45  1  0  0  0  0
 45 46  1  0  0  0  0
 46 47  1  0  0  0  0
 44 48  1  0  0  0  0
 48 49  1  0  0  0  0
 41 50  1  0  0  0  0
 50 51  1  0  0  0  0
 37 52  1  0  0  0  0
 52 53  2  0  0  0  0
 53 54  1  0  0  0  0
 54 55  2  0  0  0  0
 54 56  1  0  0  0  0
 56 57  2  0  0  0  0
 57 58  1  0  0  0  0
 58 59  2  0  0  0  0
 59 60  1  0  0  0  0
 60 61  2  0  0  0  0
 61 62  1  0  0  0  0
 62 63  2  0  0  0  0
 63 64  1  0  0  0  0
 64 65  3  0  0  0  0
 63 66  1  0  0  0  0
 66 67  3  0  0  0  0
 59 68  1  0  0  0  0
 68 69  1  0  0  0  0
 69 70  1  0  0  0  0
 70 71  2  0  0  0  0
 71 72  1  0  0  0  0
 72 73  1  0  0  0  0
 72 74  1  0  0  0  0
 11  2  1  0  0  0  0
 47 17  1  0  0  0  0
 62 53  1  0  0  0  0
 74 68  1  0  0  0  0
 10  5  2  0  0  0  0
 46 21  2  0  0  0  0
 61 56  1  0  0  0  0
 73 69  1  0  0  0  0
 45 23  2  0  0  0  0
 74 58  1  0  0  0  0
 43 24  2  0  0  0  0
 29 25  2  0  0  0  0
 42 30  2  0  0  0  0
 40 31  2  0  0  0  0
 39 33  2  0  0  0  0
  1 75  1  0  0  0  0
  6 76  1  0  0  0  0
 19 77  1  0  0  0  0
 19 78  1  0  0  0  0
 20 79  1  0  0  0  0
 20 80  1  0  0  0  0
 20 81  1  0  0  0  0
 35 82  1  0  0  0  0
 35 83  1  0  0  0  0
 36 84  1  0  0  0  0
 36 85  1  0  0  0  0
 36 86  1  0  0  0  0
 48 87  1  0  0  0  0
 48 88  1  0  0  0  0
 49 89  1  0  0  0  0
 49 90  1  0  0  0  0
 49 91  1  0  0  0  0
 50 92  1  0  0  0  0
 50 93  1  0  0  0  0
 51 94  1  0  0  0  0
 51 95  1  0  0  0  0
 51 96  1  0  0  0  0
 52 97  1  0  0  0  0
 57 98  1  0  0  0  0
 60 99  1  0  0  0  0
 68100  1  0  0  0  0
 69101  1  0  0  0  0
 70102  1  0  0  0  0
 71103  1  0  0  0  0
 72104  1  0  0  0  0
 73105  1  0  0  0  0
 73106  1  0  0  0  0
 74107  1  0  0  0  0
M  END
