95

C         -9.34590       -2.31640       -2.10080
C         -9.36470       -3.67800       -1.92320
C         -8.27440       -4.48690       -1.37530
O         -7.17880       -4.09230       -0.99940
C         -8.76400       -5.87120       -1.36780
C         -8.29770       -7.14040       -0.99390
C         -9.25070       -8.09270       -1.23420
Cl        -9.10970       -9.76220       -0.93050
S        -10.72730       -7.45750       -1.91930
C        -10.05230       -5.88180       -1.88130
C        -10.47950       -4.55620       -2.24500
C        -11.70400       -4.25510       -2.78610
C        -12.64970       -5.27400       -3.02710
N        -13.42270       -6.09820       -3.22610
C        -12.15320       -2.97280       -3.15260
N        -12.57990       -1.95520       -3.47170
C         -8.34250       -1.37530       -1.83720
C         -8.54500       -0.01670       -2.09350
C         -7.47470        0.80450       -1.79610
S         -7.29660        2.54300       -1.95060
C         -5.69100        2.40110       -1.32900
C         -4.60710        3.22050       -0.99380
C         -4.48300        4.62770       -0.99420
C         -3.28110        5.21480       -0.48250
N         -3.31940        6.53780       -0.49380
S         -4.74530        7.00420       -1.10130
N         -5.36940        5.53510       -1.37180
C         -2.22120        4.36640       -0.09240
C         -0.92030        4.66740        0.32730
C         -0.24090        3.45050        0.46080
N         -1.08590        2.41150        0.17300
C         -0.53220        1.09880       -0.06720
C         -0.54730        0.74800       -1.55260
C         -2.31850        2.94380       -0.16630
C         -3.56470        2.36460       -0.52500
N         -4.03440        1.06240       -0.55060
C         -5.31840        1.08500       -1.02830
C         -6.33120        0.15610       -1.28190
Se        -6.60470       -1.68560       -1.13390
C         -3.55430       -0.12130        0.12470
C         -3.48230        0.08660        1.63510
C          1.09820        3.60580        0.83240
C          1.40640        4.97300        0.99170
S          0.05680        6.04920        0.67580
C          2.70920        5.25450        1.35690
C          3.53970        4.14140        1.50640
Se         2.59300        2.53180        1.15930
C          4.88730        4.29370        1.86120
C          5.87730        3.35770        2.03470
C          5.71410        1.91840        1.87450
O          4.68230        1.31990        1.58600
C          7.02600        1.30890        2.12450
C          7.35180       -0.04460        2.07430
C          8.67140       -0.31180        2.34970
C          9.59720        0.69300        2.65960
C          9.28710        2.03190        2.71690
C          7.95190        2.32800        2.43270
C          7.26040        3.61710        2.38710
C          7.83910        4.83460        2.63490
C          9.19770        5.02240        2.96720
N         10.28830        5.25630        3.23930
C          7.18270        6.08300        2.59990
N          6.73090        7.13930        2.59610
C         10.73140       -0.28830        2.81430
C         11.75640       -0.39300        1.65790
C         11.03100        0.02460        0.40280
C         10.15490       -0.92590        0.10630
C         10.27190       -2.00370        1.15560
C         11.77500       -1.91790        1.46510
C          9.70050       -1.40810        2.46640
H        -10.24700       -1.87460       -2.51250
H         -7.33000       -7.34520       -0.57650
H         -9.47490        0.35060       -2.49420
H          0.50670        1.12960        0.28240
H         -1.04560        0.34750        0.53250
H         -1.55690        0.78040       -1.95630
H         -0.13830       -0.24720       -1.70240
H          0.06210        1.45840       -2.10630
H         -4.27480       -0.91890       -0.09300
H         -2.59660       -0.43930       -0.28710
H         -2.83290        0.92170        1.88840
H         -3.10570       -0.81230        2.11540
H         -4.47440        0.29760        2.02730
H          3.07270        6.25640        1.51280
H          5.16880        5.33020        2.00900
H          6.60570       -0.78610        1.83520
H         10.01330        2.78940        2.95900
H         11.20580       -0.31770        3.79300
H         12.70540        0.09980        1.85030
H         11.18530        0.96510       -0.09280
H          9.43020       -0.93810       -0.68670
H          9.87030       -2.97810        0.88990
H         12.06570       -2.46510        2.36080
H         12.39590       -2.22860        0.62640
H          9.50320       -2.17080        3.21710
