
  xtb     02112201243D
 energy: -171.754097678861 gnorm: 0.000992788425 xtb: 6.4.1 (unknown)
 82 93  0     0  0            999 V2000
    4.5998   -7.0436   -1.3078 C   0  0  0  0  0  0  0  0  0  0  0  0
    5.8970   -6.8938   -0.8843 C   0  0  0  0  0  0  0  0  0  0  0  0
    6.4771   -5.6796   -0.3072 C   0  0  0  0  0  0  0  0  0  0  0  0
    5.9120   -4.6112   -0.1139 O   0  0  0  0  0  0  0  0  0  0  0  0
    7.8770   -6.0033   -0.0086 C   0  0  0  0  0  0  0  0  0  0  0  0
    9.0018   -5.3645    0.5340 C   0  0  0  0  0  0  0  0  0  0  0  0
   10.0732   -6.2158    0.5582 C   0  0  0  0  0  0  0  0  0  0  0  0
   11.6352   -5.8576    1.1332 Cl  0  0  0  0  0  0  0  0  0  0  0  0
    9.7266   -7.8057   -0.0787 S   0  0  0  0  0  0  0  0  0  0  0  0
    8.1115   -7.3181   -0.3838 C   0  0  0  0  0  0  0  0  0  0  0  0
    6.9260   -7.9228   -0.9320 C   0  0  0  0  0  0  0  0  0  0  0  0
    6.8514   -9.2157   -1.3850 C   0  0  0  0  0  0  0  0  0  0  0  0
    5.7110   -9.8374   -1.9269 C   0  0  0  0  0  0  0  0  0  0  0  0
    4.8150  -10.4009   -2.3731 N   0  0  0  0  0  0  0  0  0  0  0  0
    7.9833  -10.0568   -1.3356 C   0  0  0  0  0  0  0  0  0  0  0  0
    8.8981  -10.7478   -1.2907 N   0  0  0  0  0  0  0  0  0  0  0  0
    3.5272   -6.1420   -1.2995 C   0  0  0  0  0  0  0  0  0  0  0  0
    2.2677   -6.5164   -1.7752 C   0  0  0  0  0  0  0  0  0  0  0  0
    1.2928   -5.5407   -1.6890 C   0  0  0  0  0  0  0  0  0  0  0  0
   -0.4045   -5.5757   -2.1357 S   0  0  0  0  0  0  0  0  0  0  0  0
   -0.5545   -3.9483   -1.5728 C   0  0  0  0  0  0  0  0  0  0  0  0
   -1.5370   -2.9678   -1.3974 C   0  0  0  0  0  0  0  0  0  0  0  0
   -2.9273   -3.0220   -1.6385 C   0  0  0  0  0  0  0  0  0  0  0  0
   -3.7358   -1.9046   -1.2598 C   0  0  0  0  0  0  0  0  0  0  0  0
   -5.0221   -2.1032   -1.5021 N   0  0  0  0  0  0  0  0  0  0  0  0
   -5.1972   -3.5726   -2.1573 S   0  0  0  0  0  0  0  0  0  0  0  0
   -3.6400   -4.0121   -2.1526 N   0  0  0  0  0  0  0  0  0  0  0  0
   -3.1052   -0.7600   -0.7249 C   0  0  0  0  0  0  0  0  0  0  0  0
   -3.6502    0.4691   -0.3366 C   0  0  0  0  0  0  0  0  0  0  0  0
   -2.5807    1.2856    0.0472 C   0  0  0  0  0  0  0  0  0  0  0  0
   -1.4033    0.6019   -0.0886 N   0  0  0  0  0  0  0  0  0  0  0  0
   -0.1677    1.3188    0.1153 C   0  0  0  0  0  0  0  0  0  0  0  0
    0.1846    1.4340    1.5987 C   0  0  0  0  0  0  0  0  0  0  0  0
   -1.6906   -0.6747   -0.5407 C   0  0  0  0  0  0  0  0  0  0  0  0
   -0.8997   -1.8247   -0.8183 C   0  0  0  0  0  0  0  0  0  0  0  0
    0.4324   -2.1416   -0.6278 N   0  0  0  0  0  0  0  0  0  0  0  0
    0.6430   -3.4129   -1.0863 C   0  0  0  0  0  0  0  0  0  0  0  0
    1.7120   -4.3105   -1.1393 C   0  0  0  0  0  0  0  0  0  0  0  0
    3.5181   -4.3498   -0.6732 Se  0  0  0  0  0  2  0  0  0  0  0  0
    1.5362   -1.4577    0.0006 C   0  0  0  0  0  0  0  0  0  0  0  0
    2.4781   -0.8361   -1.0304 C   0  0  0  0  0  0  0  0  0  0  0  0
   -2.9942    2.5629    0.4371 C   0  0  0  0  0  0  0  0  0  0  0  0
   -4.3944    2.6925    0.3366 C   0  0  0  0  0  0  0  0  0  0  0  0
   -5.1913    1.2403   -0.2237 S   0  0  0  0  0  0  0  0  0  0  0  0
   -4.9167    3.9346    0.6728 C   0  0  0  0  0  0  0  0  0  0  0  0
   -3.9736    4.8664    1.0720 C   0  0  0  0  0  0  0  0  0  0  0  0
   -2.2234    4.1421    1.0453 Se  0  0  0  0  0  2  0  0  0  0  0  0
   -4.1714    6.1916    1.5034 C   0  0  0  0  0  0  0  0  0  0  0  0
   -5.2356    7.0143    1.2634 C   0  0  0  0  0  0  0  0  0  0  0  0
   -5.4871    8.1650    2.1655 C   0  0  0  0  0  0  0  0  0  0  0  0
   -4.7405    8.6101    3.0058 O   0  0  0  0  0  0  0  0  0  0  0  0
   -6.8652    8.6075    1.8468 C   0  0  0  0  0  0  0  0  0  0  0  0
   -7.6298    9.5665    2.4788 C   0  0  0  0  0  0  0  0  0  0  0  0
   -8.9219    9.7900    2.0167 C   0  0  0  0  0  0  0  0  0  0  0  0
   -9.9289   10.9670    2.7638 Cl  0  0  0  0  0  0  0  0  0  0  0  0
   -9.4030    9.0467    0.9362 C   0  0  0  0  0  0  0  0  0  0  0  0
  -10.6523    9.2584    0.5070 F   0  0  0  0  0  0  0  0  0  0  0  0
   -8.6370    8.0900    0.2877 C   0  0  0  0  0  0  0  0  0  0  0  0
   -7.3510    7.8694    0.7521 C   0  0  0  0  0  0  0  0  0  0  0  0
   -6.2976    6.9694    0.2857 C   0  0  0  0  0  0  0  0  0  0  0  0
   -6.2280    6.4129   -0.9666 C   0  0  0  0  0  0  0  0  0  0  0  0
   -7.2667    6.4809   -1.9164 C   0  0  0  0  0  0  0  0  0  0  0  0
   -8.0938    6.4918   -2.7120 N   0  0  0  0  0  0  0  0  0  0  0  0
   -5.0662    5.7911   -1.4657 C   0  0  0  0  0  0  0  0  0  0  0  0
   -4.1213    5.3159   -1.9126 N   0  0  0  0  0  0  0  0  0  0  0  0
    4.3377   -8.0139   -1.7159 H   0  0  0  0  0  0  0  0  0  0  0  0
    9.0277   -4.3500    0.8842 H   0  0  0  0  0  0  0  0  0  0  0  0
    2.0830   -7.5007   -2.1713 H   0  0  0  0  0  0  0  0  0  0  0  0
    0.6283    0.8524   -0.4583 H   0  0  0  0  0  0  0  0  0  0  0  0
   -0.3129    2.3306   -0.2864 H   0  0  0  0  0  0  0  0  0  0  0  0
    1.1701    1.8767    1.7119 H   0  0  0  0  0  0  0  0  0  0  0  0
    0.1723    0.4633    2.0904 H   0  0  0  0  0  0  0  0  0  0  0  0
   -0.5387    2.0713    2.1058 H   0  0  0  0  0  0  0  0  0  0  0  0
    2.0990   -2.2107    0.5698 H   0  0  0  0  0  0  0  0  0  0  0  0
    1.1640   -0.7241    0.7089 H   0  0  0  0  0  0  0  0  0  0  0  0
    1.9384   -0.2134   -1.7413 H   0  0  0  0  0  0  0  0  0  0  0  0
    3.2307   -0.2346   -0.5290 H   0  0  0  0  0  0  0  0  0  0  0  0
    2.9859   -1.6212   -1.5894 H   0  0  0  0  0  0  0  0  0  0  0  0
   -5.9729    4.1425    0.6709 H   0  0  0  0  0  0  0  0  0  0  0  0
   -3.4200    6.6018    2.1739 H   0  0  0  0  0  0  0  0  0  0  0  0
   -7.2331   10.1268    3.3103 H   0  0  0  0  0  0  0  0  0  0  0  0
   -9.0649    7.5472   -0.5397 H   0  0  0  0  0  0  0  0  0  0  0  0
  1  2  2  0  0  0  0
  2  3  1  0  0  0  0
  3  4  2  0  0  0  0
  3  5  1  0  0  0  0
  5  6  1  0  0  0  0
  6  7  2  0  0  0  0
  7  8  1  0  0  0  0
  7  9  1  0  0  0  0
  9 10  1  0  0  0  0
 10 11  1  0  0  0  0
 11 12  2  0  0  0  0
 12 13  1  0  0  0  0
 13 14  3  0  0  0  0
 12 15  1  0  0  0  0
 15 16  3  0  0  0  0
  1 17  1  0  0  0  0
 17 18  2  0  0  0  0
 18 19  1  0  0  0  0
 19 20  1  0  0  0  0
 20 21  1  0  0  0  0
 21 22  1  0  0  0  0
 22 23  1  0  0  0  0
 23 24  1  0  0  0  0
 24 25  2  0  0  0  0
 25 26  1  0  0  0  0
 26 27  1  0  0  0  0
 24 28  1  0  0  0  0
 28 29  1  0  0  0  0
 29 30  2  0  0  0  0
 30 31  1  0  0  0  0
 31 32  1  0  0  0  0
 32 33  1  0  0  0  0
 31 34  1  0  0  0  0
 34 35  1  0  0  0  0
 35 36  1  0  0  0  0
 36 37  1  0  0  0  0
 37 38  1  0  0  0  0
 38 39  1  0  0  0  0
 36 40  1  0  0  0  0
 40 41  1  0  0  0  0
 30 42  1  0  0  0  0
 42 43  2  0  0  0  0
 43 44  1  0  0  0  0
 43 45  1  0  0  0  0
 45 46  2  0  0  0  0
 46 47  1  0  0  0  0
 46 48  1  0  0  0  0
 48 49  2  0  0  0  0
 49 50  1  0  0  0  0
 50 51  2  0  0  0  0
 50 52  1  0  0  0  0
 52 53  2  0  0  0  0
 53 54  1  0  0  0  0
 54 55  1  0  0  0  0
 54 56  2  0  0  0  0
 56 57  1  0  0  0  0
 56 58  1  0  0  0  0
 58 59  2  0  0  0  0
 59 60  1  0  0  0  0
 60 61  2  0  0  0  0
 61 62  1  0  0  0  0
 62 63  3  0  0  0  0
 61 64  1  0  0  0  0
 64 65  3  0  0  0  0
 11  2  1  0  0  0  0
 39 17  1  0  0  0  0
 47 42  1  0  0  0  0
 60 49  1  0  0  0  0
 10  5  2  0  0  0  0
 38 19  2  0  0  0  0
 59 52  1  0  0  0  0
 37 21  2  0  0  0  0
 35 22  2  0  0  0  0
 27 23  2  0  0  0  0
 34 28  2  0  0  0  0
 44 29  1  0  0  0  0
  1 66  1  0  0  0  0
  6 67  1  0  0  0  0
 18 68  1  0  0  0  0
 32 69  1  0  0  0  0
 32 70  1  0  0  0  0
 33 71  1  0  0  0  0
 33 72  1  0  0  0  0
 33 73  1  0  0  0  0
 40 74  1  0  0  0  0
 40 75  1  0  0  0  0
 41 76  1  0  0  0  0
 41 77  1  0  0  0  0
 41 78  1  0  0  0  0
 45 79  1  0  0  0  0
 48 80  1  0  0  0  0
 53 81  1  0  0  0  0
 58 82  1  0  0  0  0
M  END
