132

C         -4.42030       -7.19850       -1.94840
C         -4.72710       -7.83370       -3.12370
C         -4.21840       -7.57520       -4.49590
O         -3.38910       -6.77010       -4.86510
C         -4.93970       -8.52690       -5.35940
C         -4.98510       -8.84860       -6.72400
C         -5.87800       -9.86050       -6.94940
Cl        -6.25050      -10.56260       -8.45560
S         -6.67400      -10.43590       -5.50440
C         -5.78900       -9.29220       -4.57960
C         -5.69800       -8.92110       -3.19450
C         -6.42080       -9.52340       -2.19420
C         -6.37660       -9.22920       -0.81860
N         -6.40010       -9.05430        0.31670
C         -7.32620      -10.56210       -2.49880
N         -8.06770      -11.40580       -2.73410
C         -3.56400       -6.12440       -1.65670
S         -3.55630       -5.57630        0.02620
C         -2.45320       -4.33880       -0.37280
C         -1.83010       -3.23930        0.26550
C         -1.06250       -2.55720       -0.66390
C         -1.10530       -3.24090       -2.01340
C         -2.09060       -4.35280       -1.72600
C         -2.71060       -5.35520       -2.44470
C         -1.60950       -2.25410       -3.05200
C         -0.75260       -1.65700       -3.96630
C         -1.22860       -0.71540       -4.86010
C         -2.56570       -0.34270       -4.86230
C         -3.08520        0.64570       -5.86530
C         -3.52230       -0.07260       -7.14360
C         -3.41820       -0.94210       -3.94410
C         -2.94720       -1.88070       -3.04630
C          0.21150       -3.88850       -2.40810
C          1.32690       -3.86040       -1.58490
C          2.49550       -4.49480       -1.96940
C          2.57830       -5.17360       -3.17660
C          3.83060       -5.90480       -3.56460
C          3.79810       -7.33700       -3.02680
C          1.45550       -5.20130       -3.99510
C          0.28730       -4.56910       -3.61860
C         -0.47740       -1.35870       -0.19680
C          0.27050       -0.42400       -0.91560
C          0.67790        0.72790       -0.28460
Se         1.59570        2.16210       -1.12010
C          1.46890        3.00910        0.54020
C          1.82230        4.26250        1.09560
C          1.45090        4.29620        2.44040
C          0.84210        2.97460        2.84540
C          1.76010        2.20310        3.78940
C          1.24450        1.27680        4.68560
C          2.08720        0.54660        5.50310
C          3.46370        0.71590        5.44390
C          4.37370       -0.04110        6.36710
C          4.61460        0.75730        7.65000
C          3.97380        1.64160        4.54330
C          3.13730        2.37250        3.72100
C         -0.53220        3.22030        3.43170
C         -0.63970        3.70150        4.73180
C         -1.87870        3.96030        5.28410
C         -3.04240        3.75550        4.55280
C         -4.39010        3.97900        5.17470
C         -4.88090        2.69830        5.85360
C         -2.92800        3.29270        3.24950
C         -1.68940        3.03410        2.68990
C          0.85360        2.24560        1.51880
C          0.39430        0.97960        1.09070
C         -0.33250        0.03280        1.81510
C         -0.76980       -1.10310        1.17550
Se        -1.85520       -2.44710        1.95860
C          1.71650        5.51420        3.04200
C          2.34200        6.40660        2.18000
S          2.53540        5.72390        0.56900
C          2.69780        7.74040        2.47720
C          3.59700        8.54570        1.84850
C          3.48570       10.02840        1.97470
O          2.80170       10.64020        2.76090
C          4.35020       10.55370        0.90200
C          4.68990       11.80390        0.36340
C          5.60150       11.66310       -0.64720
Cl         6.28410       12.91720       -1.57510
S          6.07230       10.00730       -0.94760
C          5.00590        9.49310        0.29280
C          4.67260        8.24220        0.92000
C          5.42100        7.09470        0.82930
C          5.26880        5.97930        1.67410
N          5.21640        5.07430        2.37920
C          6.49510        6.99860       -0.07780
N          7.36340        6.90750       -0.82260
H         -4.94050       -7.56960       -1.07260
H         -4.40430       -8.37170       -7.49080
H         -2.59120       -5.54150       -3.49510
H          0.29220       -1.93230       -3.98990
H         -0.54660       -0.26070       -5.56450
H         -2.30570        1.37060       -6.10850
H         -3.93660        1.18600       -5.44660
H         -4.30390       -0.79600       -6.92240
H         -2.68180       -0.60270       -7.58580
H         -3.90410        0.64140       -7.86960
H         -4.46310       -0.66700       -3.92770
H         -3.62570       -2.32810       -2.33390
H          1.29430       -3.34140       -0.63840
H          3.35630       -4.45850       -1.31710
H          4.70290       -5.38800       -3.15960
H          3.92220       -5.93130       -4.65220
H          4.70200       -7.87080       -3.31080
H          3.72350       -7.33210       -1.94160
H          2.93870       -7.87120       -3.42570
H          1.49600       -5.72420       -4.93970
H         -0.57030       -4.59460       -4.27350
H          0.49220       -0.59790       -1.95730
H          0.17650        1.13400        4.76570
H          1.66530       -0.16740        6.19630
H          5.33020       -0.22530        5.87410
H          3.92730       -1.00480        6.62070
H          3.67300        0.94340        8.16220
H          5.07300        1.71580        7.41760
H          5.27290        0.21030        8.32080
H          5.04080        1.79570        4.47890
H          3.56970        3.08330        3.03290
H          0.25440        3.85870        5.31760
H         -1.94400        4.32790        6.29830
H         -4.32880        4.77830        5.91570
H         -5.10740        4.27720        4.40770
H         -4.18660        2.39330        6.63350
H         -4.95690        1.89100        5.12860
H         -5.85890        2.85610        6.30180
H         -3.81930        3.13370        2.65960
H         -1.63030        2.68300        1.67030
H         -0.57010        0.21250        2.85170
H          1.50740        5.76030        4.06700
H          2.12300        8.21550        3.26680
H          4.29580       12.74600        0.69510
