82

C          4.59980       -7.04360       -1.30780
C          5.89700       -6.89380       -0.88430
C          6.47710       -5.67960       -0.30720
O          5.91200       -4.61120       -0.11390
C          7.87700       -6.00330       -0.00860
C          9.00180       -5.36450        0.53400
C         10.07320       -6.21580        0.55820
Cl        11.63520       -5.85760        1.13320
S          9.72660       -7.80570       -0.07870
C          8.11150       -7.31810       -0.38380
C          6.92600       -7.92280       -0.93200
C          6.85140       -9.21570       -1.38500
C          5.71100       -9.83740       -1.92690
N          4.81500      -10.40090       -2.37310
C          7.98330      -10.05680       -1.33560
N          8.89810      -10.74780       -1.29070
C          3.52720       -6.14200       -1.29950
C          2.26770       -6.51640       -1.77520
C          1.29280       -5.54070       -1.68900
S         -0.40450       -5.57570       -2.13570
C         -0.55450       -3.94830       -1.57280
C         -1.53700       -2.96780       -1.39740
C         -2.92730       -3.02200       -1.63850
C         -3.73580       -1.90460       -1.25980
N         -5.02210       -2.10320       -1.50210
S         -5.19720       -3.57260       -2.15730
N         -3.64000       -4.01210       -2.15260
C         -3.10520       -0.76000       -0.72490
C         -3.65020        0.46910       -0.33660
C         -2.58070        1.28560        0.04720
N         -1.40330        0.60190       -0.08860
C         -0.16770        1.31880        0.11530
C          0.18460        1.43400        1.59870
C         -1.69060       -0.67470       -0.54070
C         -0.89970       -1.82470       -0.81830
N          0.43240       -2.14160       -0.62780
C          0.64300       -3.41290       -1.08630
C          1.71200       -4.31050       -1.13930
Se         3.51810       -4.34980       -0.67320
C          1.53620       -1.45770        0.00060
C          2.47810       -0.83610       -1.03040
C         -2.99420        2.56290        0.43710
C         -4.39440        2.69250        0.33660
S         -5.19130        1.24030       -0.22370
C         -4.91670        3.93460        0.67280
C         -3.97360        4.86640        1.07200
Se        -2.22340        4.14210        1.04530
C         -4.17140        6.19160        1.50340
C         -5.23560        7.01430        1.26340
C         -5.48710        8.16500        2.16550
O         -4.74050        8.61010        3.00580
C         -6.86520        8.60750        1.84680
C         -7.62980        9.56650        2.47880
C         -8.92190        9.79000        2.01670
Cl        -9.92890       10.96700        2.76380
C         -9.40300        9.04670        0.93620
F        -10.65230        9.25840        0.50700
C         -8.63700        8.09000        0.28770
C         -7.35100        7.86940        0.75210
C         -6.29760        6.96940        0.28570
C         -6.22800        6.41290       -0.96660
C         -7.26670        6.48090       -1.91640
N         -8.09380        6.49180       -2.71200
C         -5.06620        5.79110       -1.46570
N         -4.12130        5.31590       -1.91260
H          4.33770       -8.01390       -1.71590
H          9.02770       -4.35000        0.88420
H          2.08300       -7.50070       -2.17130
H          0.62830        0.85240       -0.45830
H         -0.31290        2.33060       -0.28640
H          1.17010        1.87670        1.71190
H          0.17230        0.46330        2.09040
H         -0.53870        2.07130        2.10580
H          2.09900       -2.21070        0.56980
H          1.16400       -0.72410        0.70890
H          1.93840       -0.21340       -1.74130
H          3.23070       -0.23460       -0.52900
H          2.98590       -1.62120       -1.58940
H         -5.97290        4.14250        0.67090
H         -3.42000        6.60180        2.17390
H         -7.23310       10.12680        3.31030
H         -9.06490        7.54720       -0.53970
