151

C         -1.16010       -8.94650       -0.05720
C         -0.34780       -9.89410       -0.60870
C         -0.30980      -11.26510       -0.02330
O         -1.07610      -11.73010        0.78730
C          0.88610      -11.89020       -0.62080
C          1.58500      -13.10220       -0.51760
C          2.64990      -13.12110       -1.37670
Cl         3.76490      -14.39270       -1.57800
S          2.80910      -11.66920       -2.33510
C          1.43060      -11.01640       -1.54990
C          0.64110       -9.81910       -1.66800
C          0.69550       -8.94930       -2.73040
C         -0.27750       -7.97370       -3.00910
N         -1.07800       -7.21430       -3.32670
C          1.70110       -9.04440       -3.71220
N          2.52250       -9.08880       -4.51270
C         -1.05740       -7.54470       -0.15710
S         -2.44130       -6.54060        0.24590
C         -1.52060       -5.13210       -0.04910
C         -1.74070       -3.72000       -0.05680
C         -0.53520       -3.10720       -0.38710
C          0.55790       -4.13410       -0.63380
C         -0.20390       -5.41710       -0.39560
C          0.05860       -6.77310       -0.46620
C          1.70400       -4.08230        0.35740
C          2.78210       -4.95200        0.20370
C          3.82030       -4.95880        1.10680
C          3.81430       -4.09870        2.20800
O          4.88610       -4.20460        3.03640
C          5.02780       -3.31680        4.12710
C          5.49870       -1.92970        3.69940
C          2.73050       -3.24570        2.37720
C          1.68860       -3.24910        1.46370
C          0.99360       -4.06440       -2.09250
C          2.26490       -3.67280       -2.49310
C          2.61690       -3.69080       -3.82640
C          1.70810       -4.10030       -4.80320
O          2.17510       -4.10790       -6.07850
C          1.40990       -4.72100       -7.09860
C          1.37030       -6.24120       -6.97560
C          0.41680       -4.43620       -4.40950
C          0.07260       -4.41000       -3.07200
C         -0.44790       -1.70260       -0.47410
C          0.73290       -1.02310       -0.77610
C          0.79710        0.36440       -0.78530
C          2.02150        1.03610       -1.05680
C          2.11160        2.39170       -1.02100
C          0.95290        3.13670       -0.71670
C          0.77640        4.54490       -0.55260
C         -0.53900        4.83530       -0.20840
C         -1.35070        3.55960       -0.16580
C         -1.88770        3.30340        1.23470
C         -1.02310        3.43220        2.31220
C         -1.43780        3.17760        3.60720
C         -2.74720        2.77640        3.85090
O         -3.26820        2.49580        5.07160
C         -2.44240        2.60500        6.21470
C         -3.27970        2.22700        7.42610
C         -3.61830        2.64000        2.76920
C         -3.19400        2.89770        1.48350
C         -2.42860        3.66400       -1.22840
C         -3.46810        4.57670       -1.05960
C         -4.43980        4.72790       -2.02190
C         -4.40240        3.97470       -3.19850
O         -5.40480        4.22310       -4.08110
C         -5.50570        3.46430       -5.26970
C         -6.08430        2.07250       -5.03160
C         -3.35940        3.07390       -3.37680
C         -2.38480        2.93060       -2.40220
C         -0.27570        2.52800       -0.48240
C         -0.38950        1.12210       -0.49820
C         -1.57980        0.44150       -0.23820
C         -1.63800       -0.94580       -0.20330
C         -2.85030       -1.61900        0.11530
C         -2.91200       -2.97450        0.19360
C         -0.75410        6.18590        0.00890
C          0.40540        6.93860       -0.15910
S          1.77370        5.93370       -0.61140
C          0.51520        8.32730        0.03020
C          1.62930        9.10020       -0.05670
S          3.25210        8.57050       -0.44030
C          3.86400       10.20310       -0.25250
C          5.19330       10.46720       -0.46010
C          5.80830       11.72940       -0.42810
N          6.37100       12.73030       -0.44880
C          6.06550        9.40560       -0.77820
N          6.78020        8.54470       -1.03140
N          2.87750       11.07310        0.08370
C          3.10010       12.45390        0.45940
C          3.85610       12.58210        1.76030
C          3.71890       11.63110        2.76240
C          4.41120       11.76460        3.95320
C          5.23920       12.85420        4.15630
C          5.36890       13.81260        3.16540
C          4.68270       13.67710        1.97270
C          1.60220       10.53210        0.20860
O          0.62900       11.19020        0.50260
H         -1.93460       -9.33070        0.59890
H          1.32460      -13.91040        0.13950
H          1.01910       -7.20470       -0.68010
H          2.81420       -5.62080       -0.64340
H          4.65780       -5.62740        0.98520
H          4.09410       -3.25400        4.69970
H          5.78640       -3.78650        4.75930
H          5.64770       -1.30680        4.57700
H          4.76970       -1.45410        3.04770
H          6.43920       -2.01120        3.16040
H          2.67140       -2.57320        3.21840
H          0.85720       -2.58100        1.63000
H          3.00180       -3.37000       -1.76340
H          3.60850       -3.40300       -4.13850
H          0.39480       -4.30480       -7.12470
H          1.92160       -4.43500       -8.02170
H          0.85890       -6.54840       -6.06640
H          2.38170       -6.63810       -6.94620
H          0.84960       -6.66310       -7.83070
H         -0.33260       -4.73130       -5.12560
H         -0.93260       -4.68700       -2.79330
H          1.62470       -1.58940       -0.99220
H          2.88830        0.43270       -1.28270
H          3.04040        2.90740       -1.21150
H         -0.00000        3.73640        2.14320
H         -0.73100        3.29410        4.41350
H         -2.07220        3.63490        6.31530
H         -1.58070        1.92900        6.12250
H         -3.64600        1.20960        7.32060
H         -4.13270        2.89470        7.51000
H         -2.67910        2.29930        8.32830
H         -4.63180        2.32720        2.96480
H         -3.89490        2.78490        0.66950
H         -3.52150        5.16600       -0.15680
H         -5.24620        5.43200       -1.89150
H         -6.18420        4.04380       -5.90210
H         -4.53350        3.40320       -5.77400
H         -7.06040        2.15590       -4.56050
H         -6.19330        1.55460       -5.98040
H         -5.43810        1.48720       -4.38200
H         -3.27970        2.47710       -4.27150
H         -1.58380        2.22830       -2.57580
H         -2.47680        1.00580       -0.04070
H         -3.72600       -1.01630        0.30610
H         -3.82730       -3.49010        0.44130
H         -1.68760        6.63660        0.29110
H         -0.39470        8.85480        0.29240
H          2.09740       12.88630        0.56980
H          3.62410       12.98010       -0.34260
H          3.06490       10.78110        2.62180
H          4.30090       11.01440        4.72240
H          5.78160       12.95580        5.08420
H          6.01260       14.66550        3.31760
H          4.79730       14.41790        1.19620
