
  xtb     02012215303D
 energy: -257.423038596493 gnorm: 0.000505156282 xtb: 6.4.1 (unknown)
151165  0     0  0            999 V2000
   -1.1601   -8.9465   -0.0572 C   0  0  0  0  0  0  0  0  0  0  0  0
   -0.3478   -9.8941   -0.6087 C   0  0  0  0  0  0  0  0  0  0  0  0
   -0.3098  -11.2651   -0.0233 C   0  0  0  0  0  0  0  0  0  0  0  0
   -1.0761  -11.7301    0.7873 O   0  0  0  0  0  0  0  0  0  0  0  0
    0.8861  -11.8902   -0.6208 C   0  0  0  0  0  0  0  0  0  0  0  0
    1.5850  -13.1022   -0.5176 C   0  0  0  0  0  0  0  0  0  0  0  0
    2.6499  -13.1211   -1.3767 C   0  0  0  0  0  0  0  0  0  0  0  0
    3.7649  -14.3927   -1.5780 Cl  0  0  0  0  0  0  0  0  0  0  0  0
    2.8091  -11.6692   -2.3351 S   0  0  0  0  0  0  0  0  0  0  0  0
    1.4306  -11.0164   -1.5499 C   0  0  0  0  0  0  0  0  0  0  0  0
    0.6411   -9.8191   -1.6680 C   0  0  0  0  0  0  0  0  0  0  0  0
    0.6955   -8.9493   -2.7304 C   0  0  0  0  0  0  0  0  0  0  0  0
   -0.2775   -7.9737   -3.0091 C   0  0  0  0  0  0  0  0  0  0  0  0
   -1.0780   -7.2143   -3.3267 N   0  0  0  0  0  0  0  0  0  0  0  0
    1.7011   -9.0444   -3.7122 C   0  0  0  0  0  0  0  0  0  0  0  0
    2.5225   -9.0888   -4.5127 N   0  0  0  0  0  0  0  0  0  0  0  0
   -1.0574   -7.5447   -0.1571 C   0  0  0  0  0  0  0  0  0  0  0  0
   -2.4413   -6.5406    0.2459 S   0  0  0  0  0  0  0  0  0  0  0  0
   -1.5206   -5.1321   -0.0491 C   0  0  0  0  0  0  0  0  0  0  0  0
   -1.7407   -3.7200   -0.0568 C   0  0  0  0  0  0  0  0  0  0  0  0
   -0.5352   -3.1072   -0.3871 C   0  0  0  0  0  0  0  0  0  0  0  0
    0.5579   -4.1341   -0.6338 C   0  0  0  0  0  0  0  0  0  0  0  0
   -0.2039   -5.4171   -0.3956 C   0  0  0  0  0  0  0  0  0  0  0  0
    0.0586   -6.7731   -0.4662 C   0  0  0  0  0  0  0  0  0  0  0  0
    1.7040   -4.0823    0.3574 C   0  0  0  0  0  0  0  0  0  0  0  0
    2.7821   -4.9520    0.2037 C   0  0  0  0  0  0  0  0  0  0  0  0
    3.8203   -4.9588    1.1068 C   0  0  0  0  0  0  0  0  0  0  0  0
    3.8143   -4.0987    2.2080 C   0  0  0  0  0  0  0  0  0  0  0  0
    4.8861   -4.2046    3.0364 O   0  0  0  0  0  0  0  0  0  0  0  0
    5.0278   -3.3168    4.1271 C   0  0  0  0  0  0  0  0  0  0  0  0
    5.4987   -1.9297    3.6994 C   0  0  0  0  0  0  0  0  0  0  0  0
    2.7305   -3.2457    2.3772 C   0  0  0  0  0  0  0  0  0  0  0  0
    1.6886   -3.2491    1.4637 C   0  0  0  0  0  0  0  0  0  0  0  0
    0.9936   -4.0644   -2.0925 C   0  0  0  0  0  0  0  0  0  0  0  0
    2.2649   -3.6728   -2.4931 C   0  0  0  0  0  0  0  0  0  0  0  0
    2.6169   -3.6908   -3.8264 C   0  0  0  0  0  0  0  0  0  0  0  0
    1.7081   -4.1003   -4.8032 C   0  0  0  0  0  0  0  0  0  0  0  0
    2.1751   -4.1079   -6.0785 O   0  0  0  0  0  0  0  0  0  0  0  0
    1.4099   -4.7210   -7.0986 C   0  0  0  0  0  0  0  0  0  0  0  0
    1.3703   -6.2412   -6.9756 C   0  0  0  0  0  0  0  0  0  0  0  0
    0.4168   -4.4362   -4.4095 C   0  0  0  0  0  0  0  0  0  0  0  0
    0.0726   -4.4100   -3.0720 C   0  0  0  0  0  0  0  0  0  0  0  0
   -0.4479   -1.7026   -0.4741 C   0  0  0  0  0  0  0  0  0  0  0  0
    0.7329   -1.0231   -0.7761 C   0  0  0  0  0  0  0  0  0  0  0  0
    0.7971    0.3644   -0.7853 C   0  0  0  0  0  0  0  0  0  0  0  0
    2.0215    1.0361   -1.0568 C   0  0  0  0  0  0  0  0  0  0  0  0
    2.1116    2.3917   -1.0210 C   0  0  0  0  0  0  0  0  0  0  0  0
    0.9529    3.1367   -0.7167 C   0  0  0  0  0  0  0  0  0  0  0  0
    0.7764    4.5449   -0.5526 C   0  0  0  0  0  0  0  0  0  0  0  0
   -0.5390    4.8353   -0.2084 C   0  0  0  0  0  0  0  0  0  0  0  0
   -1.3507    3.5596   -0.1658 C   0  0  0  0  0  0  0  0  0  0  0  0
   -1.8877    3.3034    1.2347 C   0  0  0  0  0  0  0  0  0  0  0  0
   -1.0231    3.4322    2.3122 C   0  0  0  0  0  0  0  0  0  0  0  0
   -1.4378    3.1776    3.6072 C   0  0  0  0  0  0  0  0  0  0  0  0
   -2.7472    2.7764    3.8509 C   0  0  0  0  0  0  0  0  0  0  0  0
   -3.2682    2.4958    5.0716 O   0  0  0  0  0  0  0  0  0  0  0  0
   -2.4424    2.6050    6.2147 C   0  0  0  0  0  0  0  0  0  0  0  0
   -3.2797    2.2270    7.4261 C   0  0  0  0  0  0  0  0  0  0  0  0
   -3.6183    2.6400    2.7692 C   0  0  0  0  0  0  0  0  0  0  0  0
   -3.1940    2.8977    1.4835 C   0  0  0  0  0  0  0  0  0  0  0  0
   -2.4286    3.6640   -1.2284 C   0  0  0  0  0  0  0  0  0  0  0  0
   -3.4681    4.5767   -1.0596 C   0  0  0  0  0  0  0  0  0  0  0  0
   -4.4398    4.7279   -2.0219 C   0  0  0  0  0  0  0  0  0  0  0  0
   -4.4024    3.9747   -3.1985 C   0  0  0  0  0  0  0  0  0  0  0  0
   -5.4048    4.2231   -4.0811 O   0  0  0  0  0  0  0  0  0  0  0  0
   -5.5057    3.4643   -5.2697 C   0  0  0  0  0  0  0  0  0  0  0  0
   -6.0843    2.0725   -5.0316 C   0  0  0  0  0  0  0  0  0  0  0  0
   -3.3594    3.0739   -3.3768 C   0  0  0  0  0  0  0  0  0  0  0  0
   -2.3848    2.9306   -2.4022 C   0  0  0  0  0  0  0  0  0  0  0  0
   -0.2757    2.5280   -0.4824 C   0  0  0  0  0  0  0  0  0  0  0  0
   -0.3895    1.1221   -0.4982 C   0  0  0  0  0  0  0  0  0  0  0  0
   -1.5798    0.4415   -0.2382 C   0  0  0  0  0  0  0  0  0  0  0  0
   -1.6380   -0.9458   -0.2033 C   0  0  0  0  0  0  0  0  0  0  0  0
   -2.8503   -1.6190    0.1153 C   0  0  0  0  0  0  0  0  0  0  0  0
   -2.9120   -2.9745    0.1936 C   0  0  0  0  0  0  0  0  0  0  0  0
   -0.7541    6.1859    0.0089 C   0  0  0  0  0  0  0  0  0  0  0  0
    0.4054    6.9386   -0.1591 C   0  0  0  0  0  0  0  0  0  0  0  0
    1.7737    5.9337   -0.6114 S   0  0  0  0  0  0  0  0  0  0  0  0
    0.5152    8.3273    0.0302 C   0  0  0  0  0  0  0  0  0  0  0  0
    1.6293    9.1002   -0.0567 C   0  0  0  0  0  0  0  0  0  0  0  0
    3.2521    8.5705   -0.4403 S   0  0  0  0  0  0  0  0  0  0  0  0
    3.8640   10.2031   -0.2525 C   0  0  0  0  0  0  0  0  0  0  0  0
    5.1933   10.4672   -0.4601 C   0  0  0  0  0  0  0  0  0  0  0  0
    5.8083   11.7294   -0.4281 C   0  0  0  0  0  0  0  0  0  0  0  0
    6.3710   12.7303   -0.4488 N   0  0  0  0  0  0  0  0  0  0  0  0
    6.0655    9.4056   -0.7782 C   0  0  0  0  0  0  0  0  0  0  0  0
    6.7802    8.5447   -1.0314 N   0  0  0  0  0  0  0  0  0  0  0  0
    2.8775   11.0731    0.0837 N   0  0  0  0  0  0  0  0  0  0  0  0
    3.1001   12.4539    0.4594 C   0  0  0  0  0  0  0  0  0  0  0  0
    3.8561   12.5821    1.7603 C   0  0  0  0  0  0  0  0  0  0  0  0
    3.7189   11.6311    2.7624 C   0  0  0  0  0  0  0  0  0  0  0  0
    4.4112   11.7646    3.9532 C   0  0  0  0  0  0  0  0  0  0  0  0
    5.2392   12.8542    4.1563 C   0  0  0  0  0  0  0  0  0  0  0  0
    5.3689   13.8126    3.1654 C   0  0  0  0  0  0  0  0  0  0  0  0
    4.6827   13.6771    1.9727 C   0  0  0  0  0  0  0  0  0  0  0  0
    1.6022   10.5321    0.2086 C   0  0  0  0  0  0  0  0  0  0  0  0
    0.6290   11.1902    0.5026 O   0  0  0  0  0  0  0  0  0  0  0  0
   -1.9346   -9.3307    0.5989 H   0  0  0  0  0  0  0  0  0  0  0  0
    1.3246  -13.9104    0.1395 H   0  0  0  0  0  0  0  0  0  0  0  0
    1.0191   -7.2047   -0.6801 H   0  0  0  0  0  0  0  0  0  0  0  0
    2.8142   -5.6208   -0.6434 H   0  0  0  0  0  0  0  0  0  0  0  0
    4.6578   -5.6274    0.9852 H   0  0  0  0  0  0  0  0  0  0  0  0
    4.0941   -3.2540    4.6997 H   0  0  0  0  0  0  0  0  0  0  0  0
    5.7864   -3.7865    4.7593 H   0  0  0  0  0  0  0  0  0  0  0  0
    5.6477   -1.3068    4.5770 H   0  0  0  0  0  0  0  0  0  0  0  0
    4.7697   -1.4541    3.0477 H   0  0  0  0  0  0  0  0  0  0  0  0
    6.4392   -2.0112    3.1604 H   0  0  0  0  0  0  0  0  0  0  0  0
    2.6714   -2.5732    3.2184 H   0  0  0  0  0  0  0  0  0  0  0  0
    0.8572   -2.5810    1.6300 H   0  0  0  0  0  0  0  0  0  0  0  0
    3.0018   -3.3700   -1.7634 H   0  0  0  0  0  0  0  0  0  0  0  0
    3.6085   -3.4030   -4.1385 H   0  0  0  0  0  0  0  0  0  0  0  0
    0.3948   -4.3048   -7.1247 H   0  0  0  0  0  0  0  0  0  0  0  0
    1.9216   -4.4350   -8.0217 H   0  0  0  0  0  0  0  0  0  0  0  0
    0.8589   -6.5484   -6.0664 H   0  0  0  0  0  0  0  0  0  0  0  0
    2.3817   -6.6381   -6.9462 H   0  0  0  0  0  0  0  0  0  0  0  0
    0.8496   -6.6631   -7.8307 H   0  0  0  0  0  0  0  0  0  0  0  0
   -0.3326   -4.7313   -5.1256 H   0  0  0  0  0  0  0  0  0  0  0  0
   -0.9326   -4.6870   -2.7933 H   0  0  0  0  0  0  0  0  0  0  0  0
    1.6247   -1.5894   -0.9922 H   0  0  0  0  0  0  0  0  0  0  0  0
    2.8883    0.4327   -1.2827 H   0  0  0  0  0  0  0  0  0  0  0  0
    3.0404    2.9074   -1.2115 H   0  0  0  0  0  0  0  0  0  0  0  0
   -0.0000    3.7364    2.1432 H   0  0  0  0  0  0  0  0  0  0  0  0
   -0.7310    3.2941    4.4135 H   0  0  0  0  0  0  0  0  0  0  0  0
   -2.0722    3.6349    6.3153 H   0  0  0  0  0  0  0  0  0  0  0  0
   -1.5807    1.9290    6.1225 H   0  0  0  0  0  0  0  0  0  0  0  0
   -3.6460    1.2096    7.3206 H   0  0  0  0  0  0  0  0  0  0  0  0
   -4.1327    2.8947    7.5100 H   0  0  0  0  0  0  0  0  0  0  0  0
   -2.6791    2.2993    8.3283 H   0  0  0  0  0  0  0  0  0  0  0  0
   -4.6318    2.3272    2.9648 H   0  0  0  0  0  0  0  0  0  0  0  0
   -3.8949    2.7849    0.6695 H   0  0  0  0  0  0  0  0  0  0  0  0
   -3.5215    5.1660   -0.1568 H   0  0  0  0  0  0  0  0  0  0  0  0
   -5.2462    5.4320   -1.8915 H   0  0  0  0  0  0  0  0  0  0  0  0
   -6.1842    4.0438   -5.9021 H   0  0  0  0  0  0  0  0  0  0  0  0
   -4.5335    3.4032   -5.7740 H   0  0  0  0  0  0  0  0  0  0  0  0
   -7.0604    2.1559   -4.5605 H   0  0  0  0  0  0  0  0  0  0  0  0
   -6.1933    1.5546   -5.9804 H   0  0  0  0  0  0  0  0  0  0  0  0
   -5.4381    1.4872   -4.3820 H   0  0  0  0  0  0  0  0  0  0  0  0
   -3.2797    2.4771   -4.2715 H   0  0  0  0  0  0  0  0  0  0  0  0
   -1.5838    2.2283   -2.5758 H   0  0  0  0  0  0  0  0  0  0  0  0
   -2.4768    1.0058   -0.0407 H   0  0  0  0  0  0  0  0  0  0  0  0
   -3.7260   -1.0163    0.3061 H   0  0  0  0  0  0  0  0  0  0  0  0
   -3.8273   -3.4901    0.4413 H   0  0  0  0  0  0  0  0  0  0  0  0
   -1.6876    6.6366    0.2911 H   0  0  0  0  0  0  0  0  0  0  0  0
   -0.3947    8.8548    0.2924 H   0  0  0  0  0  0  0  0  0  0  0  0
    2.0974   12.8863    0.5698 H   0  0  0  0  0  0  0  0  0  0  0  0
    3.6241   12.9801   -0.3426 H   0  0  0  0  0  0  0  0  0  0  0  0
    3.0649   10.7811    2.6218 H   0  0  0  0  0  0  0  0  0  0  0  0
    4.3009   11.0144    4.7224 H   0  0  0  0  0  0  0  0  0  0  0  0
    5.7816   12.9558    5.0842 H   0  0  0  0  0  0  0  0  0  0  0  0
    6.0126   14.6655    3.3176 H   0  0  0  0  0  0  0  0  0  0  0  0
    4.7973   14.4179    1.1962 H   0  0  0  0  0  0  0  0  0  0  0  0
  1  2  2  0  0  0  0
  2  3  1  0  0  0  0
  3  4  2  0  0  0  0
  3  5  1  0  0  0  0
  5  6  1  0  0  0  0
  6  7  2  0  0  0  0
  7  8  1  0  0  0  0
  7  9  1  0  0  0  0
  9 10  1  0  0  0  0
 10 11  1  0  0  0  0
 11 12  2  0  0  0  0
 12 13  1  0  0  0  0
 13 14  3  0  0  0  0
 12 15  1  0  0  0  0
 15 16  3  0  0  0  0
  1 17  1  0  0  0  0
 17 18  1  0  0  0  0
 18 19  1  0  0  0  0
 19 20  1  0  0  0  0
 20 21  2  0  0  0  0
 21 22  1  0  0  0  0
 22 23  1  0  0  0  0
 23 24  1  0  0  0  0
 22 25  1  0  0  0  0
 25 26  2  0  0  0  0
 26 27  1  0  0  0  0
 27 28  2  0  0  0  0
 28 29  1  0  0  0  0
 29 30  1  0  0  0  0
 30 31  1  0  0  0  0
 28 32  1  0  0  0  0
 32 33  2  0  0  0  0
 22 34  1  0  0  0  0
 34 35  2  0  0  0  0
 35 36  1  0  0  0  0
 36 37  2  0  0  0  0
 37 38  1  0  0  0  0
 38 39  1  0  0  0  0
 39 40  1  0  0  0  0
 37 41  1  0  0  0  0
 41 42  2  0  0  0  0
 21 43  1  0  0  0  0
 43 44  2  0  0  0  0
 44 45  1  0  0  0  0
 45 46  2  0  0  0  0
 46 47  1  0  0  0  0
 47 48  2  0  0  0  0
 48 49  1  0  0  0  0
 49 50  2  0  0  0  0
 50 51  1  0  0  0  0
 51 52  1  0  0  0  0
 52 53  2  0  0  0  0
 53 54  1  0  0  0  0
 54 55  2  0  0  0  0
 55 56  1  0  0  0  0
 56 57  1  0  0  0  0
 57 58  1  0  0  0  0
 55 59  1  0  0  0  0
 59 60  2  0  0  0  0
 51 61  1  0  0  0  0
 61 62  2  0  0  0  0
 62 63  1  0  0  0  0
 63 64  2  0  0  0  0
 64 65  1  0  0  0  0
 65 66  1  0  0  0  0
 66 67  1  0  0  0  0
 64 68  1  0  0  0  0
 68 69  2  0  0  0  0
 51 70  1  0  0  0  0
 70 71  2  0  0  0  0
 71 72  1  0  0  0  0
 72 73  2  0  0  0  0
 73 74  1  0  0  0  0
 74 75  2  0  0  0  0
 50 76  1  0  0  0  0
 76 77  2  0  0  0  0
 77 78  1  0  0  0  0
 77 79  1  0  0  0  0
 79 80  2  0  0  0  0
 80 81  1  0  0  0  0
 81 82  1  0  0  0  0
 82 83  2  0  0  0  0
 83 84  1  0  0  0  0
 84 85  3  0  0  0  0
 83 86  1  0  0  0  0
 86 87  3  0  0  0  0
 82 88  1  0  0  0  0
 88 89  1  0  0  0  0
 89 90  1  0  0  0  0
 90 91  2  0  0  0  0
 91 92  1  0  0  0  0
 92 93  2  0  0  0  0
 93 94  1  0  0  0  0
 94 95  2  0  0  0  0
 88 96  1  0  0  0  0
 96 97  2  0  0  0  0
 11  2  1  0  0  0  0
 24 17  2  0  0  0  0
 33 25  1  0  0  0  0
 42 34  1  0  0  0  0
 73 43  1  0  0  0  0
 96 80  1  0  0  0  0
 10  5  2  0  0  0  0
 23 19  2  0  0  0  0
 71 45  1  0  0  0  0
 95 90  1  0  0  0  0
 75 20  1  0  0  0  0
 70 48  1  0  0  0  0
 78 49  1  0  0  0  0
 60 52  1  0  0  0  0
 69 61  1  0  0  0  0
  1 98  1  0  0  0  0
  6 99  1  0  0  0  0
 24100  1  0  0  0  0
 26101  1  0  0  0  0
 27102  1  0  0  0  0
 30103  1  0  0  0  0
 30104  1  0  0  0  0
 31105  1  0  0  0  0
 31106  1  0  0  0  0
 31107  1  0  0  0  0
 32108  1  0  0  0  0
 33109  1  0  0  0  0
 35110  1  0  0  0  0
 36111  1  0  0  0  0
 39112  1  0  0  0  0
 39113  1  0  0  0  0
 40114  1  0  0  0  0
 40115  1  0  0  0  0
 40116  1  0  0  0  0
 41117  1  0  0  0  0
 42118  1  0  0  0  0
 44119  1  0  0  0  0
 46120  1  0  0  0  0
 47121  1  0  0  0  0
 53122  1  0  0  0  0
 54123  1  0  0  0  0
 57124  1  0  0  0  0
 57125  1  0  0  0  0
 58126  1  0  0  0  0
 58127  1  0  0  0  0
 58128  1  0  0  0  0
 59129  1  0  0  0  0
 60130  1  0  0  0  0
 62131  1  0  0  0  0
 63132  1  0  0  0  0
 66133  1  0  0  0  0
 66134  1  0  0  0  0
 67135  1  0  0  0  0
 67136  1  0  0  0  0
 67137  1  0  0  0  0
 68138  1  0  0  0  0
 69139  1  0  0  0  0
 72140  1  0  0  0  0
 74141  1  0  0  0  0
 75142  1  0  0  0  0
 76143  1  0  0  0  0
 79144  1  0  0  0  0
 89145  1  0  0  0  0
 89146  1  0  0  0  0
 91147  1  0  0  0  0
 92148  1  0  0  0  0
 93149  1  0  0  0  0
 94150  1  0  0  0  0
 95151  1  0  0  0  0
M  END
