108

C         -4.43720       -5.06460       -7.93890
C         -4.20050       -6.33720       -8.38890
C         -3.16390       -7.31100       -7.96090
O         -2.30110       -7.18740       -7.11560
C         -3.38760       -8.50470       -8.79490
C         -2.81600       -9.77670       -8.94740
C         -3.47180      -10.48480       -9.91720
Cl        -3.11350      -12.06950      -10.42810
S         -4.79300       -9.61350      -10.65740
C         -4.45610       -8.27060       -9.64270
C         -4.99980       -6.95580       -9.44230
C         -6.06830       -6.45680      -10.14560
C         -6.69800       -7.24430      -11.13300
N         -7.21700       -7.87610      -11.93820
C         -6.66020       -5.18730      -10.00740
N         -7.20260       -4.17550       -9.96120
C         -3.81720       -4.28560       -6.94740
S         -4.48710       -2.65360       -6.72840
C         -3.35210       -2.34610       -5.48020
C         -2.94710       -1.36790       -4.58030
S         -3.34580        0.26270       -4.18000
C         -2.09390        0.26110       -2.94040
C         -1.83890        1.35030       -2.11560
O         -2.48670        2.54270       -2.23340
C         -2.55620        3.19140       -3.50490
C         -3.98780        3.60530       -3.80570
C         -0.91890        1.18430       -1.06210
C         -0.29660       -0.08660       -0.90990
C         -0.53890       -1.16670       -1.74510
O          0.07620       -2.37690       -1.53390
C         -0.35590       -3.10620       -0.38580
C         -1.82720       -3.49560       -0.45600
C         -1.42930       -0.99190       -2.81500
C         -1.89020       -1.90010       -3.81490
N         -1.62470       -3.17680       -4.23830
C         -2.50440       -3.45910       -5.25230
C         -2.76680       -4.54370       -6.07800
C         -0.47250       -4.01100       -3.98320
C          0.55150       -3.88850       -5.10940
S          0.83840       -0.17280        0.42310
C          0.47580        1.46830        0.81950
C          0.83800        2.39630        1.79030
S          1.83610        2.58020        3.18040
C          1.24920        4.23360        3.37220
C          0.32780        4.59430        2.38540
C          0.09230        3.56300        1.49290
N         -0.69920        3.35360        0.39300
C         -1.50780        4.40540       -0.17240
C         -0.66140        5.34920       -1.02500
C         -0.46560        2.07180       -0.03940
C          1.61490        5.13530        4.38380
C          2.47410        4.99530        5.44140
C          3.26070        3.79690        5.75990
O          3.28700        2.74250        5.15050
C          4.02700        4.11640        6.97610
C          4.91730        3.28120        7.64740
C          5.48800        3.85230        8.75940
C          5.19710        5.15970        9.17090
C          4.32390        5.99480        8.51520
C          3.72790        5.43250        7.38170
C          2.76300        6.00360        6.44270
C          2.23890        7.26940        6.52090
C          1.31210        7.83890        5.62370
N          0.56030        8.38340        4.94570
C          2.55380        8.20570        7.52790
N          2.75470        9.02050        8.31180
C          6.12000        5.07610       10.36130
C          5.45380        4.86200       11.73680
C          6.57760        4.34590       12.60620
C          6.85290        3.10760       12.21690
C          5.91960        2.76580       11.07780
C          4.67820        3.55830       11.50710
C          6.44390        3.61800        9.90250
H         -5.25440       -4.54520       -8.42620
H         -1.98070      -10.15040       -8.38570
H         -2.16290        2.54640       -4.29360
H         -1.91800        4.08210       -3.44040
H         -4.01840        4.15220       -4.74340
H         -4.36450        4.24210       -3.00980
H         -4.62790        2.73100       -3.88540
H         -0.16450       -2.53250        0.52710
H          0.28150       -3.99310       -0.38130
H         -2.03140       -4.07370       -1.35400
H         -2.08250       -4.09430        0.41350
H         -2.45500       -2.60660       -0.46400
H         -2.24710       -5.48350       -6.07120
H         -0.01980       -3.70030       -3.04420
H         -0.81700       -5.04620       -3.90370
H          0.89650       -2.86040       -5.19350
H          1.40570       -4.52420       -4.89530
H          0.12030       -4.19300       -6.06030
H         -0.12680        5.56850        2.35920
H         -1.95890        4.95860        0.65660
H         -2.29840        3.95400       -0.76820
H         -0.18220        4.80090       -1.83300
H          0.11420        5.81590       -0.42190
H         -1.28780        6.12830       -1.45050
H          1.11500        6.09180        4.29030
H          5.11480        2.28240        7.29100
H          4.11750        6.99930        8.84410
H          6.92700        5.80570       10.38800
H          4.89790        5.71710       12.11120
H          7.07760        4.93480       13.35260
H          7.62890        2.45560       12.57300
H          5.78800        1.71090       10.85270
H          3.90910        3.62850       10.74010
H          4.24120        3.17210       12.42660
H          7.46760        3.37490        9.62380
