82

C         -5.09630       -4.27320       -1.52570
C         -6.12600       -4.08030       -0.64770
C         -6.26100       -3.16980        0.52280
O         -5.45470       -2.39780        0.99880
C         -7.62590       -3.39060        1.03180
C         -8.42860       -2.89160        2.06840
C         -9.65730       -3.49370        2.05630
Cl       -10.94160       -3.19000        3.13310
S         -9.85310       -4.67610        0.78560
C         -8.25070       -4.35270        0.25860
C         -7.38320       -4.82200       -0.78380
C         -7.74280       -5.78840       -1.69040
C         -6.96550       -6.31500       -2.73930
N         -6.41070       -6.80740       -3.61700
C         -9.02520       -6.37550       -1.62940
N        -10.06410       -6.86120       -1.58990
C         -3.78840       -3.72260       -1.67930
C         -3.03740       -4.18720       -2.79030
C         -1.77100       -3.73920       -3.06980
C         -1.20680       -2.78820       -2.21900
N          0.00470       -2.17090       -2.26530
C          1.04250       -2.42020       -3.23120
C          1.97410       -3.54260       -2.77690
C          0.11700       -1.31980       -1.18020
C         -1.08470       -1.37580       -0.42420
C         -1.93660       -2.31920       -1.09350
C         -3.20800       -2.77550       -0.82510
C         -1.26460       -0.61820        0.72230
C         -0.20800        0.19600        1.08820
C          0.99660        0.25060        0.33610
C          1.17580       -0.50900       -0.81030
C          1.85280        1.18170        1.02020
C          3.12770        1.63810        0.76650
C          3.70960        2.56570        1.64220
C          2.96290        3.00110        2.76830
C          1.69350        2.55570        3.03290
C          1.12180        1.63870        2.15080
N         -0.10660        1.05660        2.16570
C         -1.10900        1.22140        3.18550
C         -0.95180        0.18420        4.29610
C          5.00920        3.13520        1.49790
C          6.02570        3.00300        0.59180
C          6.15520        2.13730       -0.59650
O          5.36900        1.33390       -1.09230
C          7.48170        2.39370       -1.14240
C          8.04150        1.78870       -2.26400
O          7.36960        0.87480       -2.97370
C          9.33900        2.17860       -2.61790
C         10.00750        3.12390       -1.86440
C          9.44140        3.72710       -0.74180
C          8.15950        3.35600       -0.37860
C          7.26880        3.76830        0.70490
C          7.58120        4.72920        1.63000
C          6.77150        5.20450        2.68440
N          6.20720        5.66980        3.57150
C          8.81080        5.42400        1.65640
N          9.78150        6.03010        1.74810
H         -5.31510       -5.00570       -2.29470
H         -8.12960       -2.14180        2.77630
H         -3.48520       -4.92420       -3.44120
H         -1.23330       -4.12040       -3.92440
H          1.60920       -1.49680       -3.37460
H          0.57350       -2.68280       -4.18290
H          2.74670       -3.71050       -3.52200
H          2.44830       -3.28110       -1.83400
H          1.41470       -4.46500       -2.63820
H         -3.74670       -2.40740        0.02990
H         -2.18330       -0.67890        1.28270
H          2.09880       -0.45800       -1.36490
H          3.66900        1.28520       -0.09370
H          3.41720        3.71340        3.44170
H          1.16030        2.90880        3.90220
H         -2.09350        1.12730        2.72040
H         -1.02160        2.23010        3.59690
H         -1.72090        0.32560        5.05020
H          0.02350        0.28020        4.76770
H         -1.04170       -0.82020        3.88920
H          5.22650        3.83600        2.29500
H          6.49170        0.75250       -2.55510
H          9.79970        1.72860       -3.48270
H         11.00780        3.40870       -2.15410
H         10.00550        4.45760       -0.18770
