94

C         -2.73570       -2.89060       -7.33810
C         -2.63640       -1.80460       -8.15060
C         -2.40460       -1.98400       -9.61390
O         -2.50880       -3.01010      -10.24340
C         -1.97870       -0.65250      -10.08290
C         -1.53920       -0.06710      -11.27970
C         -1.30560        1.27010      -11.10700
Cl        -0.76140        2.36340      -12.29360
S         -1.63250        1.84050       -9.48810
C         -2.06930        0.24690       -9.02940
C         -2.59310       -0.38360       -7.84850
C         -3.16570        0.27320       -6.78790
C         -3.06930        1.67240       -6.65690
N         -2.97000        2.80820       -6.52700
C         -3.96440       -0.36130       -5.81720
N         -4.66830       -0.84350       -5.04890
C         -2.53520       -2.97570       -5.94190
C         -3.00590       -3.97330       -5.09940
C         -3.94890       -5.05160       -5.51240
C         -5.37150       -4.50110       -5.63700
C         -2.57160       -3.77800       -3.78410
S         -2.85830       -4.66800       -2.30760
C         -1.86020       -3.53730       -1.46540
C         -1.37730       -3.30920       -0.17050
C         -1.51250       -4.07670        1.00700
C         -0.82490       -3.65270        2.18890
N         -0.99810       -4.48690        3.20240
S         -1.95060       -5.69850        2.71110
N         -2.17610       -5.20830        1.18560
C         -0.11770       -2.43070        2.16210
C          0.52380       -1.73060        3.19050
S          0.86400       -1.90620        4.87430
C          1.58310       -0.31130        4.86680
C          2.15280        0.46570        5.87450
C          2.30320       -0.00440        7.28280
C          3.61540       -0.77670        7.44870
C          2.55820        1.71010        5.39260
S          2.26250        1.87210        3.65810
C          1.55850        0.30120        3.60330
C          0.95400       -0.51290        2.64600
N          0.62740       -0.45060        1.31800
C         -0.03470       -1.62210        0.98870
C         -0.59180       -2.11940       -0.21990
N         -0.57670       -1.66830       -1.53060
C         -1.33730       -2.52450       -2.27800
C         -1.73920       -2.66500       -3.60930
S         -1.49640       -1.82750       -5.09680
C          0.31420       -0.74460       -2.19650
C          1.77160       -1.17930       -2.06250
C          0.66160        0.83040        0.64550
C         -0.74150        1.39780        0.44910
C          3.22220        2.71120        6.11980
C          3.44690        4.01980        5.78610
C          4.57450        4.74470        6.41730
O          5.22270        4.39300        7.37250
C          4.75700        5.96000        5.57890
C          3.74310        6.01680        4.60450
C          3.70590        7.04100        3.67570
C          4.69850        8.00900        3.73530
F          4.69410        9.00070        2.84120
C          5.70390        7.97660        4.69890
F          6.63780        8.93120        4.72700
C          5.73340        6.93840        5.63390
F          6.69730        6.91380        6.54860
C          2.83250        4.89030        4.81710
C          1.52850        4.84210        4.39210
C          0.96080        5.74500        3.47300
N          0.45950        6.42960        2.69980
C          0.58860        3.92310        4.90450
N         -0.21370        3.22870        5.34220
H         -2.91800       -3.83230       -7.84770
H         -1.40600       -0.58830      -12.20880
H         -3.63790       -5.47500       -6.47000
H         -3.92760       -5.84060       -4.75830
H         -6.05680       -5.29880       -5.91060
H         -5.69360       -4.07130       -4.69220
H         -5.41410       -3.72410       -6.39650
H          1.46720       -0.66620        7.51680
H          2.27760        0.83990        7.97100
H          4.46830       -0.14040        7.22350
H          3.63640       -1.63410        6.78030
H          3.70840       -1.13190        8.47120
H          0.15810        0.27100       -1.83300
H          0.03380       -0.75090       -3.25270
H          2.41930       -0.46120       -2.55760
H          2.06590       -1.25940       -1.01850
H          1.91330       -2.15150       -2.52900
H          1.20530        0.75510       -0.29570
H          1.23240        1.50300        1.29040
H         -1.21430        1.56030        1.41490
H         -1.36660        0.71800       -0.12530
H         -0.68630        2.35030       -0.07060
H          3.71320        2.38790        7.03210
H          2.95020        7.11100        2.91060
