
  xtb     02022207553D
 energy: -169.606448786086 gnorm: 0.000696767057 xtb: 6.4.1 (unknown)
 93106  0     0  0            999 V2000
   -8.6435    3.1568    4.2817 C   0  0  0  0  0  0  0  0  0  0  0  0
   -9.2550    1.9945    4.6532 C   0  0  0  0  0  0  0  0  0  0  0  0
  -10.8496    1.9722    5.3983 S   0  0  0  0  0  0  0  0  0  0  0  0
  -10.8319    0.1931    5.5134 C   0  0  0  0  0  0  0  0  0  0  0  0
  -11.7151   -0.4701    5.9741 O   0  0  0  0  0  0  0  0  0  0  0  0
   -9.6484   -0.2703    5.0022 N   0  0  0  0  0  0  0  0  0  0  0  0
   -9.3789   -1.6970    4.9327 C   0  0  0  0  0  0  0  0  0  0  0  0
   -9.8894   -2.2859    3.6242 C   0  0  0  0  0  0  0  0  0  0  0  0
   -8.7526    0.6535    4.5136 C   0  0  0  0  0  0  0  0  0  0  0  0
   -7.6714    0.3273    4.0349 O   0  0  0  0  0  0  0  0  0  0  0  0
   -7.3909    3.3733    3.6834 C   0  0  0  0  0  0  0  0  0  0  0  0
   -6.9453    4.6559    3.3698 C   0  0  0  0  0  0  0  0  0  0  0  0
   -5.6889    4.7161    2.7913 C   0  0  0  0  0  0  0  0  0  0  0  0
   -4.7482    6.0937    2.2485 S   0  0  0  0  0  0  0  0  0  0  0  0
   -3.4865    5.0084    1.7789 C   0  0  0  0  0  0  0  0  0  0  0  0
   -2.1919    5.0467    1.2487 C   0  0  0  0  0  0  0  0  0  0  0  0
   -1.3813    6.1508    0.9054 C   0  0  0  0  0  0  0  0  0  0  0  0
   -0.0410    5.9109    0.4650 C   0  0  0  0  0  0  0  0  0  0  0  0
    0.6181    7.0304    0.2118 N   0  0  0  0  0  0  0  0  0  0  0  0
   -0.3687    8.2810    0.5007 S   0  0  0  0  0  0  0  0  0  0  0  0
   -1.6740    7.4404    0.9612 N   0  0  0  0  0  0  0  0  0  0  0  0
    0.3979    4.5769    0.3182 C   0  0  0  0  0  0  0  0  0  0  0  0
    1.6082    4.0752   -0.1724 C   0  0  0  0  0  0  0  0  0  0  0  0
    1.4907    2.6813   -0.1973 C   0  0  0  0  0  0  0  0  0  0  0  0
    0.2565    2.3116    0.2649 N   0  0  0  0  0  0  0  0  0  0  0  0
   -0.1139    0.9197    0.1811 C   0  0  0  0  0  0  0  0  0  0  0  0
    0.4645    0.1045    1.3376 C   0  0  0  0  0  0  0  0  0  0  0  0
   -0.4393    3.4549    0.6111 C   0  0  0  0  0  0  0  0  0  0  0  0
   -1.7324    3.6961    1.1541 C   0  0  0  0  0  0  0  0  0  0  0  0
   -2.7299    2.8787    1.6540 N   0  0  0  0  0  0  0  0  0  0  0  0
   -3.7879    3.6650    2.0202 C   0  0  0  0  0  0  0  0  0  0  0  0
   -5.0451    3.4769    2.6041 C   0  0  0  0  0  0  0  0  0  0  0  0
   -6.1060    2.0630    3.2050 Se  0  0  0  0  0  2  0  0  0  0  0  0
   -2.7886    1.4708    1.9634 C   0  0  0  0  0  0  0  0  0  0  0  0
   -3.6084    0.6937    0.9332 C   0  0  0  0  0  0  0  0  0  0  0  0
    2.6161    2.0408   -0.7216 C   0  0  0  0  0  0  0  0  0  0  0  0
    3.5947    2.9904   -1.0853 C   0  0  0  0  0  0  0  0  0  0  0  0
    3.1200    4.6527   -0.7790 S   0  0  0  0  0  0  0  0  0  0  0  0
    4.7560    2.4738   -1.6257 C   0  0  0  0  0  0  0  0  0  0  0  0
    4.7953    1.0806   -1.7315 C   0  0  0  0  0  0  0  0  0  0  0  0
    3.1932    0.3002   -1.0755 Se  0  0  0  0  0  2  0  0  0  0  0  0
    5.9123    0.4329   -2.2734 C   0  0  0  0  0  0  0  0  0  0  0  0
    6.1716   -0.9051   -2.4513 C   0  0  0  0  0  0  0  0  0  0  0  0
    5.2871   -1.9942   -2.0612 C   0  0  0  0  0  0  0  0  0  0  0  0
    4.1685   -1.8972   -1.5649 O   0  0  0  0  0  0  0  0  0  0  0  0
    5.9894   -3.2466   -2.3698 C   0  0  0  0  0  0  0  0  0  0  0  0
    5.5398   -4.5459   -2.1421 C   0  0  0  0  0  0  0  0  0  0  0  0
    6.4302   -5.5198   -2.5262 C   0  0  0  0  0  0  0  0  0  0  0  0
    7.6786   -5.2230   -3.0881 C   0  0  0  0  0  0  0  0  0  0  0  0
    8.1343   -3.9457   -3.3175 C   0  0  0  0  0  0  0  0  0  0  0  0
    7.2415   -2.9385   -2.9416 C   0  0  0  0  0  0  0  0  0  0  0  0
    7.3709   -1.4829   -3.0259 C   0  0  0  0  0  0  0  0  0  0  0  0
    8.4338   -0.8139   -3.5757 C   0  0  0  0  0  0  0  0  0  0  0  0
    8.5627    0.5873   -3.6773 C   0  0  0  0  0  0  0  0  0  0  0  0
    8.7502    1.7138   -3.8036 N   0  0  0  0  0  0  0  0  0  0  0  0
    9.5643   -1.4380   -4.1437 C   0  0  0  0  0  0  0  0  0  0  0  0
   10.5111   -1.8739   -4.6252 N   0  0  0  0  0  0  0  0  0  0  0  0
    8.0521   -6.6778   -3.2271 C   0  0  0  0  0  0  0  0  0  0  0  0
    7.9486   -7.2842   -4.6424 C   0  0  0  0  0  0  0  0  0  0  0  0
    7.8975   -8.7745   -4.3943 C   0  0  0  0  0  0  0  0  0  0  0  0
    6.7129   -9.0553   -3.8668 C   0  0  0  0  0  0  0  0  0  0  0  0
    5.9435   -7.7592   -3.7487 C   0  0  0  0  0  0  0  0  0  0  0  0
    6.4761   -7.0232   -4.9849 C   0  0  0  0  0  0  0  0  0  0  0  0
    6.6579   -7.0090   -2.6042 C   0  0  0  0  0  0  0  0  0  0  0  0
   -9.2071    4.0641    4.4743 H   0  0  0  0  0  0  0  0  0  0  0  0
   -9.8746   -2.1663    5.7850 H   0  0  0  0  0  0  0  0  0  0  0  0
   -8.2961   -1.8187    5.0114 H   0  0  0  0  0  0  0  0  0  0  0  0
   -9.6778   -3.3509    3.5960 H   0  0  0  0  0  0  0  0  0  0  0  0
   -9.3976   -1.8082    2.7798 H   0  0  0  0  0  0  0  0  0  0  0  0
  -10.9640   -2.1407    3.5403 H   0  0  0  0  0  0  0  0  0  0  0  0
   -7.5422    5.5300    3.5683 H   0  0  0  0  0  0  0  0  0  0  0  0
   -1.1944    0.8291    0.1182 H   0  0  0  0  0  0  0  0  0  0  0  0
    0.3071    0.5296   -0.7560 H   0  0  0  0  0  0  0  0  0  0  0  0
    0.0711   -0.9076    1.3083 H   0  0  0  0  0  0  0  0  0  0  0  0
    0.2286    0.5513    2.3014 H   0  0  0  0  0  0  0  0  0  0  0  0
    1.5492    0.0513    1.2489 H   0  0  0  0  0  0  0  0  0  0  0  0
   -1.7830    1.0739    2.0680 H   0  0  0  0  0  0  0  0  0  0  0  0
   -3.2867    1.3756    2.9384 H   0  0  0  0  0  0  0  0  0  0  0  0
   -3.5216   -0.3728    1.1201 H   0  0  0  0  0  0  0  0  0  0  0  0
   -3.2807    0.9056   -0.0827 H   0  0  0  0  0  0  0  0  0  0  0  0
   -4.6595    0.9697    1.0112 H   0  0  0  0  0  0  0  0  0  0  0  0
    5.5794    3.0882   -1.9494 H   0  0  0  0  0  0  0  0  0  0  0  0
    6.6876    1.1222   -2.5883 H   0  0  0  0  0  0  0  0  0  0  0  0
    4.5742   -4.7284   -1.6974 H   0  0  0  0  0  0  0  0  0  0  0  0
    9.1007   -3.7379   -3.7447 H   0  0  0  0  0  0  0  0  0  0  0  0
    8.9483   -6.9897   -2.6942 H   0  0  0  0  0  0  0  0  0  0  0  0
    8.6977   -6.9298   -5.3450 H   0  0  0  0  0  0  0  0  0  0  0  0
    8.7215   -9.4405   -4.5705 H   0  0  0  0  0  0  0  0  0  0  0  0
    6.3497  -10.0027   -3.5140 H   0  0  0  0  0  0  0  0  0  0  0  0
    4.8653   -7.8386   -3.6384 H   0  0  0  0  0  0  0  0  0  0  0  0
    6.2097   -5.9685   -5.0230 H   0  0  0  0  0  0  0  0  0  0  0  0
    6.1773   -7.5079   -5.9128 H   0  0  0  0  0  0  0  0  0  0  0  0
    6.6239   -7.5455   -1.6578 H   0  0  0  0  0  0  0  0  0  0  0  0
  1  2  2  0  0  0  0
  2  3  1  0  0  0  0
  3  4  1  0  0  0  0
  4  5  2  0  0  0  0
  4  6  1  0  0  0  0
  6  7  1  0  0  0  0
  7  8  1  0  0  0  0
  6  9  1  0  0  0  0
  9 10  2  0  0  0  0
  1 11  1  0  0  0  0
 11 12  2  0  0  0  0
 12 13  1  0  0  0  0
 13 14  1  0  0  0  0
 14 15  1  0  0  0  0
 15 16  1  0  0  0  0
 16 17  1  0  0  0  0
 17 18  1  0  0  0  0
 18 19  2  0  0  0  0
 19 20  1  0  0  0  0
 20 21  1  0  0  0  0
 18 22  1  0  0  0  0
 22 23  1  0  0  0  0
 23 24  2  0  0  0  0
 24 25  1  0  0  0  0
 25 26  1  0  0  0  0
 26 27  1  0  0  0  0
 25 28  1  0  0  0  0
 28 29  1  0  0  0  0
 29 30  1  0  0  0  0
 30 31  1  0  0  0  0
 31 32  1  0  0  0  0
 32 33  1  0  0  0  0
 30 34  1  0  0  0  0
 34 35  1  0  0  0  0
 24 36  1  0  0  0  0
 36 37  2  0  0  0  0
 37 38  1  0  0  0  0
 37 39  1  0  0  0  0
 39 40  2  0  0  0  0
 40 41  1  0  0  0  0
 40 42  1  0  0  0  0
 42 43  2  0  0  0  0
 43 44  1  0  0  0  0
 44 45  2  0  0  0  0
 44 46  1  0  0  0  0
 46 47  2  0  0  0  0
 47 48  1  0  0  0  0
 48 49  2  0  0  0  0
 49 50  1  0  0  0  0
 50 51  2  0  0  0  0
 51 52  1  0  0  0  0
 52 53  2  0  0  0  0
 53 54  1  0  0  0  0
 54 55  3  0  0  0  0
 53 56  1  0  0  0  0
 56 57  3  0  0  0  0
 49 58  1  0  0  0  0
 58 59  1  0  0  0  0
 59 60  1  0  0  0  0
 60 61  2  0  0  0  0
 61 62  1  0  0  0  0
 62 63  1  0  0  0  0
 62 64  1  0  0  0  0
  9  2  1  0  0  0  0
 33 11  1  0  0  0  0
 41 36  1  0  0  0  0
 52 43  1  0  0  0  0
 64 58  1  0  0  0  0
 32 13  2  0  0  0  0
 51 46  1  0  0  0  0
 63 59  1  0  0  0  0
 31 15  2  0  0  0  0
 64 48  1  0  0  0  0
 29 16  2  0  0  0  0
 21 17  2  0  0  0  0
 28 22  2  0  0  0  0
 38 23  1  0  0  0  0
  1 65  1  0  0  0  0
  7 66  1  0  0  0  0
  7 67  1  0  0  0  0
  8 68  1  0  0  0  0
  8 69  1  0  0  0  0
  8 70  1  0  0  0  0
 12 71  1  0  0  0  0
 26 72  1  0  0  0  0
 26 73  1  0  0  0  0
 27 74  1  0  0  0  0
 27 75  1  0  0  0  0
 27 76  1  0  0  0  0
 34 77  1  0  0  0  0
 34 78  1  0  0  0  0
 35 79  1  0  0  0  0
 35 80  1  0  0  0  0
 35 81  1  0  0  0  0
 39 82  1  0  0  0  0
 42 83  1  0  0  0  0
 47 84  1  0  0  0  0
 50 85  1  0  0  0  0
 58 86  1  0  0  0  0
 59 87  1  0  0  0  0
 60 88  1  0  0  0  0
 61 89  1  0  0  0  0
 62 90  1  0  0  0  0
 63 91  1  0  0  0  0
 63 92  1  0  0  0  0
 64 93  1  0  0  0  0
M  END
