68

C         -2.53240        0.77270        7.53350
C         -2.09810        0.26180        8.71860
S         -2.64710        0.92700       10.25340
C         -1.62380       -0.20580       11.17940
O         -1.55870       -0.23960       12.37410
N         -0.95610       -1.01070       10.30180
C         -0.01810       -2.01140       10.78320
C          1.36690       -1.41110       10.98640
C         -1.16110       -0.82060        8.94610
O         -0.60980       -1.50170        8.10260
C         -2.21130        0.41790        6.20930
S         -1.12660       -0.88870        5.73820
C         -1.37170       -0.49220        4.08130
C         -0.96780       -0.86620        2.79970
S          0.06290       -2.02060        2.00980
C         -0.34090       -1.30370        0.47080
C         -1.23980       -0.23410        0.56930
C         -1.60470        0.01280        1.89660
N         -2.40460        0.88560        2.57680
C         -2.25520        0.60480        3.91200
C         -2.72890        1.10700        5.11370
C         -3.13550        1.98540        2.00100
C         -2.27310        3.24140        1.90240
S         -1.60930        0.51230       -0.96550
C         -0.54020       -0.61060       -1.74930
C         -0.03740       -0.90990       -3.01420
C          0.84470       -2.00710       -2.84890
N          0.90050       -2.36000       -1.52500
C          1.59690       -3.48770       -0.96010
C          0.72610       -4.74180       -0.96850
C          0.05490       -1.52550       -0.85270
C          1.44520       -2.41330       -4.03590
C          1.04390       -1.63350       -5.11090
S         -0.11050       -0.38390       -4.65140
C          1.51040       -1.77890       -6.43240
C          1.22170       -1.02030       -7.51920
S          0.16130        0.36800       -7.60350
C          0.52920        0.60560       -9.34370
O          0.05990        1.47980      -10.01220
N          1.40010       -0.36070       -9.75290
C          1.89800       -0.37640      -11.11860
C          3.06530        0.58710      -11.28780
C          1.82990       -1.29120       -8.82090
O          2.59800       -2.19070       -9.07790
H         -3.23220        1.59750        7.61100
H         -0.40780       -2.40480       11.72450
H          0.01280       -2.80010       10.02780
H          1.32800       -0.61750       11.72900
H          2.05110       -2.18050       11.33250
H          1.74170       -1.00530       10.04940
H         -3.40560        1.93530        5.22190
H         -3.47080        1.68550        1.00440
H         -4.01220        2.17480        2.62560
H         -2.85250        4.05670        1.47910
H         -1.91840        3.53550        2.88750
H         -1.41370        3.05690        1.26260
H          1.87600       -3.23510        0.06650
H          2.50630       -3.65270       -1.54310
H         -0.16890       -4.58100       -0.37250
H          1.27680       -5.57870       -0.54930
H          0.42880       -4.99010       -1.98480
H          2.14540       -3.22210       -4.13890
H          2.20590       -2.59180       -6.60940
H          2.21290       -1.40260      -11.32100
H          1.07340       -0.09770      -11.77850
H          3.42610        0.54750      -12.31150
H          3.87870        0.31470      -10.61910
H          2.74820        1.60380      -11.06760
