
  xtb     02022215383D
 energy: -174.865419147661 gnorm: 0.000565194484 xtb: 6.4.1 (unknown)
102114  0     0  0            999 V2000
   -1.9747    2.5416    8.3908 C   0  0  0  0  0  0  0  0  0  0  0  0
   -1.4592    2.5466    9.6517 C   0  0  0  0  0  0  0  0  0  0  0  0
   -2.4166    3.1713   10.9949 S   0  0  0  0  0  0  0  0  0  0  0  0
   -1.1321    2.7897   12.1736 C   0  0  0  0  0  0  0  0  0  0  0  0
   -1.2087    2.9958   13.3504 O   0  0  0  0  0  0  0  0  0  0  0  0
   -0.0840    2.2259   11.5076 N   0  0  0  0  0  0  0  0  0  0  0  0
    1.1198    1.8315   12.2207 C   0  0  0  0  0  0  0  0  0  0  0  0
    2.0784    3.0048   12.3737 C   0  0  0  0  0  0  0  0  0  0  0  0
   -0.1764    2.0718   10.1329 C   0  0  0  0  0  0  0  0  0  0  0  0
    0.7214    1.5841    9.4761 O   0  0  0  0  0  0  0  0  0  0  0  0
   -1.4290    2.1062    7.1664 C   0  0  0  0  0  0  0  0  0  0  0  0
    0.2103    1.4782    7.0169 S   0  0  0  0  0  0  0  0  0  0  0  0
   -0.0426    1.2875    5.3398 C   0  0  0  0  0  0  0  0  0  0  0  0
    0.6791    0.8631    4.2183 C   0  0  0  0  0  0  0  0  0  0  0  0
    2.0327    0.4782    4.1229 C   0  0  0  0  0  0  0  0  0  0  0  0
    2.5651    0.1755    2.8320 C   0  0  0  0  0  0  0  0  0  0  0  0
    3.8515   -0.1366    2.8705 N   0  0  0  0  0  0  0  0  0  0  0  0
    4.3461   -0.0557    4.4112 S   0  0  0  0  0  0  0  0  0  0  0  0
    2.9398    0.3799    5.0820 N   0  0  0  0  0  0  0  0  0  0  0  0
    1.6962    0.2006    1.7207 C   0  0  0  0  0  0  0  0  0  0  0  0
    1.9536   -0.1519    0.3925 C   0  0  0  0  0  0  0  0  0  0  0  0
    3.2720   -0.6909   -0.5885 S   0  0  0  0  0  0  0  0  0  0  0  0
    2.1607   -0.8334   -1.9395 C   0  0  0  0  0  0  0  0  0  0  0  0
    2.3308   -1.2757   -3.2443 C   0  0  0  0  0  0  0  0  0  0  0  0
    3.6624   -1.6672   -3.7965 C   0  0  0  0  0  0  0  0  0  0  0  0
    4.3025   -0.5004   -4.5536 C   0  0  0  0  0  0  0  0  0  0  0  0
    1.1168   -1.2621   -3.9530 C   0  0  0  0  0  0  0  0  0  0  0  0
   -0.2224   -0.6736   -2.9659 S   0  0  0  0  0  0  0  0  0  0  0  0
    0.8417   -0.4624   -1.6260 C   0  0  0  0  0  0  0  0  0  0  0  0
    0.7384   -0.0625   -0.2903 C   0  0  0  0  0  0  0  0  0  0  0  0
   -0.2500    0.3457    0.5636 N   0  0  0  0  0  0  0  0  0  0  0  0
    0.3073    0.5380    1.8189 C   0  0  0  0  0  0  0  0  0  0  0  0
   -0.1913    0.9450    3.0940 C   0  0  0  0  0  0  0  0  0  0  0  0
   -1.4001    1.4564    3.5431 N   0  0  0  0  0  0  0  0  0  0  0  0
   -1.3235    1.6610    4.9061 C   0  0  0  0  0  0  0  0  0  0  0  0
   -2.1294    2.1431    5.9480 C   0  0  0  0  0  0  0  0  0  0  0  0
   -3.5178    2.7040    5.8438 C   0  0  0  0  0  0  0  0  0  0  0  0
   -3.4819    4.2273    5.6850 C   0  0  0  0  0  0  0  0  0  0  0  0
   -2.5948    1.7638    2.8009 C   0  0  0  0  0  0  0  0  0  0  0  0
   -3.6094    0.6189    2.8651 C   0  0  0  0  0  0  0  0  0  0  0  0
   -1.5794    0.4602    0.0077 C   0  0  0  0  0  0  0  0  0  0  0  0
   -1.7705    1.7895   -0.7234 C   0  0  0  0  0  0  0  0  0  0  0  0
    1.0019   -1.7025   -5.2755 C   0  0  0  0  0  0  0  0  0  0  0  0
   -0.0982   -1.8431   -6.0850 C   0  0  0  0  0  0  0  0  0  0  0  0
   -1.4883   -1.5622   -5.7194 C   0  0  0  0  0  0  0  0  0  0  0  0
   -1.8990   -1.0562   -4.6870 O   0  0  0  0  0  0  0  0  0  0  0  0
   -2.3156   -2.0223   -6.8472 C   0  0  0  0  0  0  0  0  0  0  0  0
   -3.7057   -2.0115   -6.9280 C   0  0  0  0  0  0  0  0  0  0  0  0
   -4.2018   -2.5350   -8.0978 C   0  0  0  0  0  0  0  0  0  0  0  0
   -3.3749   -3.0352   -9.1119 C   0  0  0  0  0  0  0  0  0  0  0  0
   -2.0016   -3.0495   -9.0453 C   0  0  0  0  0  0  0  0  0  0  0  0
   -1.4758   -2.5179   -7.8649 C   0  0  0  0  0  0  0  0  0  0  0  0
   -0.0859   -2.3774   -7.4317 C   0  0  0  0  0  0  0  0  0  0  0  0
    1.0142   -2.6824   -8.1933 C   0  0  0  0  0  0  0  0  0  0  0  0
    0.9605   -3.1890   -9.5085 C   0  0  0  0  0  0  0  0  0  0  0  0
    1.0010   -3.6038  -10.5787 N   0  0  0  0  0  0  0  0  0  0  0  0
    2.3591   -2.5199   -7.8020 C   0  0  0  0  0  0  0  0  0  0  0  0
    3.4800   -2.4179   -7.5679 N   0  0  0  0  0  0  0  0  0  0  0  0
   -4.5422   -3.4049   -9.9919 C   0  0  0  0  0  0  0  0  0  0  0  0
   -4.8649   -2.4782  -11.1898 C   0  0  0  0  0  0  0  0  0  0  0  0
   -4.3579   -1.1066  -10.8191 C   0  0  0  0  0  0  0  0  0  0  0  0
   -5.1412   -0.6309   -9.8605 C   0  0  0  0  0  0  0  0  0  0  0  0
   -6.1919   -1.6725   -9.5650 C   0  0  0  0  0  0  0  0  0  0  0  0
   -6.3725   -2.2797  -10.9655 C   0  0  0  0  0  0  0  0  0  0  0  0
   -5.4641   -2.8456   -8.8627 C   0  0  0  0  0  0  0  0  0  0  0  0
   -2.9776    2.9446    8.3292 H   0  0  0  0  0  0  0  0  0  0  0  0
    1.5815    1.0340   11.6338 H   0  0  0  0  0  0  0  0  0  0  0  0
    0.8164    1.4533   13.1995 H   0  0  0  0  0  0  0  0  0  0  0  0
    2.3588    3.3901   11.3960 H   0  0  0  0  0  0  0  0  0  0  0  0
    2.9758    2.6773   12.8906 H   0  0  0  0  0  0  0  0  0  0  0  0
    1.6118    3.7996   12.9510 H   0  0  0  0  0  0  0  0  0  0  0  0
    4.3073   -1.9478   -2.9613 H   0  0  0  0  0  0  0  0  0  0  0  0
    3.5743   -2.5258   -4.4638 H   0  0  0  0  0  0  0  0  0  0  0  0
    5.2766   -0.7975   -4.9307 H   0  0  0  0  0  0  0  0  0  0  0  0
    4.4275    0.3550   -3.8938 H   0  0  0  0  0  0  0  0  0  0  0  0
    3.6848   -0.2038   -5.3977 H   0  0  0  0  0  0  0  0  0  0  0  0
   -4.0474    2.2667    5.0001 H   0  0  0  0  0  0  0  0  0  0  0  0
   -4.0892    2.4487    6.7374 H   0  0  0  0  0  0  0  0  0  0  0  0
   -4.4920    4.6209    5.5991 H   0  0  0  0  0  0  0  0  0  0  0  0
   -2.9221    4.5098    4.7955 H   0  0  0  0  0  0  0  0  0  0  0  0
   -3.0010    4.6883    6.5438 H   0  0  0  0  0  0  0  0  0  0  0  0
   -2.3261    2.0044    1.7761 H   0  0  0  0  0  0  0  0  0  0  0  0
   -3.0325    2.6668    3.2321 H   0  0  0  0  0  0  0  0  0  0  0  0
   -3.1718   -0.3156    2.5200 H   0  0  0  0  0  0  0  0  0  0  0  0
   -4.4779    0.8515    2.2539 H   0  0  0  0  0  0  0  0  0  0  0  0
   -3.9362    0.4580    3.8895 H   0  0  0  0  0  0  0  0  0  0  0  0
   -2.3300    0.3049    0.7746 H   0  0  0  0  0  0  0  0  0  0  0  0
   -1.6872   -0.3490   -0.7218 H   0  0  0  0  0  0  0  0  0  0  0  0
   -1.5365    2.6380   -0.0827 H   0  0  0  0  0  0  0  0  0  0  0  0
   -1.1164    1.8310   -1.5901 H   0  0  0  0  0  0  0  0  0  0  0  0
   -2.7973    1.8767   -1.0666 H   0  0  0  0  0  0  0  0  0  0  0  0
    1.9457   -2.0100   -5.7047 H   0  0  0  0  0  0  0  0  0  0  0  0
   -4.3049   -1.6225   -6.1195 H   0  0  0  0  0  0  0  0  0  0  0  0
   -1.3821   -3.4440   -9.8329 H   0  0  0  0  0  0  0  0  0  0  0  0
   -4.6311   -4.4590  -10.2471 H   0  0  0  0  0  0  0  0  0  0  0  0
   -4.5477   -2.8623  -12.1554 H   0  0  0  0  0  0  0  0  0  0  0  0
   -3.4747   -0.6616  -11.2386 H   0  0  0  0  0  0  0  0  0  0  0  0
   -5.0432    0.2915   -9.3184 H   0  0  0  0  0  0  0  0  0  0  0  0
   -7.0842   -1.3229   -9.0522 H   0  0  0  0  0  0  0  0  0  0  0  0
   -6.8154   -1.5810  -11.6736 H   0  0  0  0  0  0  0  0  0  0  0  0
   -6.9373   -3.2110  -10.9651 H   0  0  0  0  0  0  0  0  0  0  0  0
   -6.1560   -3.5347   -8.3819 H   0  0  0  0  0  0  0  0  0  0  0  0
  1  2  2  0  0  0  0
  2  3  1  0  0  0  0
  3  4  1  0  0  0  0
  4  5  2  0  0  0  0
  4  6  1  0  0  0  0
  6  7  1  0  0  0  0
  7  8  1  0  0  0  0
  6  9  1  0  0  0  0
  9 10  2  0  0  0  0
  1 11  1  0  0  0  0
 11 12  1  0  0  0  0
 12 13  1  0  0  0  0
 13 14  1  0  0  0  0
 14 15  1  0  0  0  0
 15 16  1  0  0  0  0
 16 17  2  0  0  0  0
 17 18  1  0  0  0  0
 18 19  1  0  0  0  0
 16 20  1  0  0  0  0
 20 21  1  0  0  0  0
 21 22  1  0  0  0  0
 22 23  1  0  0  0  0
 23 24  1  0  0  0  0
 24 25  1  0  0  0  0
 25 26  1  0  0  0  0
 24 27  2  0  0  0  0
 27 28  1  0  0  0  0
 28 29  1  0  0  0  0
 29 30  1  0  0  0  0
 30 31  1  0  0  0  0
 31 32  1  0  0  0  0
 32 33  1  0  0  0  0
 33 34  1  0  0  0  0
 34 35  1  0  0  0  0
 35 36  1  0  0  0  0
 36 37  1  0  0  0  0
 37 38  1  0  0  0  0
 34 39  1  0  0  0  0
 39 40  1  0  0  0  0
 31 41  1  0  0  0  0
 41 42  1  0  0  0  0
 27 43  1  0  0  0  0
 43 44  2  0  0  0  0
 44 45  1  0  0  0  0
 45 46  2  0  0  0  0
 45 47  1  0  0  0  0
 47 48  2  0  0  0  0
 48 49  1  0  0  0  0
 49 50  2  0  0  0  0
 50 51  1  0  0  0  0
 51 52  2  0  0  0  0
 52 53  1  0  0  0  0
 53 54  2  0  0  0  0
 54 55  1  0  0  0  0
 55 56  3  0  0  0  0
 54 57  1  0  0  0  0
 57 58  3  0  0  0  0
 50 59  1  0  0  0  0
 59 60  1  0  0  0  0
 60 61  1  0  0  0  0
 61 62  2  0  0  0  0
 62 63  1  0  0  0  0
 63 64  1  0  0  0  0
 63 65  1  0  0  0  0
  9  2  1  0  0  0  0
 36 11  2  0  0  0  0
 53 44  1  0  0  0  0
 65 59  1  0  0  0  0
 35 13  2  0  0  0  0
 52 47  1  0  0  0  0
 64 60  1  0  0  0  0
 33 14  2  0  0  0  0
 65 49  1  0  0  0  0
 19 15  2  0  0  0  0
 32 20  2  0  0  0  0
 30 21  2  0  0  0  0
 29 23  2  0  0  0  0
  1 66  1  0  0  0  0
  7 67  1  0  0  0  0
  7 68  1  0  0  0  0
  8 69  1  0  0  0  0
  8 70  1  0  0  0  0
  8 71  1  0  0  0  0
 25 72  1  0  0  0  0
 25 73  1  0  0  0  0
 26 74  1  0  0  0  0
 26 75  1  0  0  0  0
 26 76  1  0  0  0  0
 37 77  1  0  0  0  0
 37 78  1  0  0  0  0
 38 79  1  0  0  0  0
 38 80  1  0  0  0  0
 38 81  1  0  0  0  0
 39 82  1  0  0  0  0
 39 83  1  0  0  0  0
 40 84  1  0  0  0  0
 40 85  1  0  0  0  0
 40 86  1  0  0  0  0
 41 87  1  0  0  0  0
 41 88  1  0  0  0  0
 42 89  1  0  0  0  0
 42 90  1  0  0  0  0
 42 91  1  0  0  0  0
 43 92  1  0  0  0  0
 48 93  1  0  0  0  0
 51 94  1  0  0  0  0
 59 95  1  0  0  0  0
 60 96  1  0  0  0  0
 61 97  1  0  0  0  0
 62 98  1  0  0  0  0
 63 99  1  0  0  0  0
 64100  1  0  0  0  0
 64101  1  0  0  0  0
 65102  1  0  0  0  0
M  END
