102

C         -1.97470        2.54160        8.39080
C         -1.45920        2.54660        9.65170
S         -2.41660        3.17130       10.99490
C         -1.13210        2.78970       12.17360
O         -1.20870        2.99580       13.35040
N         -0.08400        2.22590       11.50760
C          1.11980        1.83150       12.22070
C          2.07840        3.00480       12.37370
C         -0.17640        2.07180       10.13290
O          0.72140        1.58410        9.47610
C         -1.42900        2.10620        7.16640
S          0.21030        1.47820        7.01690
C         -0.04260        1.28750        5.33980
C          0.67910        0.86310        4.21830
C          2.03270        0.47820        4.12290
C          2.56510        0.17550        2.83200
N          3.85150       -0.13660        2.87050
S          4.34610       -0.05570        4.41120
N          2.93980        0.37990        5.08200
C          1.69620        0.20060        1.72070
C          1.95360       -0.15190        0.39250
S          3.27200       -0.69090       -0.58850
C          2.16070       -0.83340       -1.93950
C          2.33080       -1.27570       -3.24430
C          3.66240       -1.66720       -3.79650
C          4.30250       -0.50040       -4.55360
C          1.11680       -1.26210       -3.95300
S         -0.22240       -0.67360       -2.96590
C          0.84170       -0.46240       -1.62600
C          0.73840       -0.06250       -0.29030
N         -0.25000        0.34570        0.56360
C          0.30730        0.53800        1.81890
C         -0.19130        0.94500        3.09400
N         -1.40010        1.45640        3.54310
C         -1.32350        1.66100        4.90610
C         -2.12940        2.14310        5.94800
C         -3.51780        2.70400        5.84380
C         -3.48190        4.22730        5.68500
C         -2.59480        1.76380        2.80090
C         -3.60940        0.61890        2.86510
C         -1.57940        0.46020        0.00770
C         -1.77050        1.78950       -0.72340
C          1.00190       -1.70250       -5.27550
C         -0.09820       -1.84310       -6.08500
C         -1.48830       -1.56220       -5.71940
O         -1.89900       -1.05620       -4.68700
C         -2.31560       -2.02230       -6.84720
C         -3.70570       -2.01150       -6.92800
C         -4.20180       -2.53500       -8.09780
C         -3.37490       -3.03520       -9.11190
C         -2.00160       -3.04950       -9.04530
C         -1.47580       -2.51790       -7.86490
C         -0.08590       -2.37740       -7.43170
C          1.01420       -2.68240       -8.19330
C          0.96050       -3.18900       -9.50850
N          1.00100       -3.60380      -10.57870
C          2.35910       -2.51990       -7.80200
N          3.48000       -2.41790       -7.56790
C         -4.54220       -3.40490       -9.99190
C         -4.86490       -2.47820      -11.18980
C         -4.35790       -1.10660      -10.81910
C         -5.14120       -0.63090       -9.86050
C         -6.19190       -1.67250       -9.56500
C         -6.37250       -2.27970      -10.96550
C         -5.46410       -2.84560       -8.86270
H         -2.97760        2.94460        8.32920
H          1.58150        1.03400       11.63380
H          0.81640        1.45330       13.19950
H          2.35880        3.39010       11.39600
H          2.97580        2.67730       12.89060
H          1.61180        3.79960       12.95100
H          4.30730       -1.94780       -2.96130
H          3.57430       -2.52580       -4.46380
H          5.27660       -0.79750       -4.93070
H          4.42750        0.35500       -3.89380
H          3.68480       -0.20380       -5.39770
H         -4.04740        2.26670        5.00010
H         -4.08920        2.44870        6.73740
H         -4.49200        4.62090        5.59910
H         -2.92210        4.50980        4.79550
H         -3.00100        4.68830        6.54380
H         -2.32610        2.00440        1.77610
H         -3.03250        2.66680        3.23210
H         -3.17180       -0.31560        2.52000
H         -4.47790        0.85150        2.25390
H         -3.93620        0.45800        3.88950
H         -2.33000        0.30490        0.77460
H         -1.68720       -0.34900       -0.72180
H         -1.53650        2.63800       -0.08270
H         -1.11640        1.83100       -1.59010
H         -2.79730        1.87670       -1.06660
H          1.94570       -2.01000       -5.70470
H         -4.30490       -1.62250       -6.11950
H         -1.38210       -3.44400       -9.83290
H         -4.63110       -4.45900      -10.24710
H         -4.54770       -2.86230      -12.15540
H         -3.47470       -0.66160      -11.23860
H         -5.04320        0.29150       -9.31840
H         -7.08420       -1.32290       -9.05220
H         -6.81540       -1.58100      -11.67360
H         -6.93730       -3.21100      -10.96510
H         -6.15600       -3.53470       -8.38190
