
  xtb     02012216093D
 energy: -257.585365634280 gnorm: 0.000611118368 xtb: 6.4.1 (unknown)
154169  0     0  0            999 V2000
    8.2943   -1.3756    6.2239 C   0  0  0  0  0  0  0  0  0  0  0  0
    9.2538   -0.5553    6.7415 C   0  0  0  0  0  0  0  0  0  0  0  0
   10.5661   -1.2772    7.6779 S   0  0  0  0  0  0  0  0  0  0  0  0
   11.3396    0.3034    7.9480 C   0  0  0  0  0  0  0  0  0  0  0  0
   12.3510    0.4726    8.5675 O   0  0  0  0  0  0  0  0  0  0  0  0
   10.5829    1.2652    7.3448 N   0  0  0  0  0  0  0  0  0  0  0  0
   11.0047    2.6556    7.3801 C   0  0  0  0  0  0  0  0  0  0  0  0
   11.9994    2.9561    6.2664 C   0  0  0  0  0  0  0  0  0  0  0  0
    9.4330    0.8867    6.6665 C   0  0  0  0  0  0  0  0  0  0  0  0
    8.7218    1.7060    6.1181 O   0  0  0  0  0  0  0  0  0  0  0  0
    7.1559   -1.1046    5.4415 C   0  0  0  0  0  0  0  0  0  0  0  0
    6.1939   -2.5163    4.9562 S   0  0  0  0  0  0  0  0  0  0  0  0
    5.1042   -1.5001    4.1024 C   0  0  0  0  0  0  0  0  0  0  0  0
    3.9617   -1.5368    3.3101 C   0  0  0  0  0  0  0  0  0  0  0  0
    2.8704   -2.6916    2.6170 S   0  0  0  0  0  0  0  0  0  0  0  0
    2.0363   -1.3819    1.8481 C   0  0  0  0  0  0  0  0  0  0  0  0
    0.9275   -1.3123    0.9498 C   0  0  0  0  0  0  0  0  0  0  0  0
    0.7211    0.0525    0.6517 C   0  0  0  0  0  0  0  0  0  0  0  0
    1.7092    0.9306    1.4145 C   0  0  0  0  0  0  0  0  0  0  0  0
    0.9771    1.7304    2.4856 C   0  0  0  0  0  0  0  0  0  0  0  0
    1.3256    3.0324    2.8242 C   0  0  0  0  0  0  0  0  0  0  0  0
    0.6593    3.7040    3.8277 C   0  0  0  0  0  0  0  0  0  0  0  0
   -0.3765    3.0940    4.5358 C   0  0  0  0  0  0  0  0  0  0  0  0
   -0.9410    3.8494    5.5142 O   0  0  0  0  0  0  0  0  0  0  0  0
   -2.0699    3.3680    6.2165 C   0  0  0  0  0  0  0  0  0  0  0  0
   -3.3545    3.4623    5.3987 C   0  0  0  0  0  0  0  0  0  0  0  0
   -0.7204    1.7858    4.2098 C   0  0  0  0  0  0  0  0  0  0  0  0
   -0.0450    1.1219    3.2021 C   0  0  0  0  0  0  0  0  0  0  0  0
    2.4796    1.7808    0.4277 C   0  0  0  0  0  0  0  0  0  0  0  0
    1.8938    2.9032   -0.1423 C   0  0  0  0  0  0  0  0  0  0  0  0
    2.5658    3.6747   -1.0738 C   0  0  0  0  0  0  0  0  0  0  0  0
    3.8554    3.3297   -1.4647 C   0  0  0  0  0  0  0  0  0  0  0  0
    4.6131    4.0131   -2.3594 O   0  0  0  0  0  0  0  0  0  0  0  0
    4.0792    5.1731   -2.9676 C   0  0  0  0  0  0  0  0  0  0  0  0
    5.1331    5.7248   -3.9143 C   0  0  0  0  0  0  0  0  0  0  0  0
    4.4423    2.1927   -0.9077 C   0  0  0  0  0  0  0  0  0  0  0  0
    3.7619    1.4303    0.0170 C   0  0  0  0  0  0  0  0  0  0  0  0
    2.5455   -0.1215    2.1103 C   0  0  0  0  0  0  0  0  0  0  0  0
    3.6612   -0.1942    2.9536 C   0  0  0  0  0  0  0  0  0  0  0  0
    4.5996    0.6399    3.4953 N   0  0  0  0  0  0  0  0  0  0  0  0
    5.4780   -0.1364    4.2058 C   0  0  0  0  0  0  0  0  0  0  0  0
    6.6278    0.0802    4.9548 C   0  0  0  0  0  0  0  0  0  0  0  0
    4.6509    2.0780    3.4337 C   0  0  0  0  0  0  0  0  0  0  0  0
    4.1001    2.7085    4.7099 C   0  0  0  0  0  0  0  0  0  0  0  0
   -0.2757    0.4345   -0.2134 C   0  0  0  0  0  0  0  0  0  0  0  0
   -1.0549   -0.5745   -0.7729 C   0  0  0  0  0  0  0  0  0  0  0  0
   -2.1477   -0.5045   -1.6902 C   0  0  0  0  0  0  0  0  0  0  0  0
   -2.6401   -1.7666   -1.9751 C   0  0  0  0  0  0  0  0  0  0  0  0
   -1.8673   -2.8150   -1.2048 C   0  0  0  0  0  0  0  0  0  0  0  0
   -0.8576   -1.9386   -0.4654 C   0  0  0  0  0  0  0  0  0  0  0  0
    0.1364   -2.3195    0.4045 C   0  0  0  0  0  0  0  0  0  0  0  0
   -1.1135   -3.7840   -2.0933 C   0  0  0  0  0  0  0  0  0  0  0  0
   -1.0121   -3.5864   -3.4614 C   0  0  0  0  0  0  0  0  0  0  0  0
   -0.2886   -4.4515   -4.2667 C   0  0  0  0  0  0  0  0  0  0  0  0
    0.3655   -5.5422   -3.7075 C   0  0  0  0  0  0  0  0  0  0  0  0
    1.0993   -6.4555   -4.3919 O   0  0  0  0  0  0  0  0  0  0  0  0
    1.2620   -6.3011   -5.7881 C   0  0  0  0  0  0  0  0  0  0  0  0
    2.1488   -7.4350   -6.2771 C   0  0  0  0  0  0  0  0  0  0  0  0
    0.2765   -5.7407   -2.3277 C   0  0  0  0  0  0  0  0  0  0  0  0
   -0.4463   -4.8752   -1.5387 C   0  0  0  0  0  0  0  0  0  0  0  0
   -2.8100   -3.4819   -0.2133 C   0  0  0  0  0  0  0  0  0  0  0  0
   -3.2157   -4.8018   -0.3186 C   0  0  0  0  0  0  0  0  0  0  0  0
   -4.1021   -5.3592    0.5897 C   0  0  0  0  0  0  0  0  0  0  0  0
   -4.6179   -4.5924    1.6270 C   0  0  0  0  0  0  0  0  0  0  0  0
   -5.5090   -5.0103    2.5634 O   0  0  0  0  0  0  0  0  0  0  0  0
   -5.9075   -6.3657    2.6050 C   0  0  0  0  0  0  0  0  0  0  0  0
   -4.8469   -7.2712    3.2245 C   0  0  0  0  0  0  0  0  0  0  0  0
   -4.2220   -3.2559    1.7274 C   0  0  0  0  0  0  0  0  0  0  0  0
   -3.3368   -2.7146    0.8240 C   0  0  0  0  0  0  0  0  0  0  0  0
   -3.7099   -1.6968   -2.8748 C   0  0  0  0  0  0  0  0  0  0  0  0
   -3.9889   -0.3569   -3.2571 C   0  0  0  0  0  0  0  0  0  0  0  0
   -2.9499    0.8029   -2.4964 S   0  0  0  0  0  0  0  0  0  0  0  0
   -5.0395   -0.4079   -4.1656 C   0  0  0  0  0  0  0  0  0  0  0  0
   -6.0290    0.6065   -5.1372 S   0  0  0  0  0  0  0  0  0  0  0  0
   -6.8945   -0.8064   -5.7542 C   0  0  0  0  0  0  0  0  0  0  0  0
   -6.3955   -1.9927   -5.2398 C   0  0  0  0  0  0  0  0  0  0  0  0
   -5.3727   -1.7753   -4.3244 C   0  0  0  0  0  0  0  0  0  0  0  0
   -4.5471   -2.5451   -3.5458 N   0  0  0  0  0  0  0  0  0  0  0  0
   -4.6868   -3.9651   -3.3539 C   0  0  0  0  0  0  0  0  0  0  0  0
   -5.8277   -4.2814   -2.3899 C   0  0  0  0  0  0  0  0  0  0  0  0
   -7.8911   -0.6940   -6.7472 C   0  0  0  0  0  0  0  0  0  0  0  0
   -8.6441    0.3891   -7.0853 C   0  0  0  0  0  0  0  0  0  0  0  0
   -9.2541    0.4845   -8.4441 C   0  0  0  0  0  0  0  0  0  0  0  0
   -9.3569   -0.4071   -9.2563 O   0  0  0  0  0  0  0  0  0  0  0  0
   -9.6425    1.8982   -8.5740 C   0  0  0  0  0  0  0  0  0  0  0  0
  -10.1904    2.7487   -9.5496 C   0  0  0  0  0  0  0  0  0  0  0  0
  -10.3548    4.0109   -9.0614 C   0  0  0  0  0  0  0  0  0  0  0  0
   -9.8656    4.1920   -7.4138 S   0  0  0  0  0  0  0  0  0  0  0  0
   -9.4047    2.5441   -7.3681 C   0  0  0  0  0  0  0  0  0  0  0  0
   -8.9096    1.6268   -6.3756 C   0  0  0  0  0  0  0  0  0  0  0  0
   -8.9646    1.8258   -5.0183 C   0  0  0  0  0  0  0  0  0  0  0  0
   -9.3189    3.0766   -4.4776 C   0  0  0  0  0  0  0  0  0  0  0  0
   -9.5956    4.0988   -4.0348 N   0  0  0  0  0  0  0  0  0  0  0  0
   -8.7945    0.7959   -4.0737 C   0  0  0  0  0  0  0  0  0  0  0  0
   -8.7285   -0.0367   -3.2857 N   0  0  0  0  0  0  0  0  0  0  0  0
    8.4331   -2.4279    6.4466 H   0  0  0  0  0  0  0  0  0  0  0  0
   11.4573    2.8402    8.3567 H   0  0  0  0  0  0  0  0  0  0  0  0
   10.1017    3.2591    7.2626 H   0  0  0  0  0  0  0  0  0  0  0  0
   11.5498    2.7565    5.2962 H   0  0  0  0  0  0  0  0  0  0  0  0
   12.2913    4.0016    6.3089 H   0  0  0  0  0  0  0  0  0  0  0  0
   12.8879    2.3397    6.3809 H   0  0  0  0  0  0  0  0  0  0  0  0
    2.1198    3.5410    2.2996 H   0  0  0  0  0  0  0  0  0  0  0  0
    0.9304    4.7147    4.0885 H   0  0  0  0  0  0  0  0  0  0  0  0
   -1.9014    2.3414    6.5645 H   0  0  0  0  0  0  0  0  0  0  0  0
   -2.1392    4.0192    7.0923 H   0  0  0  0  0  0  0  0  0  0  0  0
   -3.5204    4.4920    5.0920 H   0  0  0  0  0  0  0  0  0  0  0  0
   -3.2945    2.8442    4.5062 H   0  0  0  0  0  0  0  0  0  0  0  0
   -4.1970    3.1331    6.0006 H   0  0  0  0  0  0  0  0  0  0  0  0
   -1.5076    1.2654    4.7319 H   0  0  0  0  0  0  0  0  0  0  0  0
   -0.3284    0.1052    2.9717 H   0  0  0  0  0  0  0  0  0  0  0  0
    0.8978    3.1979    0.1521 H   0  0  0  0  0  0  0  0  0  0  0  0
    2.0714    4.5402   -1.4858 H   0  0  0  0  0  0  0  0  0  0  0  0
    3.1649    4.9210   -3.5227 H   0  0  0  0  0  0  0  0  0  0  0  0
    3.8303    5.9199   -2.2006 H   0  0  0  0  0  0  0  0  0  0  0  0
    4.7614    6.6233   -4.3983 H   0  0  0  0  0  0  0  0  0  0  0  0
    5.3752    4.9844   -4.6717 H   0  0  0  0  0  0  0  0  0  0  0  0
    6.0381    5.9638   -3.3626 H   0  0  0  0  0  0  0  0  0  0  0  0
    5.4388    1.9243   -1.2207 H   0  0  0  0  0  0  0  0  0  0  0  0
    4.2381    0.5499    0.4219 H   0  0  0  0  0  0  0  0  0  0  0  0
    7.0832    1.0320    5.1511 H   0  0  0  0  0  0  0  0  0  0  0  0
    5.6950    2.3743    3.2940 H   0  0  0  0  0  0  0  0  0  0  0  0
    4.0764    2.3989    2.5634 H   0  0  0  0  0  0  0  0  0  0  0  0
    3.0650    2.4120    4.8624 H   0  0  0  0  0  0  0  0  0  0  0  0
    4.6878    2.3929    5.5684 H   0  0  0  0  0  0  0  0  0  0  0  0
    4.1441    3.7911    4.6366 H   0  0  0  0  0  0  0  0  0  0  0  0
   -0.4636    1.4664   -0.4630 H   0  0  0  0  0  0  0  0  0  0  0  0
    0.3149   -3.3488    0.6700 H   0  0  0  0  0  0  0  0  0  0  0  0
   -1.4994   -2.7415   -3.9247 H   0  0  0  0  0  0  0  0  0  0  0  0
   -0.2420   -4.2566   -5.3266 H   0  0  0  0  0  0  0  0  0  0  0  0
    1.7297   -5.3313   -6.0079 H   0  0  0  0  0  0  0  0  0  0  0  0
    0.2840   -6.3409   -6.2885 H   0  0  0  0  0  0  0  0  0  0  0  0
    3.1124   -7.3929   -5.7771 H   0  0  0  0  0  0  0  0  0  0  0  0
    1.6848   -8.3917   -6.0534 H   0  0  0  0  0  0  0  0  0  0  0  0
    2.2983   -7.3520   -7.3497 H   0  0  0  0  0  0  0  0  0  0  0  0
    0.7904   -6.5858   -1.8979 H   0  0  0  0  0  0  0  0  0  0  0  0
   -0.5027   -5.0578   -0.4767 H   0  0  0  0  0  0  0  0  0  0  0  0
   -2.8405   -5.4286   -1.1138 H   0  0  0  0  0  0  0  0  0  0  0  0
   -4.3823   -6.3929    0.4624 H   0  0  0  0  0  0  0  0  0  0  0  0
   -6.8042   -6.3640    3.2309 H   0  0  0  0  0  0  0  0  0  0  0  0
   -6.1882   -6.7181    1.6046 H   0  0  0  0  0  0  0  0  0  0  0  0
   -3.9343   -7.2634    2.6335 H   0  0  0  0  0  0  0  0  0  0  0  0
   -4.6085   -6.9250    4.2269 H   0  0  0  0  0  0  0  0  0  0  0  0
   -5.2223   -8.2891    3.2823 H   0  0  0  0  0  0  0  0  0  0  0  0
   -4.6312   -2.6612    2.5285 H   0  0  0  0  0  0  0  0  0  0  0  0
   -3.0472   -1.6787    0.9220 H   0  0  0  0  0  0  0  0  0  0  0  0
   -6.8012   -2.9506   -5.5108 H   0  0  0  0  0  0  0  0  0  0  0  0
   -3.7403   -4.3473   -2.9680 H   0  0  0  0  0  0  0  0  0  0  0  0
   -4.8792   -4.4242   -4.3286 H   0  0  0  0  0  0  0  0  0  0  0  0
   -6.7655   -3.8839   -2.7708 H   0  0  0  0  0  0  0  0  0  0  0  0
   -5.9239   -5.3565   -2.2685 H   0  0  0  0  0  0  0  0  0  0  0  0
   -5.6318   -3.8363   -1.4175 H   0  0  0  0  0  0  0  0  0  0  0  0
   -8.0185   -1.5628   -7.3862 H   0  0  0  0  0  0  0  0  0  0  0  0
  -10.4494    2.4455  -10.5470 H   0  0  0  0  0  0  0  0  0  0  0  0
  -10.7496    4.8655   -9.5754 H   0  0  0  0  0  0  0  0  0  0  0  0
  1  2  2  0  0  0  0
  2  3  1  0  0  0  0
  3  4  1  0  0  0  0
  4  5  2  0  0  0  0
  4  6  1  0  0  0  0
  6  7  1  0  0  0  0
  7  8  1  0  0  0  0
  6  9  1  0  0  0  0
  9 10  2  0  0  0  0
  1 11  1  0  0  0  0
 11 12  1  0  0  0  0
 12 13  1  0  0  0  0
 13 14  1  0  0  0  0
 14 15  1  0  0  0  0
 15 16  1  0  0  0  0
 16 17  1  0  0  0  0
 17 18  2  0  0  0  0
 18 19  1  0  0  0  0
 19 20  1  0  0  0  0
 20 21  2  0  0  0  0
 21 22  1  0  0  0  0
 22 23  2  0  0  0  0
 23 24  1  0  0  0  0
 24 25  1  0  0  0  0
 25 26  1  0  0  0  0
 23 27  1  0  0  0  0
 27 28  2  0  0  0  0
 19 29  1  0  0  0  0
 29 30  2  0  0  0  0
 30 31  1  0  0  0  0
 31 32  2  0  0  0  0
 32 33  1  0  0  0  0
 33 34  1  0  0  0  0
 34 35  1  0  0  0  0
 32 36  1  0  0  0  0
 36 37  2  0  0  0  0
 19 38  1  0  0  0  0
 38 39  1  0  0  0  0
 39 40  1  0  0  0  0
 40 41  1  0  0  0  0
 41 42  1  0  0  0  0
 40 43  1  0  0  0  0
 43 44  1  0  0  0  0
 18 45  1  0  0  0  0
 45 46  2  0  0  0  0
 46 47  1  0  0  0  0
 47 48  2  0  0  0  0
 48 49  1  0  0  0  0
 49 50  1  0  0  0  0
 50 51  2  0  0  0  0
 49 52  1  0  0  0  0
 52 53  2  0  0  0  0
 53 54  1  0  0  0  0
 54 55  2  0  0  0  0
 55 56  1  0  0  0  0
 56 57  1  0  0  0  0
 57 58  1  0  0  0  0
 55 59  1  0  0  0  0
 59 60  2  0  0  0  0
 49 61  1  0  0  0  0
 61 62  2  0  0  0  0
 62 63  1  0  0  0  0
 63 64  2  0  0  0  0
 64 65  1  0  0  0  0
 65 66  1  0  0  0  0
 66 67  1  0  0  0  0
 64 68  1  0  0  0  0
 68 69  2  0  0  0  0
 48 70  1  0  0  0  0
 70 71  2  0  0  0  0
 71 72  1  0  0  0  0
 71 73  1  0  0  0  0
 73 74  1  0  0  0  0
 74 75  1  0  0  0  0
 75 76  2  0  0  0  0
 76 77  1  0  0  0  0
 77 78  1  0  0  0  0
 78 79  1  0  0  0  0
 79 80  1  0  0  0  0
 75 81  1  0  0  0  0
 81 82  2  0  0  0  0
 82 83  1  0  0  0  0
 83 84  2  0  0  0  0
 83 85  1  0  0  0  0
 85 86  1  0  0  0  0
 86 87  2  0  0  0  0
 87 88  1  0  0  0  0
 88 89  1  0  0  0  0
 89 90  1  0  0  0  0
 90 91  2  0  0  0  0
 91 92  1  0  0  0  0
 92 93  3  0  0  0  0
 91 94  1  0  0  0  0
 94 95  3  0  0  0  0
  9  2  1  0  0  0  0
 42 11  2  0  0  0  0
 50 46  1  0  0  0  0
 60 52  1  0  0  0  0
 69 61  1  0  0  0  0
 78 70  1  0  0  0  0
 90 82  1  0  0  0  0
 41 13  2  0  0  0  0
 72 47  1  0  0  0  0
 77 73  2  0  0  0  0
 89 85  2  0  0  0  0
 39 14  2  0  0  0  0
 38 16  2  0  0  0  0
 51 17  1  0  0  0  0
 28 20  1  0  0  0  0
 37 29  1  0  0  0  0
  1 96  1  0  0  0  0
  7 97  1  0  0  0  0
  7 98  1  0  0  0  0
  8 99  1  0  0  0  0
  8100  1  0  0  0  0
  8101  1  0  0  0  0
 21102  1  0  0  0  0
 22103  1  0  0  0  0
 25104  1  0  0  0  0
 25105  1  0  0  0  0
 26106  1  0  0  0  0
 26107  1  0  0  0  0
 26108  1  0  0  0  0
 27109  1  0  0  0  0
 28110  1  0  0  0  0
 30111  1  0  0  0  0
 31112  1  0  0  0  0
 34113  1  0  0  0  0
 34114  1  0  0  0  0
 35115  1  0  0  0  0
 35116  1  0  0  0  0
 35117  1  0  0  0  0
 36118  1  0  0  0  0
 37119  1  0  0  0  0
 42120  1  0  0  0  0
 43121  1  0  0  0  0
 43122  1  0  0  0  0
 44123  1  0  0  0  0
 44124  1  0  0  0  0
 44125  1  0  0  0  0
 45126  1  0  0  0  0
 51127  1  0  0  0  0
 53128  1  0  0  0  0
 54129  1  0  0  0  0
 57130  1  0  0  0  0
 57131  1  0  0  0  0
 58132  1  0  0  0  0
 58133  1  0  0  0  0
 58134  1  0  0  0  0
 59135  1  0  0  0  0
 60136  1  0  0  0  0
 62137  1  0  0  0  0
 63138  1  0  0  0  0
 66139  1  0  0  0  0
 66140  1  0  0  0  0
 67141  1  0  0  0  0
 67142  1  0  0  0  0
 67143  1  0  0  0  0
 68144  1  0  0  0  0
 69145  1  0  0  0  0
 76146  1  0  0  0  0
 79147  1  0  0  0  0
 79148  1  0  0  0  0
 80149  1  0  0  0  0
 80150  1  0  0  0  0
 80151  1  0  0  0  0
 81152  1  0  0  0  0
 86153  1  0  0  0  0
 87154  1  0  0  0  0
M  END
