61

C          0.65190       -5.28080        0.58090
C          1.80750       -5.65170       -0.01710
S          3.00850       -4.62630       -0.76090
C          4.03830       -6.04450       -1.16720
O          5.09020       -5.96360       -1.72730
N          3.42770       -7.18260       -0.72670
C          4.03490       -8.48410       -0.95920
C          3.71320       -8.99800       -2.35600
C          2.20370       -7.06520       -0.09530
O          1.57380       -8.00250        0.33310
C          0.13700       -3.97350        0.75390
S          0.95560       -2.54310        0.16160
C         -0.29400       -1.52930        0.79670
C         -0.36860       -0.13720        0.72860
C         -1.45630        0.54980        1.31080
C         -2.48330       -0.19070        1.96500
C         -3.64690        0.27930        2.60760
C         -4.42210       -0.72250        3.12780
C         -5.68570       -0.52930        3.84420
O         -6.08320        0.58470        4.10760
C         -6.46390       -1.77900        4.18600
C         -7.23200       -2.25510        2.95030
S         -3.72460       -2.29490        2.84300
C         -2.38720       -1.58670        2.01420
C         -1.30080       -2.28130        1.43950
C         -1.03800       -3.65990        1.40120
C         -1.33750        1.93030        1.13660
C         -0.20010        2.31090        0.43980
S          0.76840        0.92810       -0.02200
C          0.08370        3.66840        0.16900
C          1.12470        4.23790       -0.50050
C          2.26000        3.52660       -1.13790
O          2.45560        2.32800       -1.15750
C          3.09060        4.57620       -1.73620
C          4.27880        4.67250       -2.47940
C          4.56890        5.97420       -2.76540
S          3.41750        7.10210       -2.14480
C          2.50950        5.81110       -1.47800
C          1.29800        5.67190       -0.71800
C          0.50860        6.71540       -0.30830
C         -0.67780        6.61410        0.44280
N         -1.64890        6.60230        1.05580
C          0.85490        8.04610       -0.62940
N          1.13040        9.12910       -0.88910
H          0.05200       -6.08960        0.98270
H          3.62920       -9.15510       -0.19860
H          5.11410       -8.37670       -0.82970
H          4.11110       -8.32010       -3.10770
H          2.63690       -9.08480       -2.48730
H          4.16210       -9.97710       -2.49620
H         -3.92520        1.31380        2.69300
H         -5.78760       -2.56430        4.52800
H         -7.16960       -1.53700        4.98170
H         -7.83140       -3.12680        3.19950
H         -7.89390       -1.46880        2.59470
H         -6.54830       -2.52360        2.14810
H         -1.68620       -4.39920        1.83700
H         -2.05290        2.64510        1.50240
H         -0.66690        4.34160        0.56750
H          4.87900        3.83460       -2.78220
H          5.40890        6.35020       -3.31660
