
  xtb     02112204173D
 energy: -182.265719878560 gnorm: 0.000794171851 xtb: 6.4.1 (unknown)
105118  0     0  0            999 V2000
    2.3643   -1.7413   -9.0959 C   0  0  0  0  0  0  0  0  0  0  0  0
    2.1023   -0.4623   -9.4882 C   0  0  0  0  0  0  0  0  0  0  0  0
    2.3554    0.0358  -11.1603 S   0  0  0  0  0  0  0  0  0  0  0  0
    1.8085    1.6954  -10.8125 C   0  0  0  0  0  0  0  0  0  0  0  0
    1.7472    2.5766  -11.6207 O   0  0  0  0  0  0  0  0  0  0  0  0
    1.4689    1.7781   -9.4911 N   0  0  0  0  0  0  0  0  0  0  0  0
    1.0091    3.0360   -8.9269 C   0  0  0  0  0  0  0  0  0  0  0  0
    2.1821    3.9310   -8.5485 C   0  0  0  0  0  0  0  0  0  0  0  0
    1.6066    0.6487   -8.7051 C   0  0  0  0  0  0  0  0  0  0  0  0
    1.3213    0.6437   -7.5201 O   0  0  0  0  0  0  0  0  0  0  0  0
    2.2458   -2.3546   -7.8371 C   0  0  0  0  0  0  0  0  0  0  0  0
    2.5669   -3.6924   -7.5851 C   0  0  0  0  0  0  0  0  0  0  0  0
    3.1194   -4.6645   -8.5770 C   0  0  0  0  0  0  0  0  0  0  0  0
    4.6382   -4.5169   -8.6909 C   0  0  0  0  0  0  0  0  0  0  0  0
    2.3683   -4.0284   -6.2487 C   0  0  0  0  0  0  0  0  0  0  0  0
    2.6120   -5.6448   -5.2837 Se  0  0  0  0  0  2  0  0  0  0  0  0
    2.0045   -4.6591   -3.8275 C   0  0  0  0  0  0  0  0  0  0  0  0
    1.7270   -4.8510   -2.4707 C   0  0  0  0  0  0  0  0  0  0  0  0
    1.7822   -6.0320   -1.7012 C   0  0  0  0  0  0  0  0  0  0  0  0
    1.3484   -5.9835   -0.3409 C   0  0  0  0  0  0  0  0  0  0  0  0
    1.4099   -7.1621    0.2578 N   0  0  0  0  0  0  0  0  0  0  0  0
    1.9725   -8.2450   -0.8112 S   0  0  0  0  0  0  0  0  0  0  0  0
    2.1562   -7.2450   -2.0758 N   0  0  0  0  0  0  0  0  0  0  0  0
    0.9650   -4.7393    0.2022 C   0  0  0  0  0  0  0  0  0  0  0  0
    0.6057   -4.4142    1.5133 C   0  0  0  0  0  0  0  0  0  0  0  0
    0.3568   -5.2688    3.1466 Se  0  0  0  0  0  2  0  0  0  0  0  0
    0.0047   -3.5197    3.7995 C   0  0  0  0  0  0  0  0  0  0  0  0
   -0.3111   -3.0380    5.0628 C   0  0  0  0  0  0  0  0  0  0  0  0
   -0.4977   -3.9411    6.2381 C   0  0  0  0  0  0  0  0  0  0  0  0
   -1.9761   -4.2912    6.4224 C   0  0  0  0  0  0  0  0  0  0  0  0
   -0.4824   -1.6438    5.0612 C   0  0  0  0  0  0  0  0  0  0  0  0
   -0.2385   -0.9561    3.4566 S   0  0  0  0  0  0  0  0  0  0  0  0
    0.0920   -2.5219    2.8133 C   0  0  0  0  0  0  0  0  0  0  0  0
    0.4234   -3.0263    1.5492 C   0  0  0  0  0  0  0  0  0  0  0  0
    0.6343   -2.4988    0.3021 N   0  0  0  0  0  0  0  0  0  0  0  0
    0.9680   -3.5317   -0.5556 C   0  0  0  0  0  0  0  0  0  0  0  0
    1.2749   -3.6064   -1.9442 C   0  0  0  0  0  0  0  0  0  0  0  0
    1.2614   -2.6925   -2.9840 N   0  0  0  0  0  0  0  0  0  0  0  0
    1.6939   -3.3264   -4.1185 C   0  0  0  0  0  0  0  0  0  0  0  0
    1.8905   -2.9704   -5.4609 C   0  0  0  0  0  0  0  0  0  0  0  0
    1.6828   -1.5306   -6.3878 S   0  0  0  0  0  0  0  0  0  0  0  0
    0.6053   -1.4093   -3.0931 C   0  0  0  0  0  0  0  0  0  0  0  0
   -0.9073   -1.5445   -2.9331 C   0  0  0  0  0  0  0  0  0  0  0  0
    0.7946   -1.0700    0.1529 C   0  0  0  0  0  0  0  0  0  0  0  0
    2.2629   -0.6933   -0.0321 C   0  0  0  0  0  0  0  0  0  0  0  0
   -0.7917   -0.9098    6.2106 C   0  0  0  0  0  0  0  0  0  0  0  0
   -1.0019    0.4355    6.3899 C   0  0  0  0  0  0  0  0  0  0  0  0
   -0.9778    1.4629    5.3470 C   0  0  0  0  0  0  0  0  0  0  0  0
   -0.7438    1.3130    4.1581 O   0  0  0  0  0  0  0  0  0  0  0  0
   -1.2901    2.7386    6.0115 C   0  0  0  0  0  0  0  0  0  0  0  0
   -1.3931    3.9915    5.4131 C   0  0  0  0  0  0  0  0  0  0  0  0
   -1.6880    5.0068    6.2907 C   0  0  0  0  0  0  0  0  0  0  0  0
   -1.8688    4.7906    7.6630 C   0  0  0  0  0  0  0  0  0  0  0  0
   -1.7773    3.5572    8.2641 C   0  0  0  0  0  0  0  0  0  0  0  0
   -1.4754    2.5096    7.3898 C   0  0  0  0  0  0  0  0  0  0  0  0
   -1.2975    1.0813    7.6528 C   0  0  0  0  0  0  0  0  0  0  0  0
   -1.3881    0.4882    8.8875 C   0  0  0  0  0  0  0  0  0  0  0  0
   -1.6637    1.1763   10.0873 C   0  0  0  0  0  0  0  0  0  0  0  0
   -1.8812    1.6624   11.1050 N   0  0  0  0  0  0  0  0  0  0  0  0
   -1.2177   -0.8847    9.1596 C   0  0  0  0  0  0  0  0  0  0  0  0
   -1.0956   -1.9847    9.4712 N   0  0  0  0  0  0  0  0  0  0  0  0
   -2.1240    6.2510    7.9402 C   0  0  0  0  0  0  0  0  0  0  0  0
   -0.9747    7.0779    8.5684 C   0  0  0  0  0  0  0  0  0  0  0  0
    0.3123    6.4059    8.1590 C   0  0  0  0  0  0  0  0  0  0  0  0
    0.4805    6.6107    6.8594 C   0  0  0  0  0  0  0  0  0  0  0  0
   -0.6903    7.4248    6.3666 C   0  0  0  0  0  0  0  0  0  0  0  0
   -0.9679    8.2814    7.6121 C   0  0  0  0  0  0  0  0  0  0  0  0
   -1.9253    6.4912    6.4103 C   0  0  0  0  0  0  0  0  0  0  0  0
    2.7264   -2.3943   -9.8806 H   0  0  0  0  0  0  0  0  0  0  0  0
    0.3809    3.5256   -9.6745 H   0  0  0  0  0  0  0  0  0  0  0  0
    0.4171    2.7825   -8.0442 H   0  0  0  0  0  0  0  0  0  0  0  0
    1.8106    4.8581   -8.1213 H   0  0  0  0  0  0  0  0  0  0  0  0
    2.8140    3.4353   -7.8148 H   0  0  0  0  0  0  0  0  0  0  0  0
    2.7748    4.1650   -9.4299 H   0  0  0  0  0  0  0  0  0  0  0  0
    2.8851   -5.6741   -8.2249 H   0  0  0  0  0  0  0  0  0  0  0  0
    2.6569   -4.5290   -9.5558 H   0  0  0  0  0  0  0  0  0  0  0  0
    5.1018   -4.6853   -7.7212 H   0  0  0  0  0  0  0  0  0  0  0  0
    4.9037   -3.5188   -9.0319 H   0  0  0  0  0  0  0  0  0  0  0  0
    5.0338   -5.2436   -9.3957 H   0  0  0  0  0  0  0  0  0  0  0  0
    0.0650   -4.8607    6.0481 H   0  0  0  0  0  0  0  0  0  0  0  0
   -0.1134   -3.4880    7.1532 H   0  0  0  0  0  0  0  0  0  0  0  0
   -2.5635   -3.3945    6.6057 H   0  0  0  0  0  0  0  0  0  0  0  0
   -2.0949   -4.9600    7.2700 H   0  0  0  0  0  0  0  0  0  0  0  0
   -2.3597   -4.7826    5.5305 H   0  0  0  0  0  0  0  0  0  0  0  0
    0.8260   -1.0265   -4.0919 H   0  0  0  0  0  0  0  0  0  0  0  0
    1.0267   -0.7019   -2.3801 H   0  0  0  0  0  0  0  0  0  0  0  0
   -1.3750   -0.5655   -2.9914 H   0  0  0  0  0  0  0  0  0  0  0  0
   -1.1654   -2.0044   -1.9815 H   0  0  0  0  0  0  0  0  0  0  0  0
   -1.3086   -2.1665   -3.7298 H   0  0  0  0  0  0  0  0  0  0  0  0
    0.1748   -0.6986   -0.6620 H   0  0  0  0  0  0  0  0  0  0  0  0
    0.4217   -0.6131    1.0720 H   0  0  0  0  0  0  0  0  0  0  0  0
    2.6965   -1.1997   -0.8919 H   0  0  0  0  0  0  0  0  0  0  0  0
    2.8310   -0.9777    0.8504 H   0  0  0  0  0  0  0  0  0  0  0  0
    2.3552    0.3805   -0.1699 H   0  0  0  0  0  0  0  0  0  0  0  0
   -0.8752   -1.5238    7.0968 H   0  0  0  0  0  0  0  0  0  0  0  0
   -1.2468    4.1121    4.3509 H   0  0  0  0  0  0  0  0  0  0  0  0
   -1.9254    3.4098    9.3206 H   0  0  0  0  0  0  0  0  0  0  0  0
   -3.0926    6.4923    8.3734 H   0  0  0  0  0  0  0  0  0  0  0  0
   -1.0932    7.2814    9.6292 H   0  0  0  0  0  0  0  0  0  0  0  0
    0.9197    5.8203    8.8241 H   0  0  0  0  0  0  0  0  0  0  0  0
    1.2565    6.2299    6.2214 H   0  0  0  0  0  0  0  0  0  0  0  0
   -0.5502    7.9446    5.4223 H   0  0  0  0  0  0  0  0  0  0  0  0
   -1.9196    8.8095    7.5723 H   0  0  0  0  0  0  0  0  0  0  0  0
   -0.1651    8.9854    7.8266 H   0  0  0  0  0  0  0  0  0  0  0  0
   -2.7658    6.8877    5.8437 H   0  0  0  0  0  0  0  0  0  0  0  0
  1  2  2  0  0  0  0
  2  3  1  0  0  0  0
  3  4  1  0  0  0  0
  4  5  2  0  0  0  0
  4  6  1  0  0  0  0
  6  7  1  0  0  0  0
  7  8  1  0  0  0  0
  6  9  1  0  0  0  0
  9 10  2  0  0  0  0
  1 11  1  0  0  0  0
 11 12  2  0  0  0  0
 12 13  1  0  0  0  0
 13 14  1  0  0  0  0
 12 15  1  0  0  0  0
 15 16  1  0  0  0  0
 16 17  1  0  0  0  0
 17 18  1  0  0  0  0
 18 19  1  0  0  0  0
 19 20  1  0  0  0  0
 20 21  2  0  0  0  0
 21 22  1  0  0  0  0
 22 23  1  0  0  0  0
 20 24  1  0  0  0  0
 24 25  1  0  0  0  0
 25 26  1  0  0  0  0
 26 27  1  0  0  0  0
 27 28  1  0  0  0  0
 28 29  1  0  0  0  0
 29 30  1  0  0  0  0
 28 31  2  0  0  0  0
 31 32  1  0  0  0  0
 32 33  1  0  0  0  0
 33 34  1  0  0  0  0
 34 35  1  0  0  0  0
 35 36  1  0  0  0  0
 36 37  1  0  0  0  0
 37 38  1  0  0  0  0
 38 39  1  0  0  0  0
 39 40  1  0  0  0  0
 40 41  1  0  0  0  0
 38 42  1  0  0  0  0
 42 43  1  0  0  0  0
 35 44  1  0  0  0  0
 44 45  1  0  0  0  0
 31 46  1  0  0  0  0
 46 47  2  0  0  0  0
 47 48  1  0  0  0  0
 48 49  2  0  0  0  0
 48 50  1  0  0  0  0
 50 51  2  0  0  0  0
 51 52  1  0  0  0  0
 52 53  2  0  0  0  0
 53 54  1  0  0  0  0
 54 55  2  0  0  0  0
 55 56  1  0  0  0  0
 56 57  2  0  0  0  0
 57 58  1  0  0  0  0
 58 59  3  0  0  0  0
 57 60  1  0  0  0  0
 60 61  3  0  0  0  0
 53 62  1  0  0  0  0
 62 63  1  0  0  0  0
 63 64  1  0  0  0  0
 64 65  2  0  0  0  0
 65 66  1  0  0  0  0
 66 67  1  0  0  0  0
 66 68  1  0  0  0  0
  9  2  1  0  0  0  0
 41 11  1  0  0  0  0
 56 47  1  0  0  0  0
 68 62  1  0  0  0  0
 40 15  2  0  0  0  0
 55 50  1  0  0  0  0
 67 63  1  0  0  0  0
 39 17  2  0  0  0  0
 68 52  1  0  0  0  0
 37 18  2  0  0  0  0
 23 19  2  0  0  0  0
 36 24  2  0  0  0  0
 34 25  2  0  0  0  0
 33 27  2  0  0  0  0
  1 69  1  0  0  0  0
  7 70  1  0  0  0  0
  7 71  1  0  0  0  0
  8 72  1  0  0  0  0
  8 73  1  0  0  0  0
  8 74  1  0  0  0  0
 13 75  1  0  0  0  0
 13 76  1  0  0  0  0
 14 77  1  0  0  0  0
 14 78  1  0  0  0  0
 14 79  1  0  0  0  0
 29 80  1  0  0  0  0
 29 81  1  0  0  0  0
 30 82  1  0  0  0  0
 30 83  1  0  0  0  0
 30 84  1  0  0  0  0
 42 85  1  0  0  0  0
 42 86  1  0  0  0  0
 43 87  1  0  0  0  0
 43 88  1  0  0  0  0
 43 89  1  0  0  0  0
 44 90  1  0  0  0  0
 44 91  1  0  0  0  0
 45 92  1  0  0  0  0
 45 93  1  0  0  0  0
 45 94  1  0  0  0  0
 46 95  1  0  0  0  0
 51 96  1  0  0  0  0
 54 97  1  0  0  0  0
 62 98  1  0  0  0  0
 63 99  1  0  0  0  0
 64100  1  0  0  0  0
 65101  1  0  0  0  0
 66102  1  0  0  0  0
 67103  1  0  0  0  0
 67104  1  0  0  0  0
 68105  1  0  0  0  0
M  END
