
  xtb     02012215263D
 energy: -261.632901967691 gnorm: 0.000534975354 xtb: 6.4.1 (unknown)
154169  0     0  0            999 V2000
   -5.2942    6.6480   -5.8280 C   0  0  0  0  0  0  0  0  0  0  0  0
   -5.9558    6.4618   -6.9992 C   0  0  0  0  0  0  0  0  0  0  0  0
   -6.0030    5.0262   -8.0034 S   0  0  0  0  0  0  0  0  0  0  0  0
   -7.1053    5.8100   -9.1781 C   0  0  0  0  0  0  0  0  0  0  0  0
   -7.5283    5.2704  -10.1595 O   0  0  0  0  0  0  0  0  0  0  0  0
   -7.3693    7.0777   -8.7581 N   0  0  0  0  0  0  0  0  0  0  0  0
   -8.2267    7.9518   -9.5413 C   0  0  0  0  0  0  0  0  0  0  0  0
   -7.4585    8.5970  -10.6870 C   0  0  0  0  0  0  0  0  0  0  0  0
   -6.7763    7.5185   -7.5824 C   0  0  0  0  0  0  0  0  0  0  0  0
   -6.9482    8.6267   -7.1270 O   0  0  0  0  0  0  0  0  0  0  0  0
   -4.4891    5.7353   -5.1189 C   0  0  0  0  0  0  0  0  0  0  0  0
   -3.7893    6.2703   -3.5867 S   0  0  0  0  0  0  0  0  0  0  0  0
   -3.0549    4.7317   -3.3688 C   0  0  0  0  0  0  0  0  0  0  0  0
   -2.2625    4.0110   -2.4804 C   0  0  0  0  0  0  0  0  0  0  0  0
   -1.4777    4.2156   -0.9491 S   0  0  0  0  0  0  0  0  0  0  0  0
   -0.9127    2.5819   -1.0660 C   0  0  0  0  0  0  0  0  0  0  0  0
   -0.1575    1.7375   -0.1951 C   0  0  0  0  0  0  0  0  0  0  0  0
   -0.0659    0.4759   -0.8222 C   0  0  0  0  0  0  0  0  0  0  0  0
   -0.7077    0.5099   -2.2067 C   0  0  0  0  0  0  0  0  0  0  0  0
    0.4201    0.3578   -3.2137 C   0  0  0  0  0  0  0  0  0  0  0  0
    0.9423    1.4488   -3.8908 C   0  0  0  0  0  0  0  0  0  0  0  0
    2.0018    1.3159   -4.7744 C   0  0  0  0  0  0  0  0  0  0  0  0
    2.5738    0.0694   -4.9969 C   0  0  0  0  0  0  0  0  0  0  0  0
    3.5911   -0.2019   -5.8557 O   0  0  0  0  0  0  0  0  0  0  0  0
    4.2494    0.8532   -6.5277 C   0  0  0  0  0  0  0  0  0  0  0  0
    5.2192    1.6103   -5.6252 C   0  0  0  0  0  0  0  0  0  0  0  0
    2.0642   -1.0298   -4.3010 C   0  0  0  0  0  0  0  0  0  0  0  0
    1.0136   -0.8852   -3.4236 C   0  0  0  0  0  0  0  0  0  0  0  0
   -1.8023   -0.5321   -2.3307 C   0  0  0  0  0  0  0  0  0  0  0  0
   -2.7002   -0.6822   -1.2758 C   0  0  0  0  0  0  0  0  0  0  0  0
   -3.7276   -1.5948   -1.3451 C   0  0  0  0  0  0  0  0  0  0  0  0
   -3.8960   -2.3921   -2.4803 C   0  0  0  0  0  0  0  0  0  0  0  0
   -4.9327   -3.2655   -2.4441 O   0  0  0  0  0  0  0  0  0  0  0  0
   -5.1471   -4.1263   -3.5460 C   0  0  0  0  0  0  0  0  0  0  0  0
   -6.3365   -5.0131   -3.2140 C   0  0  0  0  0  0  0  0  0  0  0  0
   -3.0130   -2.2366   -3.5421 C   0  0  0  0  0  0  0  0  0  0  0  0
   -1.9826   -1.3122   -3.4622 C   0  0  0  0  0  0  0  0  0  0  0  0
   -1.2935    1.9055   -2.2129 C   0  0  0  0  0  0  0  0  0  0  0  0
   -2.0835    2.7167   -3.0384 C   0  0  0  0  0  0  0  0  0  0  0  0
   -2.7582    2.6400   -4.2276 N   0  0  0  0  0  0  0  0  0  0  0  0
   -3.3450    3.8587   -4.4457 C   0  0  0  0  0  0  0  0  0  0  0  0
   -4.1505    4.4273   -5.4268 C   0  0  0  0  0  0  0  0  0  0  0  0
   -2.8513    1.5192   -5.1281 C   0  0  0  0  0  0  0  0  0  0  0  0
   -1.7749    1.5650   -6.2100 C   0  0  0  0  0  0  0  0  0  0  0  0
    0.5336   -0.5824   -0.1826 C   0  0  0  0  0  0  0  0  0  0  0  0
    1.0506   -0.3465    1.0883 C   0  0  0  0  0  0  0  0  0  0  0  0
    1.7054   -1.2239    2.0052 C   0  0  0  0  0  0  0  0  0  0  0  0
    2.0680   -0.5587    3.1653 C   0  0  0  0  0  0  0  0  0  0  0  0
    1.6237    0.8877    3.0906 C   0  0  0  0  0  0  0  0  0  0  0  0
    0.9912    0.9235    1.7011 C   0  0  0  0  0  0  0  0  0  0  0  0
    0.3821    1.9793    1.0650 C   0  0  0  0  0  0  0  0  0  0  0  0
    2.8429    1.7903    3.1643 C   0  0  0  0  0  0  0  0  0  0  0  0
    3.1471    2.5648    4.2790 C   0  0  0  0  0  0  0  0  0  0  0  0
    4.3006    3.3200    4.3188 C   0  0  0  0  0  0  0  0  0  0  0  0
    5.1957    3.3209    3.2480 C   0  0  0  0  0  0  0  0  0  0  0  0
    6.2868    4.1154    3.3998 O   0  0  0  0  0  0  0  0  0  0  0  0
    7.3131    4.1007    2.4270 C   0  0  0  0  0  0  0  0  0  0  0  0
    8.1976    2.8613    2.5257 C   0  0  0  0  0  0  0  0  0  0  0  0
    4.8966    2.5447    2.1325 C   0  0  0  0  0  0  0  0  0  0  0  0
    3.7360    1.7936    2.1015 C   0  0  0  0  0  0  0  0  0  0  0  0
    0.5266    1.2251    4.0821 C   0  0  0  0  0  0  0  0  0  0  0  0
   -0.1715    0.2280    4.7559 C   0  0  0  0  0  0  0  0  0  0  0  0
   -1.2085    0.5409    5.6092 C   0  0  0  0  0  0  0  0  0  0  0  0
   -1.5912    1.8677    5.8098 C   0  0  0  0  0  0  0  0  0  0  0  0
   -2.6177    2.0679    6.6737 O   0  0  0  0  0  0  0  0  0  0  0  0
   -3.0752    3.3868    6.9027 C   0  0  0  0  0  0  0  0  0  0  0  0
   -4.2309    3.3112    7.8875 C   0  0  0  0  0  0  0  0  0  0  0  0
   -0.9116    2.8682    5.1226 C   0  0  0  0  0  0  0  0  0  0  0  0
    0.1267    2.5415    4.2685 C   0  0  0  0  0  0  0  0  0  0  0  0
    2.7175   -1.4225    4.0569 C   0  0  0  0  0  0  0  0  0  0  0  0
    2.7922   -2.7454    3.5380 C   0  0  0  0  0  0  0  0  0  0  0  0
    2.1064   -2.9074    1.9559 S   0  0  0  0  0  0  0  0  0  0  0  0
    3.4215   -3.5243    4.5000 C   0  0  0  0  0  0  0  0  0  0  0  0
    3.9302   -5.1364    4.8050 S   0  0  0  0  0  0  0  0  0  0  0  0
    4.5575   -4.6533    6.3857 C   0  0  0  0  0  0  0  0  0  0  0  0
    4.3397   -3.3073    6.6469 C   0  0  0  0  0  0  0  0  0  0  0  0
    3.7229   -2.6622    5.5833 C   0  0  0  0  0  0  0  0  0  0  0  0
    3.3020   -1.3903    5.2940 N   0  0  0  0  0  0  0  0  0  0  0  0
    3.4864   -0.2564    6.1638 C   0  0  0  0  0  0  0  0  0  0  0  0
    2.3711   -0.1402    7.2000 C   0  0  0  0  0  0  0  0  0  0  0  0
    5.0899   -5.5826    7.3003 C   0  0  0  0  0  0  0  0  0  0  0  0
    5.5507   -6.8476    7.0809 C   0  0  0  0  0  0  0  0  0  0  0  0
    5.5848   -7.8207    8.2109 C   0  0  0  0  0  0  0  0  0  0  0  0
    5.4524   -7.5762    9.3885 O   0  0  0  0  0  0  0  0  0  0  0  0
    5.7608   -9.1114    7.5448 C   0  0  0  0  0  0  0  0  0  0  0  0
    5.8064  -10.7553    8.0239 S   0  0  0  0  0  0  0  0  0  0  0  0
    6.0644  -11.2209    6.3641 C   0  0  0  0  0  0  0  0  0  0  0  0
    6.2244  -12.8663    5.9547 Cl  0  0  0  0  0  0  0  0  0  0  0  0
    6.1227  -10.1662    5.4938 C   0  0  0  0  0  0  0  0  0  0  0  0
    5.9397   -8.9523    6.1774 C   0  0  0  0  0  0  0  0  0  0  0  0
    5.9516   -7.5321    5.8705 C   0  0  0  0  0  0  0  0  0  0  0  0
    6.5212   -6.9843    4.7504 C   0  0  0  0  0  0  0  0  0  0  0  0
    6.9445   -7.7773    3.6660 C   0  0  0  0  0  0  0  0  0  0  0  0
    7.2799   -8.4081    2.7675 N   0  0  0  0  0  0  0  0  0  0  0  0
    6.8405   -5.6174    4.6257 C   0  0  0  0  0  0  0  0  0  0  0  0
    7.1793   -4.5254    4.5207 N   0  0  0  0  0  0  0  0  0  0  0  0
   -5.4206    7.6304   -5.3873 H   0  0  0  0  0  0  0  0  0  0  0  0
   -9.0542    7.3515   -9.9267 H   0  0  0  0  0  0  0  0  0  0  0  0
   -8.6017    8.7121   -8.8521 H   0  0  0  0  0  0  0  0  0  0  0  0
   -7.0748    7.8330  -11.3593 H   0  0  0  0  0  0  0  0  0  0  0  0
   -8.1199    9.2536  -11.2450 H   0  0  0  0  0  0  0  0  0  0  0  0
   -6.6274    9.1828  -10.3009 H   0  0  0  0  0  0  0  0  0  0  0  0
    0.5297    2.4342   -3.7322 H   0  0  0  0  0  0  0  0  0  0  0  0
    2.3621    2.1984   -5.2795 H   0  0  0  0  0  0  0  0  0  0  0  0
    3.5220    1.5374   -6.9821 H   0  0  0  0  0  0  0  0  0  0  0  0
    4.8015    0.3577   -7.3311 H   0  0  0  0  0  0  0  0  0  0  0  0
    5.9496    0.9201   -5.2106 H   0  0  0  0  0  0  0  0  0  0  0  0
    5.7386    2.3705   -6.2020 H   0  0  0  0  0  0  0  0  0  0  0  0
    4.6933    2.0880   -4.8020 H   0  0  0  0  0  0  0  0  0  0  0  0
    2.5172   -1.9941   -4.4685 H   0  0  0  0  0  0  0  0  0  0  0  0
    0.6443   -1.7535   -2.9004 H   0  0  0  0  0  0  0  0  0  0  0  0
   -2.5849   -0.0765   -0.3888 H   0  0  0  0  0  0  0  0  0  0  0  0
   -4.4197   -1.7160   -0.5272 H   0  0  0  0  0  0  0  0  0  0  0  0
   -5.3536   -3.5367   -4.4503 H   0  0  0  0  0  0  0  0  0  0  0  0
   -4.2534   -4.7407   -3.7231 H   0  0  0  0  0  0  0  0  0  0  0  0
   -6.1284   -5.5917   -2.3183 H   0  0  0  0  0  0  0  0  0  0  0  0
   -7.2162   -4.4014   -3.0342 H   0  0  0  0  0  0  0  0  0  0  0  0
   -6.5345   -5.6906   -4.0395 H   0  0  0  0  0  0  0  0  0  0  0  0
   -3.1110   -2.8261   -4.4401 H   0  0  0  0  0  0  0  0  0  0  0  0
   -1.3094   -1.2182   -4.3020 H   0  0  0  0  0  0  0  0  0  0  0  0
   -4.4816    3.9339   -6.3210 H   0  0  0  0  0  0  0  0  0  0  0  0
   -2.7633    0.6018   -4.5430 H   0  0  0  0  0  0  0  0  0  0  0  0
   -3.8427    1.5458   -5.5895 H   0  0  0  0  0  0  0  0  0  0  0  0
   -1.9058    0.7308   -6.8935 H   0  0  0  0  0  0  0  0  0  0  0  0
   -1.8451    2.4921   -6.7743 H   0  0  0  0  0  0  0  0  0  0  0  0
   -0.7854    1.4979   -5.7637 H   0  0  0  0  0  0  0  0  0  0  0  0
    0.5950   -1.5659   -0.6203 H   0  0  0  0  0  0  0  0  0  0  0  0
    0.3051    2.9580    1.5106 H   0  0  0  0  0  0  0  0  0  0  0  0
    2.4754    2.5925    5.1246 H   0  0  0  0  0  0  0  0  0  0  0  0
    4.5344    3.9249    5.1806 H   0  0  0  0  0  0  0  0  0  0  0  0
    7.9027    4.9955    2.6453 H   0  0  0  0  0  0  0  0  0  0  0  0
    6.8931    4.2033    1.4189 H   0  0  0  0  0  0  0  0  0  0  0  0
    7.6238    1.9565    2.3408 H   0  0  0  0  0  0  0  0  0  0  0  0
    8.6293    2.7957    3.5212 H   0  0  0  0  0  0  0  0  0  0  0  0
    9.0004    2.9255    1.7966 H   0  0  0  0  0  0  0  0  0  0  0  0
    5.5536    2.5136    1.2779 H   0  0  0  0  0  0  0  0  0  0  0  0
    3.5242    1.1957    1.2268 H   0  0  0  0  0  0  0  0  0  0  0  0
    0.0904   -0.8095    4.6097 H   0  0  0  0  0  0  0  0  0  0  0  0
   -1.7457   -0.2329    6.1345 H   0  0  0  0  0  0  0  0  0  0  0  0
   -3.4102    3.8381    5.9586 H   0  0  0  0  0  0  0  0  0  0  0  0
   -2.2630    4.0004    7.3175 H   0  0  0  0  0  0  0  0  0  0  0  0
   -3.8965    2.8633    8.8191 H   0  0  0  0  0  0  0  0  0  0  0  0
   -4.6121    4.3086    8.0866 H   0  0  0  0  0  0  0  0  0  0  0  0
   -5.0286    2.6991    7.4760 H   0  0  0  0  0  0  0  0  0  0  0  0
   -1.1822    3.9058    5.2382 H   0  0  0  0  0  0  0  0  0  0  0  0
    0.6358    3.3378    3.7470 H   0  0  0  0  0  0  0  0  0  0  0  0
    4.6503   -2.8449    7.5662 H   0  0  0  0  0  0  0  0  0  0  0  0
    3.5282    0.6425    5.5466 H   0  0  0  0  0  0  0  0  0  0  0  0
    4.4508   -0.3769    6.6661 H   0  0  0  0  0  0  0  0  0  0  0  0
    2.3120   -1.0464    7.7983 H   0  0  0  0  0  0  0  0  0  0  0  0
    1.4128    0.0193    6.7117 H   0  0  0  0  0  0  0  0  0  0  0  0
    2.5701    0.7001    7.8592 H   0  0  0  0  0  0  0  0  0  0  0  0
    5.0450   -5.2873    8.3445 H   0  0  0  0  0  0  0  0  0  0  0  0
    6.2779  -10.2717    4.4364 H   0  0  0  0  0  0  0  0  0  0  0  0
  1  2  2  0  0  0  0
  2  3  1  0  0  0  0
  3  4  1  0  0  0  0
  4  5  2  0  0  0  0
  4  6  1  0  0  0  0
  6  7  1  0  0  0  0
  7  8  1  0  0  0  0
  6  9  1  0  0  0  0
  9 10  2  0  0  0  0
  1 11  1  0  0  0  0
 11 12  1  0  0  0  0
 12 13  1  0  0  0  0
 13 14  1  0  0  0  0
 14 15  1  0  0  0  0
 15 16  1  0  0  0  0
 16 17  1  0  0  0  0
 17 18  2  0  0  0  0
 18 19  1  0  0  0  0
 19 20  1  0  0  0  0
 20 21  2  0  0  0  0
 21 22  1  0  0  0  0
 22 23  2  0  0  0  0
 23 24  1  0  0  0  0
 24 25  1  0  0  0  0
 25 26  1  0  0  0  0
 23 27  1  0  0  0  0
 27 28  2  0  0  0  0
 19 29  1  0  0  0  0
 29 30  2  0  0  0  0
 30 31  1  0  0  0  0
 31 32  2  0  0  0  0
 32 33  1  0  0  0  0
 33 34  1  0  0  0  0
 34 35  1  0  0  0  0
 32 36  1  0  0  0  0
 36 37  2  0  0  0  0
 19 38  1  0  0  0  0
 38 39  1  0  0  0  0
 39 40  1  0  0  0  0
 40 41  1  0  0  0  0
 41 42  1  0  0  0  0
 40 43  1  0  0  0  0
 43 44  1  0  0  0  0
 18 45  1  0  0  0  0
 45 46  2  0  0  0  0
 46 47  1  0  0  0  0
 47 48  2  0  0  0  0
 48 49  1  0  0  0  0
 49 50  1  0  0  0  0
 50 51  2  0  0  0  0
 49 52  1  0  0  0  0
 52 53  2  0  0  0  0
 53 54  1  0  0  0  0
 54 55  2  0  0  0  0
 55 56  1  0  0  0  0
 56 57  1  0  0  0  0
 57 58  1  0  0  0  0
 55 59  1  0  0  0  0
 59 60  2  0  0  0  0
 49 61  1  0  0  0  0
 61 62  2  0  0  0  0
 62 63  1  0  0  0  0
 63 64  2  0  0  0  0
 64 65  1  0  0  0  0
 65 66  1  0  0  0  0
 66 67  1  0  0  0  0
 64 68  1  0  0  0  0
 68 69  2  0  0  0  0
 48 70  1  0  0  0  0
 70 71  2  0  0  0  0
 71 72  1  0  0  0  0
 71 73  1  0  0  0  0
 73 74  1  0  0  0  0
 74 75  1  0  0  0  0
 75 76  2  0  0  0  0
 76 77  1  0  0  0  0
 77 78  1  0  0  0  0
 78 79  1  0  0  0  0
 79 80  1  0  0  0  0
 75 81  1  0  0  0  0
 81 82  2  0  0  0  0
 82 83  1  0  0  0  0
 83 84  2  0  0  0  0
 83 85  1  0  0  0  0
 85 86  1  0  0  0  0
 86 87  1  0  0  0  0
 87 88  1  0  0  0  0
 87 89  2  0  0  0  0
 89 90  1  0  0  0  0
 90 91  1  0  0  0  0
 91 92  2  0  0  0  0
 92 93  1  0  0  0  0
 93 94  3  0  0  0  0
 92 95  1  0  0  0  0
 95 96  3  0  0  0  0
  9  2  1  0  0  0  0
 42 11  2  0  0  0  0
 50 46  1  0  0  0  0
 60 52  1  0  0  0  0
 69 61  1  0  0  0  0
 78 70  1  0  0  0  0
 91 82  1  0  0  0  0
 41 13  2  0  0  0  0
 72 47  1  0  0  0  0
 77 73  2  0  0  0  0
 90 85  2  0  0  0  0
 39 14  2  0  0  0  0
 38 16  2  0  0  0  0
 51 17  1  0  0  0  0
 28 20  1  0  0  0  0
 37 29  1  0  0  0  0
  1 97  1  0  0  0  0
  7 98  1  0  0  0  0
  7 99  1  0  0  0  0
  8100  1  0  0  0  0
  8101  1  0  0  0  0
  8102  1  0  0  0  0
 21103  1  0  0  0  0
 22104  1  0  0  0  0
 25105  1  0  0  0  0
 25106  1  0  0  0  0
 26107  1  0  0  0  0
 26108  1  0  0  0  0
 26109  1  0  0  0  0
 27110  1  0  0  0  0
 28111  1  0  0  0  0
 30112  1  0  0  0  0
 31113  1  0  0  0  0
 34114  1  0  0  0  0
 34115  1  0  0  0  0
 35116  1  0  0  0  0
 35117  1  0  0  0  0
 35118  1  0  0  0  0
 36119  1  0  0  0  0
 37120  1  0  0  0  0
 42121  1  0  0  0  0
 43122  1  0  0  0  0
 43123  1  0  0  0  0
 44124  1  0  0  0  0
 44125  1  0  0  0  0
 44126  1  0  0  0  0
 45127  1  0  0  0  0
 51128  1  0  0  0  0
 53129  1  0  0  0  0
 54130  1  0  0  0  0
 57131  1  0  0  0  0
 57132  1  0  0  0  0
 58133  1  0  0  0  0
 58134  1  0  0  0  0
 58135  1  0  0  0  0
 59136  1  0  0  0  0
 60137  1  0  0  0  0
 62138  1  0  0  0  0
 63139  1  0  0  0  0
 66140  1  0  0  0  0
 66141  1  0  0  0  0
 67142  1  0  0  0  0
 67143  1  0  0  0  0
 67144  1  0  0  0  0
 68145  1  0  0  0  0
 69146  1  0  0  0  0
 76147  1  0  0  0  0
 79148  1  0  0  0  0
 79149  1  0  0  0  0
 80150  1  0  0  0  0
 80151  1  0  0  0  0
 80152  1  0  0  0  0
 81153  1  0  0  0  0
 89154  1  0  0  0  0
M  END
