
  xtb     02012215593D
 energy: -118.418780635949 gnorm: 0.000939516939 xtb: 6.4.1 (unknown)
 61 67  0     0  0            999 V2000
    0.6519   -5.2808    0.5809 C   0  0  0  0  0  0  0  0  0  0  0  0
    1.8075   -5.6517   -0.0171 C   0  0  0  0  0  0  0  0  0  0  0  0
    3.0085   -4.6263   -0.7609 S   0  0  0  0  0  0  0  0  0  0  0  0
    4.0383   -6.0445   -1.1672 C   0  0  0  0  0  0  0  0  0  0  0  0
    5.0902   -5.9636   -1.7273 O   0  0  0  0  0  0  0  0  0  0  0  0
    3.4277   -7.1826   -0.7267 N   0  0  0  0  0  0  0  0  0  0  0  0
    4.0349   -8.4841   -0.9592 C   0  0  0  0  0  0  0  0  0  0  0  0
    3.7132   -8.9980   -2.3560 C   0  0  0  0  0  0  0  0  0  0  0  0
    2.2037   -7.0652   -0.0953 C   0  0  0  0  0  0  0  0  0  0  0  0
    1.5738   -8.0025    0.3331 O   0  0  0  0  0  0  0  0  0  0  0  0
    0.1370   -3.9735    0.7539 C   0  0  0  0  0  0  0  0  0  0  0  0
    0.9556   -2.5431    0.1616 S   0  0  0  0  0  0  0  0  0  0  0  0
   -0.2940   -1.5293    0.7967 C   0  0  0  0  0  0  0  0  0  0  0  0
   -0.3686   -0.1372    0.7286 C   0  0  0  0  0  0  0  0  0  0  0  0
   -1.4563    0.5498    1.3108 C   0  0  0  0  0  0  0  0  0  0  0  0
   -2.4833   -0.1907    1.9650 C   0  0  0  0  0  0  0  0  0  0  0  0
   -3.6469    0.2793    2.6076 C   0  0  0  0  0  0  0  0  0  0  0  0
   -4.4221   -0.7225    3.1278 C   0  0  0  0  0  0  0  0  0  0  0  0
   -5.6857   -0.5293    3.8442 C   0  0  0  0  0  0  0  0  0  0  0  0
   -6.0832    0.5847    4.1076 O   0  0  0  0  0  0  0  0  0  0  0  0
   -6.4639   -1.7790    4.1860 C   0  0  0  0  0  0  0  0  0  0  0  0
   -7.2320   -2.2551    2.9503 C   0  0  0  0  0  0  0  0  0  0  0  0
   -3.7246   -2.2949    2.8430 S   0  0  0  0  0  0  0  0  0  0  0  0
   -2.3872   -1.5867    2.0142 C   0  0  0  0  0  0  0  0  0  0  0  0
   -1.3008   -2.2813    1.4395 C   0  0  0  0  0  0  0  0  0  0  0  0
   -1.0380   -3.6599    1.4012 C   0  0  0  0  0  0  0  0  0  0  0  0
   -1.3375    1.9303    1.1366 C   0  0  0  0  0  0  0  0  0  0  0  0
   -0.2001    2.3109    0.4398 C   0  0  0  0  0  0  0  0  0  0  0  0
    0.7684    0.9281   -0.0220 S   0  0  0  0  0  0  0  0  0  0  0  0
    0.0837    3.6684    0.1690 C   0  0  0  0  0  0  0  0  0  0  0  0
    1.1247    4.2379   -0.5005 C   0  0  0  0  0  0  0  0  0  0  0  0
    2.2600    3.5266   -1.1379 C   0  0  0  0  0  0  0  0  0  0  0  0
    2.4556    2.3280   -1.1575 O   0  0  0  0  0  0  0  0  0  0  0  0
    3.0906    4.5762   -1.7362 C   0  0  0  0  0  0  0  0  0  0  0  0
    4.2788    4.6725   -2.4794 C   0  0  0  0  0  0  0  0  0  0  0  0
    4.5689    5.9742   -2.7654 C   0  0  0  0  0  0  0  0  0  0  0  0
    3.4175    7.1021   -2.1448 S   0  0  0  0  0  0  0  0  0  0  0  0
    2.5095    5.8111   -1.4780 C   0  0  0  0  0  0  0  0  0  0  0  0
    1.2980    5.6719   -0.7180 C   0  0  0  0  0  0  0  0  0  0  0  0
    0.5086    6.7154   -0.3083 C   0  0  0  0  0  0  0  0  0  0  0  0
   -0.6778    6.6141    0.4428 C   0  0  0  0  0  0  0  0  0  0  0  0
   -1.6489    6.6023    1.0558 N   0  0  0  0  0  0  0  0  0  0  0  0
    0.8549    8.0461   -0.6294 C   0  0  0  0  0  0  0  0  0  0  0  0
    1.1304    9.1291   -0.8891 N   0  0  0  0  0  0  0  0  0  0  0  0
    0.0520   -6.0896    0.9827 H   0  0  0  0  0  0  0  0  0  0  0  0
    3.6292   -9.1551   -0.1986 H   0  0  0  0  0  0  0  0  0  0  0  0
    5.1141   -8.3767   -0.8297 H   0  0  0  0  0  0  0  0  0  0  0  0
    4.1111   -8.3201   -3.1077 H   0  0  0  0  0  0  0  0  0  0  0  0
    2.6369   -9.0848   -2.4873 H   0  0  0  0  0  0  0  0  0  0  0  0
    4.1621   -9.9771   -2.4962 H   0  0  0  0  0  0  0  0  0  0  0  0
   -3.9252    1.3138    2.6930 H   0  0  0  0  0  0  0  0  0  0  0  0
   -5.7876   -2.5643    4.5280 H   0  0  0  0  0  0  0  0  0  0  0  0
   -7.1696   -1.5370    4.9817 H   0  0  0  0  0  0  0  0  0  0  0  0
   -7.8314   -3.1268    3.1995 H   0  0  0  0  0  0  0  0  0  0  0  0
   -7.8939   -1.4688    2.5947 H   0  0  0  0  0  0  0  0  0  0  0  0
   -6.5483   -2.5236    2.1481 H   0  0  0  0  0  0  0  0  0  0  0  0
   -1.6862   -4.3992    1.8370 H   0  0  0  0  0  0  0  0  0  0  0  0
   -2.0529    2.6451    1.5024 H   0  0  0  0  0  0  0  0  0  0  0  0
   -0.6669    4.3416    0.5675 H   0  0  0  0  0  0  0  0  0  0  0  0
    4.8790    3.8346   -2.7822 H   0  0  0  0  0  0  0  0  0  0  0  0
    5.4089    6.3502   -3.3166 H   0  0  0  0  0  0  0  0  0  0  0  0
  1  2  2  0  0  0  0
  2  3  1  0  0  0  0
  3  4  1  0  0  0  0
  4  5  2  0  0  0  0
  4  6  1  0  0  0  0
  6  7  1  0  0  0  0
  7  8  1  0  0  0  0
  6  9  1  0  0  0  0
  9 10  2  0  0  0  0
  1 11  1  0  0  0  0
 11 12  1  0  0  0  0
 12 13  1  0  0  0  0
 13 14  2  0  0  0  0
 14 15  1  0  0  0  0
 15 16  2  0  0  0  0
 16 17  1  0  0  0  0
 17 18  2  0  0  0  0
 18 19  1  0  0  0  0
 19 20  2  0  0  0  0
 19 21  1  0  0  0  0
 21 22  1  0  0  0  0
 18 23  1  0  0  0  0
 23 24  1  0  0  0  0
 24 25  2  0  0  0  0
 25 26  1  0  0  0  0
 15 27  1  0  0  0  0
 27 28  2  0  0  0  0
 28 29  1  0  0  0  0
 28 30  1  0  0  0  0
 30 31  2  0  0  0  0
 31 32  1  0  0  0  0
 32 33  2  0  0  0  0
 32 34  1  0  0  0  0
 34 35  1  0  0  0  0
 35 36  2  0  0  0  0
 36 37  1  0  0  0  0
 37 38  1  0  0  0  0
 38 39  1  0  0  0  0
 39 40  2  0  0  0  0
 40 41  1  0  0  0  0
 41 42  3  0  0  0  0
 40 43  1  0  0  0  0
 43 44  3  0  0  0  0
  9  2  1  0  0  0  0
 26 11  2  0  0  0  0
 39 31  1  0  0  0  0
 25 13  1  0  0  0  0
 38 34  2  0  0  0  0
 29 14  1  0  0  0  0
 24 16  1  0  0  0  0
  1 45  1  0  0  0  0
  7 46  1  0  0  0  0
  7 47  1  0  0  0  0
  8 48  1  0  0  0  0
  8 49  1  0  0  0  0
  8 50  1  0  0  0  0
 17 51  1  0  0  0  0
 21 52  1  0  0  0  0
 21 53  1  0  0  0  0
 22 54  1  0  0  0  0
 22 55  1  0  0  0  0
 22 56  1  0  0  0  0
 26 57  1  0  0  0  0
 27 58  1  0  0  0  0
 30 59  1  0  0  0  0
 35 60  1  0  0  0  0
 36 61  1  0  0  0  0
M  END
