98

C         -5.64760        6.57520        2.56190
C         -5.59210        7.91470        2.76370
S         -6.95600        8.96250        2.39360
C         -6.02090       10.42850        2.81200
O         -6.45940       11.54070        2.77810
N         -4.75160       10.05900        3.14850
C         -3.76800       11.06110        3.52540
C         -3.85560       11.38120        5.01170
C         -4.42440        8.71160        3.13930
O         -3.30080        8.31090        3.34700
C         -4.67460        5.60620        2.92970
C         -3.88980        5.48110        4.06300
C         -3.98670        6.37440        5.25310
C         -4.04410        5.60910        6.57260
C         -3.06370        4.34400        3.98000
S         -1.82750        3.68620        5.02990
C         -1.52630        2.43800        3.87390
C         -0.70740        1.30900        3.71070
C          0.19900        0.67730        4.59120
C          0.81380       -0.55580        4.18960
N          1.58720       -1.06600        5.13450
S          1.55050       -0.07870        6.41720
N          0.54460        1.03820        5.81690
C          0.59880       -1.02940        2.87590
C          1.19350       -2.07590        2.15900
S          2.33480       -3.35150        2.40880
C          2.22780       -3.73950        0.70030
C          2.86030       -4.69330       -0.08250
C          3.87800       -5.64120        0.46210
C          5.29270       -5.08480        0.27820
C          2.46560       -4.59480       -1.43110
S          1.28110       -3.30960       -1.68380
C          1.33730       -2.91240       -0.00890
C          0.74230       -1.97410        0.83600
N         -0.12760       -0.92250        0.72090
C         -0.25190       -0.33730        1.96270
C         -1.01340        0.76240        2.43340
N         -2.03120        1.51320        1.86030
C         -2.33720        2.52040        2.73930
C         -3.22260        3.60170        2.80500
S         -4.44600        4.27600        1.79590
C         -3.04900        1.08510        0.92300
C         -3.88930       -0.04690        1.51010
C         -0.47430       -0.41810       -0.58840
C         -1.57340       -1.24400       -1.25440
C          2.97990       -5.41630       -2.43520
C          2.74090       -5.44270       -3.79110
C          1.81550       -4.57510       -4.51930
O          1.08940       -3.70590       -4.06250
C          1.91840       -4.95770       -5.93680
C          1.26180       -4.43590       -7.01270
C          1.52550       -4.95860       -8.29840
C          0.87770       -4.45830       -9.44580
C          1.14370       -4.97150      -10.68500
C          2.07690       -6.01010      -10.80160
F          2.32640       -6.50200      -12.02940
C          2.73280       -6.53180       -9.72130
C          2.47050       -6.01570       -8.43760
C          3.13340       -6.53690       -7.30080
C          2.86090       -6.01630       -6.06460
C          3.37580       -6.33920       -4.73430
C          4.29440       -7.32420       -4.46620
C          4.80320       -7.65720       -3.19490
N          5.26440       -7.99110       -2.19630
C          4.86560       -8.15880       -5.44870
N          5.36910       -8.87150       -6.19510
H         -6.51140        6.19460        2.02860
H         -2.78870       10.64470        3.27780
H         -3.95870       11.95560        2.92890
H         -4.83870       11.77830        5.25350
H         -3.67800       10.48500        5.60210
H         -3.10610       12.12370        5.26980
H         -4.88040        6.99430        5.15350
H         -3.12210        7.04500        5.24830
H         -4.22760        6.30350        7.38850
H         -4.84960        4.87840        6.55440
H         -3.11000        5.09180        6.76970
H          3.80680       -6.61620       -0.02180
H          3.68410       -5.77290        1.52850
H          5.39290       -4.12990        0.78900
H          5.51600       -4.94090       -0.77640
H          6.01750       -5.78040        0.69080
H         -3.68270        1.95470        0.73210
H         -2.61330        0.77810       -0.02330
H         -4.36380        0.27590        2.43400
H         -4.66390       -0.33760        0.80580
H         -3.26690       -0.91230        1.72910
H          0.42480       -0.47640       -1.21170
H         -0.74200        0.63540       -0.49730
H         -1.19820       -2.23580       -1.49080
H         -1.87770       -0.76850       -2.18250
H         -2.44060       -1.35120       -0.60860
H          3.69480       -6.14070       -2.06990
H          0.55080       -3.63330       -6.88510
H          0.16310       -3.65720       -9.33010
H          0.65700       -4.60030      -11.57290
H          3.44520       -7.33180       -9.84900
H          3.84190       -7.33660       -7.44340
