
  xtb     02022201453D
 energy: -168.597446044437 gnorm: 0.000324688309 xtb: 6.4.1 (unknown)
 92102  0     0  0            999 V2000
    6.2692    3.0984   -2.9538 C   0  0  0  0  0  0  0  0  0  0  0  0
    6.6498    3.4593   -4.2002 C   0  0  0  0  0  0  0  0  0  0  0  0
    5.6935    4.1799   -5.4806 S   0  0  0  0  0  0  0  0  0  0  0  0
    7.0504    4.0495   -6.6436 C   0  0  0  0  0  0  0  0  0  0  0  0
    6.9889    4.4059   -7.7833 O   0  0  0  0  0  0  0  0  0  0  0  0
    8.1315    3.5061   -6.0118 N   0  0  0  0  0  0  0  0  0  0  0  0
    9.3643    3.2566   -6.7419 C   0  0  0  0  0  0  0  0  0  0  0  0
    9.3127    1.9158   -7.4621 C   0  0  0  0  0  0  0  0  0  0  0  0
    8.0005    3.1460   -4.6833 C   0  0  0  0  0  0  0  0  0  0  0  0
    8.8887    2.6486   -4.0314 O   0  0  0  0  0  0  0  0  0  0  0  0
    5.0155    3.2598   -2.3021 C   0  0  0  0  0  0  0  0  0  0  0  0
    4.0618    4.2605   -2.3502 C   0  0  0  0  0  0  0  0  0  0  0  0
    4.2463    5.5901   -3.0068 C   0  0  0  0  0  0  0  0  0  0  0  0
    4.0158    6.7450   -2.0322 C   0  0  0  0  0  0  0  0  0  0  0  0
    2.9331    3.9190   -1.5815 C   0  0  0  0  0  0  0  0  0  0  0  0
    1.4008    4.7154   -1.2967 S   0  0  0  0  0  0  0  0  0  0  0  0
    0.9020    3.3778   -0.3220 C   0  0  0  0  0  0  0  0  0  0  0  0
   -0.2015    2.9694    0.4455 C   0  0  0  0  0  0  0  0  0  0  0  0
   -1.4032    3.6243    0.7956 C   0  0  0  0  0  0  0  0  0  0  0  0
   -2.3198    2.9673    1.6846 C   0  0  0  0  0  0  0  0  0  0  0  0
   -3.3716    3.7181    1.9705 N   0  0  0  0  0  0  0  0  0  0  0  0
   -3.2266    5.1262    1.1858 S   0  0  0  0  0  0  0  0  0  0  0  0
   -1.8148    4.8343    0.4513 N   0  0  0  0  0  0  0  0  0  0  0  0
   -2.0597    1.6333    2.0720 C   0  0  0  0  0  0  0  0  0  0  0  0
   -2.8539    0.6871    2.7345 C   0  0  0  0  0  0  0  0  0  0  0  0
   -4.4037    0.5926    3.4898 S   0  0  0  0  0  0  0  0  0  0  0  0
   -4.1683   -1.1273    3.6974 C   0  0  0  0  0  0  0  0  0  0  0  0
   -4.9827   -2.1263    4.2327 C   0  0  0  0  0  0  0  0  0  0  0  0
   -6.3234   -1.8565    4.8313 C   0  0  0  0  0  0  0  0  0  0  0  0
   -6.1902   -1.5458    6.3250 C   0  0  0  0  0  0  0  0  0  0  0  0
   -4.3823   -3.3787    4.1371 C   0  0  0  0  0  0  0  0  0  0  0  0
   -2.7735   -3.2831    3.4170 S   0  0  0  0  0  0  0  0  0  0  0  0
   -2.9323   -1.5799    3.2100 C   0  0  0  0  0  0  0  0  0  0  0  0
   -2.1768   -0.5394    2.6672 C   0  0  0  0  0  0  0  0  0  0  0  0
   -0.9814   -0.3754    2.0153 N   0  0  0  0  0  0  0  0  0  0  0  0
   -0.8805    0.9545    1.6540 C   0  0  0  0  0  0  0  0  0  0  0  0
    0.1160    1.6808    0.9571 C   0  0  0  0  0  0  0  0  0  0  0  0
    1.4010    1.3456    0.5615 N   0  0  0  0  0  0  0  0  0  0  0  0
    1.8672    2.3723   -0.2195 C   0  0  0  0  0  0  0  0  0  0  0  0
    3.0292    2.6829   -0.9341 C   0  0  0  0  0  0  0  0  0  0  0  0
    4.5466    1.9283   -1.2424 S   0  0  0  0  0  0  0  0  0  0  0  0
    2.3545    0.5050    1.2536 C   0  0  0  0  0  0  0  0  0  0  0  0
    3.2097    1.3230    2.2214 C   0  0  0  0  0  0  0  0  0  0  0  0
   -0.2760   -1.5235    1.4862 C   0  0  0  0  0  0  0  0  0  0  0  0
    0.4873   -2.2855    2.5689 C   0  0  0  0  0  0  0  0  0  0  0  0
   -4.8948   -4.5929    4.6316 C   0  0  0  0  0  0  0  0  0  0  0  0
   -4.4825   -5.8704    4.3814 C   0  0  0  0  0  0  0  0  0  0  0  0
   -4.7984   -6.9434    5.3599 C   0  0  0  0  0  0  0  0  0  0  0  0
   -5.5907   -6.8804    6.2693 O   0  0  0  0  0  0  0  0  0  0  0  0
   -3.8913   -8.0592    5.0000 C   0  0  0  0  0  0  0  0  0  0  0  0
   -3.6539   -9.2697    5.6253 C   0  0  0  0  0  0  0  0  0  0  0  0
   -4.3111   -9.6125    6.7373 F   0  0  0  0  0  0  0  0  0  0  0  0
   -2.7172  -10.1525    5.1001 C   0  0  0  0  0  0  0  0  0  0  0  0
   -2.0214   -9.8131    3.9529 C   0  0  0  0  0  0  0  0  0  0  0  0
   -2.2471   -8.6074    3.2999 C   0  0  0  0  0  0  0  0  0  0  0  0
   -3.1850   -7.7359    3.8247 C   0  0  0  0  0  0  0  0  0  0  0  0
   -3.6601   -6.4384    3.3431 C   0  0  0  0  0  0  0  0  0  0  0  0
   -3.5777   -5.9979    2.0463 C   0  0  0  0  0  0  0  0  0  0  0  0
   -4.3433   -4.9190    1.5569 C   0  0  0  0  0  0  0  0  0  0  0  0
   -4.9940   -4.0827    1.1148 N   0  0  0  0  0  0  0  0  0  0  0  0
   -2.8004   -6.6135    1.0475 C   0  0  0  0  0  0  0  0  0  0  0  0
   -2.1556   -7.0527    0.2048 N   0  0  0  0  0  0  0  0  0  0  0  0
    7.0155    2.5270   -2.4091 H   0  0  0  0  0  0  0  0  0  0  0  0
    9.4973    4.0713   -7.4569 H   0  0  0  0  0  0  0  0  0  0  0  0
   10.1701    3.2662   -6.0044 H   0  0  0  0  0  0  0  0  0  0  0  0
    8.4961    1.9055   -8.1803 H   0  0  0  0  0  0  0  0  0  0  0  0
    9.1688    1.1095   -6.7464 H   0  0  0  0  0  0  0  0  0  0  0  0
   10.2461    1.7504   -7.9921 H   0  0  0  0  0  0  0  0  0  0  0  0
    5.2598    5.6591   -3.3975 H   0  0  0  0  0  0  0  0  0  0  0  0
    3.5501    5.6764   -3.8446 H   0  0  0  0  0  0  0  0  0  0  0  0
    4.6709    6.6490   -1.1691 H   0  0  0  0  0  0  0  0  0  0  0  0
    4.2335    7.6873   -2.5279 H   0  0  0  0  0  0  0  0  0  0  0  0
    2.9862    6.7697   -1.6870 H   0  0  0  0  0  0  0  0  0  0  0  0
   -6.9825   -2.7123    4.6860 H   0  0  0  0  0  0  0  0  0  0  0  0
   -6.7602   -0.9942    4.3242 H   0  0  0  0  0  0  0  0  0  0  0  0
   -5.7616   -2.3911    6.8585 H   0  0  0  0  0  0  0  0  0  0  0  0
   -5.5488   -0.6806    6.4750 H   0  0  0  0  0  0  0  0  0  0  0  0
   -7.1679   -1.3297    6.7468 H   0  0  0  0  0  0  0  0  0  0  0  0
    2.9943    0.0267    0.5056 H   0  0  0  0  0  0  0  0  0  0  0  0
    1.8265   -0.2556    1.8164 H   0  0  0  0  0  0  0  0  0  0  0  0
    3.7954    2.0678    1.6899 H   0  0  0  0  0  0  0  0  0  0  0  0
    3.8912    0.6638    2.7518 H   0  0  0  0  0  0  0  0  0  0  0  0
    2.5765    1.8304    2.9465 H   0  0  0  0  0  0  0  0  0  0  0  0
   -1.0195   -2.1981    1.0456 H   0  0  0  0  0  0  0  0  0  0  0  0
    0.3829   -1.1925    0.6829 H   0  0  0  0  0  0  0  0  0  0  0  0
    1.1371   -1.6294    3.1442 H   0  0  0  0  0  0  0  0  0  0  0  0
    1.0906   -3.0636    2.1101 H   0  0  0  0  0  0  0  0  0  0  0  0
   -0.2077   -2.7541    3.2601 H   0  0  0  0  0  0  0  0  0  0  0  0
   -5.6635   -4.5059    5.3930 H   0  0  0  0  0  0  0  0  0  0  0  0
   -2.5462  -11.0930    5.5995 H   0  0  0  0  0  0  0  0  0  0  0  0
   -1.2902  -10.5002    3.5561 H   0  0  0  0  0  0  0  0  0  0  0  0
   -1.6914   -8.3615    2.4098 H   0  0  0  0  0  0  0  0  0  0  0  0
  1  2  2  0  0  0  0
  2  3  1  0  0  0  0
  3  4  1  0  0  0  0
  4  5  2  0  0  0  0
  4  6  1  0  0  0  0
  6  7  1  0  0  0  0
  7  8  1  0  0  0  0
  6  9  1  0  0  0  0
  9 10  2  0  0  0  0
  1 11  1  0  0  0  0
 11 12  2  0  0  0  0
 12 13  1  0  0  0  0
 13 14  1  0  0  0  0
 12 15  1  0  0  0  0
 15 16  1  0  0  0  0
 16 17  1  0  0  0  0
 17 18  1  0  0  0  0
 18 19  1  0  0  0  0
 19 20  1  0  0  0  0
 20 21  2  0  0  0  0
 21 22  1  0  0  0  0
 22 23  1  0  0  0  0
 20 24  1  0  0  0  0
 24 25  1  0  0  0  0
 25 26  1  0  0  0  0
 26 27  1  0  0  0  0
 27 28  1  0  0  0  0
 28 29  1  0  0  0  0
 29 30  1  0  0  0  0
 28 31  2  0  0  0  0
 31 32  1  0  0  0  0
 32 33  1  0  0  0  0
 33 34  1  0  0  0  0
 34 35  1  0  0  0  0
 35 36  1  0  0  0  0
 36 37  1  0  0  0  0
 37 38  1  0  0  0  0
 38 39  1  0  0  0  0
 39 40  1  0  0  0  0
 40 41  1  0  0  0  0
 38 42  1  0  0  0  0
 42 43  1  0  0  0  0
 35 44  1  0  0  0  0
 44 45  1  0  0  0  0
 31 46  1  0  0  0  0
 46 47  2  0  0  0  0
 47 48  1  0  0  0  0
 48 49  2  0  0  0  0
 48 50  1  0  0  0  0
 50 51  2  0  0  0  0
 51 52  1  0  0  0  0
 51 53  1  0  0  0  0
 53 54  2  0  0  0  0
 54 55  1  0  0  0  0
 55 56  2  0  0  0  0
 56 57  1  0  0  0  0
 57 58  2  0  0  0  0
 58 59  1  0  0  0  0
 59 60  3  0  0  0  0
 58 61  1  0  0  0  0
 61 62  3  0  0  0  0
  9  2  1  0  0  0  0
 41 11  1  0  0  0  0
 57 47  1  0  0  0  0
 40 15  2  0  0  0  0
 56 50  1  0  0  0  0
 39 17  2  0  0  0  0
 37 18  2  0  0  0  0
 23 19  2  0  0  0  0
 36 24  2  0  0  0  0
 34 25  2  0  0  0  0
 33 27  2  0  0  0  0
  1 63  1  0  0  0  0
  7 64  1  0  0  0  0
  7 65  1  0  0  0  0
  8 66  1  0  0  0  0
  8 67  1  0  0  0  0
  8 68  1  0  0  0  0
 13 69  1  0  0  0  0
 13 70  1  0  0  0  0
 14 71  1  0  0  0  0
 14 72  1  0  0  0  0
 14 73  1  0  0  0  0
 29 74  1  0  0  0  0
 29 75  1  0  0  0  0
 30 76  1  0  0  0  0
 30 77  1  0  0  0  0
 30 78  1  0  0  0  0
 42 79  1  0  0  0  0
 42 80  1  0  0  0  0
 43 81  1  0  0  0  0
 43 82  1  0  0  0  0
 43 83  1  0  0  0  0
 44 84  1  0  0  0  0
 44 85  1  0  0  0  0
 45 86  1  0  0  0  0
 45 87  1  0  0  0  0
 45 88  1  0  0  0  0
 46 89  1  0  0  0  0
 53 90  1  0  0  0  0
 54 91  1  0  0  0  0
 55 92  1  0  0  0  0
M  END
