
  xtb     02012216013D
 energy: -190.177511175471 gnorm: 0.000308459972 xtb: 6.4.1 (unknown)
103116  0     0  0            999 V2000
   -5.5976    8.5672    0.3371 C   0  0  0  0  0  0  0  0  0  0  0  0
   -5.6982    9.3046    1.4748 C   0  0  0  0  0  0  0  0  0  0  0  0
   -6.2806   10.9654    1.4402 S   0  0  0  0  0  0  0  0  0  0  0  0
   -6.0402   11.1512    3.2004 C   0  0  0  0  0  0  0  0  0  0  0  0
   -6.2751   12.1507    3.8149 O   0  0  0  0  0  0  0  0  0  0  0  0
   -5.5635    9.9749    3.7047 N   0  0  0  0  0  0  0  0  0  0  0  0
   -5.2415    9.8505    5.1172 C   0  0  0  0  0  0  0  0  0  0  0  0
   -3.8139   10.3027    5.3948 C   0  0  0  0  0  0  0  0  0  0  0  0
   -5.3529    8.9215    2.8334 C   0  0  0  0  0  0  0  0  0  0  0  0
   -4.9407    7.8411    3.2057 O   0  0  0  0  0  0  0  0  0  0  0  0
   -5.1339    7.2481    0.1390 C   0  0  0  0  0  0  0  0  0  0  0  0
   -4.5884    6.1504    1.3916 S   0  0  0  0  0  0  0  0  0  0  0  0
   -4.2335    4.9401    0.2098 C   0  0  0  0  0  0  0  0  0  0  0  0
   -3.6872    3.6750    0.4606 C   0  0  0  0  0  0  0  0  0  0  0  0
   -3.2901    3.0778    2.0568 S   0  0  0  0  0  0  0  0  0  0  0  0
   -2.6877    1.6299    1.3482 C   0  0  0  0  0  0  0  0  0  0  0  0
   -2.0815    0.4285    1.7503 C   0  0  0  0  0  0  0  0  0  0  0  0
   -1.8254   -0.1051    3.0319 C   0  0  0  0  0  0  0  0  0  0  0  0
   -1.1965   -1.3912    3.1319 C   0  0  0  0  0  0  0  0  0  0  0  0
   -1.0580   -1.7914    4.3855 N   0  0  0  0  0  0  0  0  0  0  0  0
   -1.6656   -0.6471    5.3584 S   0  0  0  0  0  0  0  0  0  0  0  0
   -2.1247    0.4045    4.2160 N   0  0  0  0  0  0  0  0  0  0  0  0
   -0.7293   -2.0080    1.9505 C   0  0  0  0  0  0  0  0  0  0  0  0
    0.1544   -3.0793    1.7656 C   0  0  0  0  0  0  0  0  0  0  0  0
    0.9938   -4.2317    2.7287 S   0  0  0  0  0  0  0  0  0  0  0  0
    1.8582   -4.7651    1.3031 C   0  0  0  0  0  0  0  0  0  0  0  0
    2.8630   -5.7390    1.3172 C   0  0  0  0  0  0  0  0  0  0  0  0
    3.5893   -6.0904    0.1636 C   0  0  0  0  0  0  0  0  0  0  0  0
    3.2279   -5.4256   -1.0331 C   0  0  0  0  0  0  0  0  0  0  0  0
    3.7105   -5.5309   -2.2715 N   0  0  0  0  0  0  0  0  0  0  0  0
    3.0160   -4.6711   -2.9667 N   0  0  0  0  0  0  0  0  0  0  0  0
    3.2660   -4.4459   -4.3609 C   0  0  0  0  0  0  0  0  0  0  0  0
    4.3220   -3.3603   -4.5476 C   0  0  0  0  0  0  0  0  0  0  0  0
    2.1105   -3.9887   -2.3105 N   0  0  0  0  0  0  0  0  0  0  0  0
    2.1970   -4.4381   -1.0533 C   0  0  0  0  0  0  0  0  0  0  0  0
    1.4899   -4.0835    0.1243 C   0  0  0  0  0  0  0  0  0  0  0  0
    0.4893   -3.1251    0.4095 C   0  0  0  0  0  0  0  0  0  0  0  0
   -0.2022   -2.1446   -0.2537 N   0  0  0  0  0  0  0  0  0  0  0  0
   -0.9621   -1.4484    0.6636 C   0  0  0  0  0  0  0  0  0  0  0  0
   -1.7755   -0.2867    0.5614 C   0  0  0  0  0  0  0  0  0  0  0  0
   -2.2589    0.4294   -0.5269 N   0  0  0  0  0  0  0  0  0  0  0  0
   -2.7930    1.6018   -0.0428 C   0  0  0  0  0  0  0  0  0  0  0  0
   -3.3767    2.7712   -0.5754 C   0  0  0  0  0  0  0  0  0  0  0  0
   -3.6644    3.1961   -1.8980 C   0  0  0  0  0  0  0  0  0  0  0  0
   -4.2415    4.4753   -2.1546 C   0  0  0  0  0  0  0  0  0  0  0  0
   -4.5271    5.3754   -1.0975 C   0  0  0  0  0  0  0  0  0  0  0  0
   -5.0400    6.6726   -1.1181 C   0  0  0  0  0  0  0  0  0  0  0  0
   -4.3914    4.5926   -3.4746 N   0  0  0  0  0  0  0  0  0  0  0  0
   -3.9321    3.4680   -3.9571 N   0  0  0  0  0  0  0  0  0  0  0  0
   -3.9669    3.1738   -5.3603 C   0  0  0  0  0  0  0  0  0  0  0  0
   -5.2132    2.3645   -5.7076 C   0  0  0  0  0  0  0  0  0  0  0  0
   -3.4860    2.5995   -3.0812 N   0  0  0  0  0  0  0  0  0  0  0  0
   -2.8123   -0.1137   -1.7511 C   0  0  0  0  0  0  0  0  0  0  0  0
   -4.2433   -0.6035   -1.5241 C   0  0  0  0  0  0  0  0  0  0  0  0
    0.0217   -1.8643   -1.6506 C   0  0  0  0  0  0  0  0  0  0  0  0
   -0.7487   -2.8356   -2.5482 C   0  0  0  0  0  0  0  0  0  0  0  0
    4.5924   -7.0373    0.4056 C   0  0  0  0  0  0  0  0  0  0  0  0
    4.6530   -7.4330    1.7232 C   0  0  0  0  0  0  0  0  0  0  0  0
    3.4213   -6.6208    2.6913 S   0  0  0  0  0  0  0  0  0  0  0  0
    5.4950   -8.3321    2.4197 C   0  0  0  0  0  0  0  0  0  0  0  0
    6.6064   -9.0111    2.0294 C   0  0  0  0  0  0  0  0  0  0  0  0
    7.4300  -10.0449    3.1986 S   0  0  0  0  0  0  0  0  0  0  0  0
    8.7250  -10.4448    2.0407 C   0  0  0  0  0  0  0  0  0  0  0  0
    9.6539  -11.1616    2.2779 O   0  0  0  0  0  0  0  0  0  0  0  0
    8.4652   -9.8095    0.8611 N   0  0  0  0  0  0  0  0  0  0  0  0
    9.3901   -9.9280   -0.2541 C   0  0  0  0  0  0  0  0  0  0  0  0
   10.5026   -8.8924   -0.1538 C   0  0  0  0  0  0  0  0  0  0  0  0
    7.3300   -9.0191    0.7601 C   0  0  0  0  0  0  0  0  0  0  0  0
    7.0414   -8.4454   -0.2674 O   0  0  0  0  0  0  0  0  0  0  0  0
   -5.9045    9.0658   -0.5756 H   0  0  0  0  0  0  0  0  0  0  0  0
   -5.3659    8.7963    5.3752 H   0  0  0  0  0  0  0  0  0  0  0  0
   -5.9540   10.4627    5.6739 H   0  0  0  0  0  0  0  0  0  0  0  0
   -3.1109    9.6979    4.8264 H   0  0  0  0  0  0  0  0  0  0  0  0
   -3.6892   11.3479    5.1206 H   0  0  0  0  0  0  0  0  0  0  0  0
   -3.5950   10.1904    6.4527 H   0  0  0  0  0  0  0  0  0  0  0  0
    3.6113   -5.3896   -4.7868 H   0  0  0  0  0  0  0  0  0  0  0  0
    2.3221   -4.1471   -4.8215 H   0  0  0  0  0  0  0  0  0  0  0  0
    3.9849   -2.4263   -4.1043 H   0  0  0  0  0  0  0  0  0  0  0  0
    4.5045   -3.2003   -5.6063 H   0  0  0  0  0  0  0  0  0  0  0  0
    5.2525   -3.6601   -4.0722 H   0  0  0  0  0  0  0  0  0  0  0  0
   -5.3231    7.1807   -2.0222 H   0  0  0  0  0  0  0  0  0  0  0  0
   -3.0653    2.6088   -5.6072 H   0  0  0  0  0  0  0  0  0  0  0  0
   -3.9678    4.1278   -5.8900 H   0  0  0  0  0  0  0  0  0  0  0  0
   -5.2210    1.4313   -5.1495 H   0  0  0  0  0  0  0  0  0  0  0  0
   -6.1084    2.9295   -5.4597 H   0  0  0  0  0  0  0  0  0  0  0  0
   -5.2242    2.1393   -6.7700 H   0  0  0  0  0  0  0  0  0  0  0  0
   -2.8144    0.6882   -2.4936 H   0  0  0  0  0  0  0  0  0  0  0  0
   -2.2103   -0.9395   -2.1069 H   0  0  0  0  0  0  0  0  0  0  0  0
   -4.8830    0.2183   -1.2121 H   0  0  0  0  0  0  0  0  0  0  0  0
   -4.2667   -1.3719   -0.7533 H   0  0  0  0  0  0  0  0  0  0  0  0
   -4.6395   -1.0207   -2.4461 H   0  0  0  0  0  0  0  0  0  0  0  0
   -0.2361   -0.8223   -1.8441 H   0  0  0  0  0  0  0  0  0  0  0  0
    1.0880   -1.9955   -1.8507 H   0  0  0  0  0  0  0  0  0  0  0  0
   -0.7488   -2.4771   -3.5740 H   0  0  0  0  0  0  0  0  0  0  0  0
   -1.7760   -2.9639   -2.2136 H   0  0  0  0  0  0  0  0  0  0  0  0
   -0.2614   -3.8057   -2.5240 H   0  0  0  0  0  0  0  0  0  0  0  0
    5.2514   -7.4085   -0.3561 H   0  0  0  0  0  0  0  0  0  0  0  0
    5.2089   -8.4858    3.4546 H   0  0  0  0  0  0  0  0  0  0  0  0
    8.8051   -9.7759   -1.1641 H   0  0  0  0  0  0  0  0  0  0  0  0
    9.8039  -10.9384   -0.2355 H   0  0  0  0  0  0  0  0  0  0  0  0
   11.0704   -9.0380    0.7623 H   0  0  0  0  0  0  0  0  0  0  0  0
   11.1744   -8.9943   -1.0012 H   0  0  0  0  0  0  0  0  0  0  0  0
   10.0834   -7.8888   -0.1576 H   0  0  0  0  0  0  0  0  0  0  0  0
  1  2  2  0  0  0  0
  2  3  1  0  0  0  0
  3  4  1  0  0  0  0
  4  5  2  0  0  0  0
  4  6  1  0  0  0  0
  6  7  1  0  0  0  0
  7  8  1  0  0  0  0
  6  9  1  0  0  0  0
  9 10  2  0  0  0  0
  1 11  1  0  0  0  0
 11 12  1  0  0  0  0
 12 13  1  0  0  0  0
 13 14  1  0  0  0  0
 14 15  1  0  0  0  0
 15 16  1  0  0  0  0
 16 17  1  0  0  0  0
 17 18  1  0  0  0  0
 18 19  1  0  0  0  0
 19 20  2  0  0  0  0
 20 21  1  0  0  0  0
 21 22  1  0  0  0  0
 19 23  1  0  0  0  0
 23 24  1  0  0  0  0
 24 25  1  0  0  0  0
 25 26  1  0  0  0  0
 26 27  1  0  0  0  0
 27 28  2  0  0  0  0
 28 29  1  0  0  0  0
 29 30  2  0  0  0  0
 30 31  1  0  0  0  0
 31 32  1  0  0  0  0
 32 33  1  0  0  0  0
 31 34  1  0  0  0  0
 34 35  2  0  0  0  0
 35 36  1  0  0  0  0
 36 37  1  0  0  0  0
 37 38  1  0  0  0  0
 38 39  1  0  0  0  0
 39 40  1  0  0  0  0
 40 41  1  0  0  0  0
 41 42  1  0  0  0  0
 42 43  1  0  0  0  0
 43 44  1  0  0  0  0
 44 45  1  0  0  0  0
 45 46  1  0  0  0  0
 46 47  1  0  0  0  0
 45 48  2  0  0  0  0
 48 49  1  0  0  0  0
 49 50  1  0  0  0  0
 50 51  1  0  0  0  0
 49 52  1  0  0  0  0
 41 53  1  0  0  0  0
 53 54  1  0  0  0  0
 38 55  1  0  0  0  0
 55 56  1  0  0  0  0
 28 57  1  0  0  0  0
 57 58  2  0  0  0  0
 58 59  1  0  0  0  0
 58 60  1  0  0  0  0
 60 61  2  0  0  0  0
 61 62  1  0  0  0  0
 62 63  1  0  0  0  0
 63 64  2  0  0  0  0
 63 65  1  0  0  0  0
 65 66  1  0  0  0  0
 66 67  1  0  0  0  0
 65 68  1  0  0  0  0
 68 69  2  0  0  0  0
  9  2  1  0  0  0  0
 47 11  2  0  0  0  0
 68 61  1  0  0  0  0
 46 13  2  0  0  0  0
 43 14  2  0  0  0  0
 52 44  2  0  0  0  0
 42 16  2  0  0  0  0
 40 17  2  0  0  0  0
 22 18  2  0  0  0  0
 39 23  2  0  0  0  0
 37 24  2  0  0  0  0
 36 26  2  0  0  0  0
 59 27  1  0  0  0  0
 35 29  1  0  0  0  0
  1 70  1  0  0  0  0
  7 71  1  0  0  0  0
  7 72  1  0  0  0  0
  8 73  1  0  0  0  0
  8 74  1  0  0  0  0
  8 75  1  0  0  0  0
 32 76  1  0  0  0  0
 32 77  1  0  0  0  0
 33 78  1  0  0  0  0
 33 79  1  0  0  0  0
 33 80  1  0  0  0  0
 47 81  1  0  0  0  0
 50 82  1  0  0  0  0
 50 83  1  0  0  0  0
 51 84  1  0  0  0  0
 51 85  1  0  0  0  0
 51 86  1  0  0  0  0
 53 87  1  0  0  0  0
 53 88  1  0  0  0  0
 54 89  1  0  0  0  0
 54 90  1  0  0  0  0
 54 91  1  0  0  0  0
 55 92  1  0  0  0  0
 55 93  1  0  0  0  0
 56 94  1  0  0  0  0
 56 95  1  0  0  0  0
 56 96  1  0  0  0  0
 57 97  1  0  0  0  0
 60 98  1  0  0  0  0
 66 99  1  0  0  0  0
 66100  1  0  0  0  0
 67101  1  0  0  0  0
 67102  1  0  0  0  0
 67103  1  0  0  0  0
M  END
