
  xtb     02112206413D
 energy: -144.563403462684 gnorm: 0.000935541045 xtb: 6.4.1 (unknown)
 71 80  0     0  0            999 V2000
    6.4708    1.8121   -7.5560 C   0  0  0  0  0  0  0  0  0  0  0  0
    6.7302    3.1522   -7.4582 C   0  0  0  0  0  0  0  0  0  0  0  0
    6.2368    3.9176   -6.3887 C   0  0  0  0  0  0  0  0  0  0  0  0
    5.8100    4.4957   -5.4903 N   0  0  0  0  0  0  0  0  0  0  0  0
    7.5085    3.8224   -8.4232 C   0  0  0  0  0  0  0  0  0  0  0  0
    8.1437    4.3627   -9.2103 N   0  0  0  0  0  0  0  0  0  0  0  0
    5.7144    1.0221   -6.6658 C   0  0  0  0  0  0  0  0  0  0  0  0
    5.5138   -0.3401   -6.8372 C   0  0  0  0  0  0  0  0  0  0  0  0
    4.7425   -0.9448   -5.8526 C   0  0  0  0  0  0  0  0  0  0  0  0
    4.2503   -2.6137   -5.6573 S   0  0  0  0  0  0  0  0  0  0  0  0
    3.4172   -2.1691   -4.2115 C   0  0  0  0  0  0  0  0  0  0  0  0
    2.6672   -2.7704   -3.1935 C   0  0  0  0  0  0  0  0  0  0  0  0
    2.3617   -4.1295   -2.9618 C   0  0  0  0  0  0  0  0  0  0  0  0
    1.6555   -4.4826   -1.7681 C   0  0  0  0  0  0  0  0  0  0  0  0
    1.4787   -5.7895   -1.6519 N   0  0  0  0  0  0  0  0  0  0  0  0
    2.1405   -6.5121   -2.9390 S   0  0  0  0  0  0  0  0  0  0  0  0
    2.6807   -5.1863   -3.6929 N   0  0  0  0  0  0  0  0  0  0  0  0
    1.2076   -3.4518   -0.9129 C   0  0  0  0  0  0  0  0  0  0  0  0
    0.4174   -3.5107    0.2415 C   0  0  0  0  0  0  0  0  0  0  0  0
    0.1739   -2.1886    0.6366 C   0  0  0  0  0  0  0  0  0  0  0  0
    0.8096   -1.3220   -0.2127 N   0  0  0  0  0  0  0  0  0  0  0  0
    0.4259    0.0717   -0.2062 C   0  0  0  0  0  0  0  0  0  0  0  0
   -0.4722    0.4120   -1.3922 C   0  0  0  0  0  0  0  0  0  0  0  0
    1.4586   -2.0731   -1.1814 C   0  0  0  0  0  0  0  0  0  0  0  0
    2.2800   -1.7352   -2.2905 C   0  0  0  0  0  0  0  0  0  0  0  0
    2.8171   -0.5433   -2.7506 N   0  0  0  0  0  0  0  0  0  0  0  0
    3.5086   -0.8072   -3.9025 C   0  0  0  0  0  0  0  0  0  0  0  0
    4.2739   -0.0952   -4.8331 C   0  0  0  0  0  0  0  0  0  0  0  0
    4.8447    1.6596   -5.0951 Se  0  0  0  0  0  2  0  0  0  0  0  0
    3.0198    0.7186   -2.0766 C   0  0  0  0  0  0  0  0  0  0  0  0
    3.8813    0.5546   -0.8273 C   0  0  0  0  0  0  0  0  0  0  0  0
   -0.6531   -2.1143    1.7598 C   0  0  0  0  0  0  0  0  0  0  0  0
   -1.0205   -3.3977    2.2093 C   0  0  0  0  0  0  0  0  0  0  0  0
   -0.3465   -4.6906    1.2418 S   0  0  0  0  0  0  0  0  0  0  0  0
   -1.8443   -3.4366    3.3271 C   0  0  0  0  0  0  0  0  0  0  0  0
   -2.2269   -2.1958    3.8141 C   0  0  0  0  0  0  0  0  0  0  0  0
   -1.4167   -0.7904    2.8222 Se  0  0  0  0  0  2  0  0  0  0  0  0
   -2.9983   -2.0013    4.9759 C   0  0  0  0  0  0  0  0  0  0  0  0
   -3.5914   -0.8666    5.4537 C   0  0  0  0  0  0  0  0  0  0  0  0
   -3.9012   -0.7558    6.9003 C   0  0  0  0  0  0  0  0  0  0  0  0
   -3.9108   -1.6461    7.7177 O   0  0  0  0  0  0  0  0  0  0  0  0
   -4.1332    0.6908    7.1314 C   0  0  0  0  0  0  0  0  0  0  0  0
   -4.3463    1.3506    8.3255 C   0  0  0  0  0  0  0  0  0  0  0  0
   -4.5103    2.7264    8.2803 C   0  0  0  0  0  0  0  0  0  0  0  0
   -4.7163    3.4063    9.4143 F   0  0  0  0  0  0  0  0  0  0  0  0
   -4.4602    3.4121    7.0658 C   0  0  0  0  0  0  0  0  0  0  0  0
   -4.6076    4.7415    7.0557 F   0  0  0  0  0  0  0  0  0  0  0  0
   -4.2574    2.7494    5.8642 C   0  0  0  0  0  0  0  0  0  0  0  0
   -4.0933    1.3747    5.9032 C   0  0  0  0  0  0  0  0  0  0  0  0
   -3.9107    0.3964    4.8306 C   0  0  0  0  0  0  0  0  0  0  0  0
   -4.2809    0.5856    3.5218 C   0  0  0  0  0  0  0  0  0  0  0  0
   -4.4204   -0.4776    2.6049 C   0  0  0  0  0  0  0  0  0  0  0  0
   -4.5865   -1.3241    1.8466 N   0  0  0  0  0  0  0  0  0  0  0  0
   -4.6541    1.8314    2.9800 C   0  0  0  0  0  0  0  0  0  0  0  0
   -4.9343    2.8278    2.4838 N   0  0  0  0  0  0  0  0  0  0  0  0
    6.8889    1.2870   -8.4077 H   0  0  0  0  0  0  0  0  0  0  0  0
    5.9289   -0.8810   -7.6704 H   0  0  0  0  0  0  0  0  0  0  0  0
    1.3049    0.7139   -0.1623 H   0  0  0  0  0  0  0  0  0  0  0  0
   -0.1333    0.2366    0.7230 H   0  0  0  0  0  0  0  0  0  0  0  0
   -1.3912   -0.1673   -1.3393 H   0  0  0  0  0  0  0  0  0  0  0  0
   -0.7294    1.4675   -1.3723 H   0  0  0  0  0  0  0  0  0  0  0  0
    0.0191    0.1849   -2.3358 H   0  0  0  0  0  0  0  0  0  0  0  0
    3.5411    1.3730   -2.7854 H   0  0  0  0  0  0  0  0  0  0  0  0
    2.0646    1.1941   -1.8548 H   0  0  0  0  0  0  0  0  0  0  0  0
    4.8663    0.1848   -1.1026 H   0  0  0  0  0  0  0  0  0  0  0  0
    3.4367   -0.1533   -0.1311 H   0  0  0  0  0  0  0  0  0  0  0  0
    4.0001    1.5134   -0.3304 H   0  0  0  0  0  0  0  0  0  0  0  0
   -2.1969   -4.3539    3.7660 H   0  0  0  0  0  0  0  0  0  0  0  0
   -3.0563   -2.8582    5.6420 H   0  0  0  0  0  0  0  0  0  0  0  0
   -4.3863    0.8202    9.2636 H   0  0  0  0  0  0  0  0  0  0  0  0
   -4.2240    3.3190    4.9495 H   0  0  0  0  0  0  0  0  0  0  0  0
  1  2  2  0  0  0  0
  2  3  1  0  0  0  0
  3  4  3  0  0  0  0
  2  5  1  0  0  0  0
  5  6  3  0  0  0  0
  1  7  1  0  0  0  0
  7  8  2  0  0  0  0
  8  9  1  0  0  0  0
  9 10  1  0  0  0  0
 10 11  1  0  0  0  0
 11 12  1  0  0  0  0
 12 13  1  0  0  0  0
 13 14  1  0  0  0  0
 14 15  2  0  0  0  0
 15 16  1  0  0  0  0
 16 17  1  0  0  0  0
 14 18  1  0  0  0  0
 18 19  1  0  0  0  0
 19 20  2  0  0  0  0
 20 21  1  0  0  0  0
 21 22  1  0  0  0  0
 22 23  1  0  0  0  0
 21 24  1  0  0  0  0
 24 25  1  0  0  0  0
 25 26  1  0  0  0  0
 26 27  1  0  0  0  0
 27 28  1  0  0  0  0
 28 29  1  0  0  0  0
 26 30  1  0  0  0  0
 30 31  1  0  0  0  0
 20 32  1  0  0  0  0
 32 33  2  0  0  0  0
 33 34  1  0  0  0  0
 33 35  1  0  0  0  0
 35 36  2  0  0  0  0
 36 37  1  0  0  0  0
 36 38  1  0  0  0  0
 38 39  2  0  0  0  0
 39 40  1  0  0  0  0
 40 41  2  0  0  0  0
 40 42  1  0  0  0  0
 42 43  2  0  0  0  0
 43 44  1  0  0  0  0
 44 45  1  0  0  0  0
 44 46  2  0  0  0  0
 46 47  1  0  0  0  0
 46 48  1  0  0  0  0
 48 49  2  0  0  0  0
 49 50  1  0  0  0  0
 50 51  2  0  0  0  0
 51 52  1  0  0  0  0
 52 53  3  0  0  0  0
 51 54  1  0  0  0  0
 54 55  3  0  0  0  0
 29  7  1  0  0  0  0
 37 32  1  0  0  0  0
 50 39  1  0  0  0  0
 28  9  2  0  0  0  0
 49 42  1  0  0  0  0
 27 11  2  0  0  0  0
 25 12  2  0  0  0  0
 17 13  2  0  0  0  0
 24 18  2  0  0  0  0
 34 19  1  0  0  0  0
  1 56  1  0  0  0  0
  8 57  1  0  0  0  0
 22 58  1  0  0  0  0
 22 59  1  0  0  0  0
 23 60  1  0  0  0  0
 23 61  1  0  0  0  0
 23 62  1  0  0  0  0
 30 63  1  0  0  0  0
 30 64  1  0  0  0  0
 31 65  1  0  0  0  0
 31 66  1  0  0  0  0
 31 67  1  0  0  0  0
 35 68  1  0  0  0  0
 38 69  1  0  0  0  0
 43 70  1  0  0  0  0
 48 71  1  0  0  0  0
M  END
