116

C          4.84480        7.90020        3.50310
C          5.55290        9.06590        3.54530
C          6.21460        9.71990        2.48730
N          6.72470       10.36490        1.68670
C          5.59450        9.79230        4.75760
N          5.63570       10.36470        5.75070
C          4.67930        6.98950        2.43620
C          5.39140        6.77170        1.26330
C          6.66420        7.37970        0.85280
C          6.67620        8.08290       -0.35030
C          7.84170        8.64380       -0.82740
C          9.01820        8.47850       -0.11680
C          9.01720        7.74770        1.05470
C          7.85100        7.18990        1.56580
C          7.92930        6.35440        2.81710
C          8.46440        7.13290        4.01960
C          4.77650        5.78860        0.47290
S          5.18890        5.13150       -1.09260
C          3.81340        4.08850       -0.98170
C          3.14340        3.13440       -1.76210
C          3.33010        2.72690       -3.10180
C          2.37570        1.83370       -3.69370
N          2.63280        1.59410       -4.96970
S          3.96260        2.41500       -5.38940
N          4.26280        3.11080       -3.95890
C          1.36510        1.27580       -2.87880
C          0.43080        0.26040       -3.13010
S         -0.09510       -0.74160       -4.44010
C         -1.15200       -1.58590       -3.32350
C         -2.00290       -2.67530       -3.47030
C         -2.22060       -3.42650       -4.71550
C         -2.93540       -2.88220       -5.78400
C         -3.58960       -1.53400       -5.68270
C         -4.91450       -1.64250       -4.92400
C         -3.11150       -3.65550       -6.92320
C         -2.59350       -4.93380       -7.01330
C         -1.88700       -5.46810       -5.95010
C         -1.70600       -4.71710       -4.80550
C         -2.60250       -3.03240       -2.25110
S         -2.09070       -1.99540       -0.92520
C         -1.09330       -1.09460       -2.00780
C         -0.19270       -0.02960       -1.91100
N          0.28210        0.79930       -0.92730
C          1.24100        1.61730       -1.50110
C          2.04930        2.66200       -0.98350
N          2.02340        3.36260        0.20790
C          3.09090        4.22190        0.21040
C          3.63250        5.20950        1.03870
S          3.28900        5.90290        2.57790
C          0.93390        3.55820        1.13820
C          1.24450        2.99640        2.52430
C          0.15420        0.37560        0.45120
C          1.38890       -0.40470        0.89640
C         -3.53400       -4.07450       -2.16850
C         -4.19120       -4.59650       -1.08520
C         -3.99460       -4.20730        0.31330
O         -3.30310       -3.29650        0.74070
C         -4.79250       -5.14570        1.11920
C         -4.88820       -5.18740        2.50780
C         -5.70820       -6.18280        2.98200
C         -6.38020       -7.07520        2.13640
C         -6.29280       -7.04580        0.76450
C         -5.46830       -6.03660        0.26000
C         -5.14150       -5.68960       -1.12260
C         -5.67830       -6.27490       -2.24080
C         -6.59910       -7.34310       -2.21570
N         -7.34490       -8.21440       -2.27320
C         -5.42690       -5.89020       -3.57530
N         -5.30010       -5.63460       -4.68840
C         -7.02870       -7.80220        3.28740
C         -8.51900       -7.50000        3.58150
C         -8.78110       -6.10310        3.07580
C         -8.14660       -5.25700        3.87620
C         -7.44340       -6.06670        4.93750
C         -8.43610       -7.22990        5.09240
C         -6.28120       -6.80670        4.22970
H          4.29490        7.64850        4.40430
H          5.75150        8.20670       -0.89450
H          7.83320        9.20220       -1.75030
H          9.93830        8.90980       -0.48110
H          9.94500        7.59550        1.58640
H          8.59900        5.51070        2.62310
H          6.94930        5.94210        3.06190
H          7.85840        8.01370        4.21690
H          9.48540        7.46200        3.84760
H          8.45260        6.50390        4.90700
H         -3.78270       -1.15150       -6.68630
H         -2.93570       -0.82570       -5.17180
H         -5.43270       -0.68640       -4.92700
H         -4.74310       -1.93880       -3.89130
H         -5.55360       -2.38960       -5.38890
H         -3.67380       -3.24690       -7.75020
H         -2.74780       -5.51670       -7.90860
H         -1.48380       -6.46780       -6.00790
H         -1.15610       -5.12330       -3.96770
H          0.02870        3.12440        0.71160
H          0.76630        4.63790        1.22980
H          0.37090        3.09400        3.16300
H          2.06110        3.55190        2.97730
H          1.53320        1.95050        2.47660
H         -0.72520       -0.27070        0.50040
H         -0.01930        1.22200        1.10960
H          2.28120        0.21520        0.83200
H          1.26420       -0.74280        1.92140
H          1.53040       -1.27560        0.26070
H         -3.73620       -4.53080       -3.13030
H         -4.34990       -4.48250        3.12200
H         -6.81300       -7.74320        0.12970
H         -6.79490       -8.86130        3.37550
H         -9.20970       -8.26900        3.24660
H         -9.33600       -5.88430        2.18240
H         -8.06530       -4.18960        3.78500
H         -7.15540       -5.53100        5.83830
H         -8.03700       -8.06810        5.66180
H         -9.38870       -6.91680        5.51710
H         -5.55960       -7.21590        4.93430
