
  xtb     02032200193D
 energy: -175.092823740259 gnorm: 0.000498849166 xtb: 6.4.1 (unknown)
 98110  0     0  0            999 V2000
   10.5992   -0.2487    2.5634 C   0  0  0  0  0  0  0  0  0  0  0  0
   11.7612    0.4653    2.4775 C   0  0  0  0  0  0  0  0  0  0  0  0
   12.9814   -0.2320    2.3339 C   0  0  0  0  0  0  0  0  0  0  0  0
   13.9694   -0.8049    2.2246 N   0  0  0  0  0  0  0  0  0  0  0  0
   11.9090    1.8633    2.4107 C   0  0  0  0  0  0  0  0  0  0  0  0
   12.1234    2.9825    2.2690 N   0  0  0  0  0  0  0  0  0  0  0  0
    9.2821    0.2171    2.7474 C   0  0  0  0  0  0  0  0  0  0  0  0
    8.8032    1.4424    3.2280 C   0  0  0  0  0  0  0  0  0  0  0  0
    9.6633    2.3515    3.6862 O   0  0  0  0  0  0  0  0  0  0  0  0
    9.1741    3.6097    4.1325 C   0  0  0  0  0  0  0  0  0  0  0  0
   10.3626    4.4185    4.6202 C   0  0  0  0  0  0  0  0  0  0  0  0
    7.3943    1.4897    3.2163 C   0  0  0  0  0  0  0  0  0  0  0  0
    6.2083    2.7158    3.6386 S   0  0  0  0  0  0  0  0  0  0  0  0
    4.9443    1.6406    3.1640 C   0  0  0  0  0  0  0  0  0  0  0  0
    3.5403    1.6168    3.0875 C   0  0  0  0  0  0  0  0  0  0  0  0
    2.5306    2.5032    3.5275 C   0  0  0  0  0  0  0  0  0  0  0  0
    1.1504    2.1080    3.4114 C   0  0  0  0  0  0  0  0  0  0  0  0
    0.3278    3.0038    3.9330 N   0  0  0  0  0  0  0  0  0  0  0  0
    1.2009    4.2367    4.5089 S   0  0  0  0  0  0  0  0  0  0  0  0
    2.6695    3.6781    4.1207 N   0  0  0  0  0  0  0  0  0  0  0  0
    0.8296    0.9149    2.7232 C   0  0  0  0  0  0  0  0  0  0  0  0
   -0.3868    0.3496    2.2960 C   0  0  0  0  0  0  0  0  0  0  0  0
   -2.0868    0.6353    2.4349 S   0  0  0  0  0  0  0  0  0  0  0  0
   -2.3718   -0.7243    1.3798 C   0  0  0  0  0  0  0  0  0  0  0  0
   -3.5627   -1.2893    0.8705 C   0  0  0  0  0  0  0  0  0  0  0  0
   -4.7224   -0.8301    1.3432 O   0  0  0  0  0  0  0  0  0  0  0  0
   -5.9200   -1.5817    1.3059 C   0  0  0  0  0  0  0  0  0  0  0  0
   -5.8148   -2.9297    2.0089 C   0  0  0  0  0  0  0  0  0  0  0  0
   -3.2826   -2.3534    0.0055 C   0  0  0  0  0  0  0  0  0  0  0  0
   -1.5509   -2.7217   -0.0420 S   0  0  0  0  0  0  0  0  0  0  0  0
   -1.2047   -1.3631    0.9611 C   0  0  0  0  0  0  0  0  0  0  0  0
   -0.0650   -0.7504    1.4896 C   0  0  0  0  0  0  0  0  0  0  0  0
    1.2974   -0.9091    1.4195 N   0  0  0  0  0  0  0  0  0  0  0  0
    1.8560    0.0913    2.1933 C   0  0  0  0  0  0  0  0  0  0  0  0
    3.2014    0.3599    2.5243 C   0  0  0  0  0  0  0  0  0  0  0  0
    4.3475   -0.3897    2.3354 N   0  0  0  0  0  0  0  0  0  0  0  0
    5.4067    0.3991    2.7125 C   0  0  0  0  0  0  0  0  0  0  0  0
    6.8014    0.3107    2.7475 C   0  0  0  0  0  0  0  0  0  0  0  0
    7.9700   -0.8846    2.3379 S   0  0  0  0  0  0  0  0  0  0  0  0
    4.4433   -1.8351    2.3947 C   0  0  0  0  0  0  0  0  0  0  0  0
    4.8564   -2.3059    3.7887 C   0  0  0  0  0  0  0  0  0  0  0  0
    1.8927   -1.5256    0.2497 C   0  0  0  0  0  0  0  0  0  0  0  0
    1.5179   -0.7679   -1.0236 C   0  0  0  0  0  0  0  0  0  0  0  0
   -4.1048   -3.1037   -0.8572 C   0  0  0  0  0  0  0  0  0  0  0  0
   -5.1748   -2.5988   -1.5486 C   0  0  0  0  0  0  0  0  0  0  0  0
   -5.3339   -1.1573   -1.8560 C   0  0  0  0  0  0  0  0  0  0  0  0
   -4.7183   -0.2263   -1.3789 O   0  0  0  0  0  0  0  0  0  0  0  0
   -6.3198   -1.1017   -2.9541 C   0  0  0  0  0  0  0  0  0  0  0  0
   -6.7509    0.0367   -3.6298 C   0  0  0  0  0  0  0  0  0  0  0  0
   -7.6647   -0.2159   -4.6250 C   0  0  0  0  0  0  0  0  0  0  0  0
   -8.1163   -1.5067   -4.9312 C   0  0  0  0  0  0  0  0  0  0  0  0
   -7.7010   -2.6391   -4.2715 C   0  0  0  0  0  0  0  0  0  0  0  0
   -6.7716   -2.4034   -3.2554 C   0  0  0  0  0  0  0  0  0  0  0  0
   -6.1130   -3.3427   -2.3544 C   0  0  0  0  0  0  0  0  0  0  0  0
   -6.3998   -4.6751   -2.1994 C   0  0  0  0  0  0  0  0  0  0  0  0
   -7.3334   -5.3875   -2.9764 C   0  0  0  0  0  0  0  0  0  0  0  0
   -8.0744   -6.0196   -3.5845 N   0  0  0  0  0  0  0  0  0  0  0  0
   -5.8220   -5.4689   -1.1875 C   0  0  0  0  0  0  0  0  0  0  0  0
   -5.4084   -6.1384   -0.3508 N   0  0  0  0  0  0  0  0  0  0  0  0
   -9.0031   -1.0176   -6.0485 C   0  0  0  0  0  0  0  0  0  0  0  0
   -8.5071   -1.2161   -7.5023 C   0  0  0  0  0  0  0  0  0  0  0  0
   -7.0003   -1.2559   -7.4405 C   0  0  0  0  0  0  0  0  0  0  0  0
   -6.5745   -0.0341   -7.1492 C   0  0  0  0  0  0  0  0  0  0  0  0
   -7.7859    0.8543   -7.0088 C   0  0  0  0  0  0  0  0  0  0  0  0
   -8.7181    0.2064   -8.0450 C   0  0  0  0  0  0  0  0  0  0  0  0
   -8.5021    0.4208   -5.7055 C   0  0  0  0  0  0  0  0  0  0  0  0
   10.6895   -1.3230    2.4408 H   0  0  0  0  0  0  0  0  0  0  0  0
    8.6755    4.1215    3.3006 H   0  0  0  0  0  0  0  0  0  0  0  0
    8.4472    3.4603    4.9410 H   0  0  0  0  0  0  0  0  0  0  0  0
   11.1007    4.4945    3.8264 H   0  0  0  0  0  0  0  0  0  0  0  0
   10.8236    3.9302    5.4744 H   0  0  0  0  0  0  0  0  0  0  0  0
   10.0327    5.4115    4.9099 H   0  0  0  0  0  0  0  0  0  0  0  0
   -6.6318   -0.9375    1.8292 H   0  0  0  0  0  0  0  0  0  0  0  0
   -6.2705   -1.7197    0.2751 H   0  0  0  0  0  0  0  0  0  0  0  0
   -5.3859   -2.8001    2.9998 H   0  0  0  0  0  0  0  0  0  0  0  0
   -5.1992   -3.6291    1.4477 H   0  0  0  0  0  0  0  0  0  0  0  0
   -6.8082   -3.3572    2.1090 H   0  0  0  0  0  0  0  0  0  0  0  0
    5.1791   -2.1696    1.6565 H   0  0  0  0  0  0  0  0  0  0  0  0
    3.4697   -2.2639    2.1640 H   0  0  0  0  0  0  0  0  0  0  0  0
    4.1529   -1.9386    4.5328 H   0  0  0  0  0  0  0  0  0  0  0  0
    5.8515   -1.9525    4.0431 H   0  0  0  0  0  0  0  0  0  0  0  0
    4.8597   -3.3918    3.8172 H   0  0  0  0  0  0  0  0  0  0  0  0
    2.9761   -1.5167    0.3479 H   0  0  0  0  0  0  0  0  0  0  0  0
    1.5377   -2.5588    0.1867 H   0  0  0  0  0  0  0  0  0  0  0  0
    2.0064   -1.2292   -1.8772 H   0  0  0  0  0  0  0  0  0  0  0  0
    1.8416    0.2683   -0.9524 H   0  0  0  0  0  0  0  0  0  0  0  0
    0.4445   -0.7871   -1.1884 H   0  0  0  0  0  0  0  0  0  0  0  0
   -3.7777   -4.1166   -1.0648 H   0  0  0  0  0  0  0  0  0  0  0  0
   -6.3783    1.0136   -3.3636 H   0  0  0  0  0  0  0  0  0  0  0  0
   -8.0492   -3.6286   -4.5184 H   0  0  0  0  0  0  0  0  0  0  0  0
  -10.0654   -1.2273   -5.9406 H   0  0  0  0  0  0  0  0  0  0  0  0
   -8.9873   -2.0323   -8.0352 H   0  0  0  0  0  0  0  0  0  0  0  0
   -6.4199   -2.1527   -7.5551 H   0  0  0  0  0  0  0  0  0  0  0  0
   -5.5671    0.2941   -6.9712 H   0  0  0  0  0  0  0  0  0  0  0  0
   -7.6095    1.9234   -7.0930 H   0  0  0  0  0  0  0  0  0  0  0  0
   -9.7495    0.5491   -7.9751 H   0  0  0  0  0  0  0  0  0  0  0  0
   -8.3594    0.3250   -9.0663 H   0  0  0  0  0  0  0  0  0  0  0  0
   -9.2375    1.1510   -5.3733 H   0  0  0  0  0  0  0  0  0  0  0  0
  1  2  2  0  0  0  0
  2  3  1  0  0  0  0
  3  4  3  0  0  0  0
  2  5  1  0  0  0  0
  5  6  3  0  0  0  0
  1  7  1  0  0  0  0
  7  8  2  0  0  0  0
  8  9  1  0  0  0  0
  9 10  1  0  0  0  0
 10 11  1  0  0  0  0
  8 12  1  0  0  0  0
 12 13  1  0  0  0  0
 13 14  1  0  0  0  0
 14 15  1  0  0  0  0
 15 16  1  0  0  0  0
 16 17  1  0  0  0  0
 17 18  2  0  0  0  0
 18 19  1  0  0  0  0
 19 20  1  0  0  0  0
 17 21  1  0  0  0  0
 21 22  1  0  0  0  0
 22 23  1  0  0  0  0
 23 24  1  0  0  0  0
 24 25  1  0  0  0  0
 25 26  1  0  0  0  0
 26 27  1  0  0  0  0
 27 28  1  0  0  0  0
 25 29  2  0  0  0  0
 29 30  1  0  0  0  0
 30 31  1  0  0  0  0
 31 32  1  0  0  0  0
 32 33  1  0  0  0  0
 33 34  1  0  0  0  0
 34 35  1  0  0  0  0
 35 36  1  0  0  0  0
 36 37  1  0  0  0  0
 37 38  1  0  0  0  0
 38 39  1  0  0  0  0
 36 40  1  0  0  0  0
 40 41  1  0  0  0  0
 33 42  1  0  0  0  0
 42 43  1  0  0  0  0
 29 44  1  0  0  0  0
 44 45  2  0  0  0  0
 45 46  1  0  0  0  0
 46 47  2  0  0  0  0
 46 48  1  0  0  0  0
 48 49  2  0  0  0  0
 49 50  1  0  0  0  0
 50 51  2  0  0  0  0
 51 52  1  0  0  0  0
 52 53  2  0  0  0  0
 53 54  1  0  0  0  0
 54 55  2  0  0  0  0
 55 56  1  0  0  0  0
 56 57  3  0  0  0  0
 55 58  1  0  0  0  0
 58 59  3  0  0  0  0
 51 60  1  0  0  0  0
 60 61  1  0  0  0  0
 61 62  1  0  0  0  0
 62 63  2  0  0  0  0
 63 64  1  0  0  0  0
 64 65  1  0  0  0  0
 64 66  1  0  0  0  0
 39  7  1  0  0  0  0
 54 45  1  0  0  0  0
 66 60  1  0  0  0  0
 38 12  2  0  0  0  0
 53 48  1  0  0  0  0
 65 61  1  0  0  0  0
 37 14  2  0  0  0  0
 66 50  1  0  0  0  0
 35 15  2  0  0  0  0
 20 16  2  0  0  0  0
 34 21  2  0  0  0  0
 32 22  2  0  0  0  0
 31 24  2  0  0  0  0
  1 67  1  0  0  0  0
 10 68  1  0  0  0  0
 10 69  1  0  0  0  0
 11 70  1  0  0  0  0
 11 71  1  0  0  0  0
 11 72  1  0  0  0  0
 27 73  1  0  0  0  0
 27 74  1  0  0  0  0
 28 75  1  0  0  0  0
 28 76  1  0  0  0  0
 28 77  1  0  0  0  0
 40 78  1  0  0  0  0
 40 79  1  0  0  0  0
 41 80  1  0  0  0  0
 41 81  1  0  0  0  0
 41 82  1  0  0  0  0
 42 83  1  0  0  0  0
 42 84  1  0  0  0  0
 43 85  1  0  0  0  0
 43 86  1  0  0  0  0
 43 87  1  0  0  0  0
 44 88  1  0  0  0  0
 49 89  1  0  0  0  0
 52 90  1  0  0  0  0
 60 91  1  0  0  0  0
 61 92  1  0  0  0  0
 62 93  1  0  0  0  0
 63 94  1  0  0  0  0
 64 95  1  0  0  0  0
 65 96  1  0  0  0  0
 65 97  1  0  0  0  0
 66 98  1  0  0  0  0
M  END
