83

C          5.49600       -3.63070       -6.62710
C          6.73570       -4.19480       -6.55710
C          7.69690       -3.91240       -5.56510
N          8.46820       -3.74990       -4.73130
C          7.09460       -5.23240       -7.44650
N          7.38520       -6.06640       -8.17770
C          4.98820       -2.56350       -5.84270
C          5.59980       -1.45210       -5.27960
C          7.00650       -1.02620       -5.54860
C          7.11340        0.45550       -5.90610
C          4.68070       -0.70890       -4.51730
S          4.83940        0.71440       -3.51010
C          3.17410        0.57610       -3.07300
C          2.22820        1.22310       -2.26060
C          2.29240        2.40950       -1.49640
C          1.12230        2.84330       -0.78660
N          1.31190        3.99120       -0.15570
S          2.82970        4.48260       -0.42610
N          3.30630        3.24920       -1.35850
C         -0.01380        2.00290       -0.76380
C         -1.17540        2.03660        0.02080
S         -1.90890        3.03800        1.22070
C         -3.14240        1.81940        1.46030
C         -4.19980        1.70750        2.37250
C         -4.64460        2.80210        3.28160
C         -4.80550        4.13550        2.55370
C         -4.85050        0.48470        2.23100
S         -4.20190       -0.47190        0.89680
C         -2.98420        0.71150        0.61240
C         -1.86530        0.84030       -0.21440
N         -1.18970        0.08760       -1.13900
C         -0.05360        0.78460       -1.49960
C          1.02560        0.47100       -2.36260
N          1.21580       -0.56010       -3.26880
C          2.52380       -0.50170       -3.68090
C          3.38090       -1.23150       -4.50940
S          3.25810       -2.63810       -5.49260
C          0.23120       -1.17100       -4.13710
C          0.18200       -0.47210       -5.49590
C         -1.52310       -1.30730       -1.32610
C         -2.77820       -1.48880       -2.17930
C         -5.92660       -0.08170        2.94140
C         -6.16560        0.03920        4.28580
C         -5.13480        0.39460        5.28420
O         -4.00100        0.77600        5.08820
C         -5.73660        0.06500        6.59740
C         -5.16470        0.17840        7.84780
C         -5.91400       -0.20890        8.95270
Cl        -5.26320       -0.08920       10.54000
C         -7.20750       -0.70150        8.76470
F         -7.91970       -1.07970        9.83260
C         -7.78730       -0.82070        7.51100
C         -7.03860       -0.43040        6.41210
C         -7.34320       -0.42890        4.98450
C         -8.55330       -0.73380        4.41800
C         -8.83790       -0.61960        3.04080
N         -9.14120       -0.52630        1.93730
C         -9.67900       -1.16810        5.14810
N        -10.62200       -1.53300        5.69100
H          4.79060       -4.08590       -7.31410
H          7.62180       -1.23300       -4.66820
H          7.40840       -1.61600       -6.37410
H          8.13450        0.68090       -6.20200
H          6.85750        1.08630       -5.06000
H          6.45180        0.69790       -6.73510
H         -3.90830        2.90460        4.08380
H         -5.59510        2.52320        3.73960
H         -5.20100        4.87850        3.24130
H         -3.85400        4.49520        2.17310
H         -5.49850        4.03260        1.72140
H          0.49490       -2.22510       -4.27020
H         -0.74810       -1.09800       -3.67860
H          1.13150       -0.55950       -6.01660
H         -0.04860        0.58360       -5.36800
H         -0.59000       -0.92700       -6.11030
H         -0.66260       -1.82410       -1.75180
H         -1.71170       -1.73890       -0.33660
H         -3.64810       -1.10840       -1.65110
H         -2.93460       -2.54460       -2.38080
H         -2.70430       -0.95750       -3.12570
H         -6.56950       -0.73770        2.36520
H         -4.16220        0.55890        7.96140
H         -8.78740       -1.21500        7.43280
