
  xtb     02012218533D
 energy: -157.210843630604 gnorm: 0.000257722796 xtb: 6.4.1 (unknown)
 83 92  0     0  0            999 V2000
    5.4960   -3.6307   -6.6271 C   0  0  0  0  0  0  0  0  0  0  0  0
    6.7357   -4.1948   -6.5571 C   0  0  0  0  0  0  0  0  0  0  0  0
    7.6969   -3.9124   -5.5651 C   0  0  0  0  0  0  0  0  0  0  0  0
    8.4682   -3.7499   -4.7313 N   0  0  0  0  0  0  0  0  0  0  0  0
    7.0946   -5.2324   -7.4465 C   0  0  0  0  0  0  0  0  0  0  0  0
    7.3852   -6.0664   -8.1777 N   0  0  0  0  0  0  0  0  0  0  0  0
    4.9882   -2.5635   -5.8427 C   0  0  0  0  0  0  0  0  0  0  0  0
    5.5998   -1.4521   -5.2796 C   0  0  0  0  0  0  0  0  0  0  0  0
    7.0065   -1.0262   -5.5486 C   0  0  0  0  0  0  0  0  0  0  0  0
    7.1134    0.4555   -5.9061 C   0  0  0  0  0  0  0  0  0  0  0  0
    4.6807   -0.7089   -4.5173 C   0  0  0  0  0  0  0  0  0  0  0  0
    4.8394    0.7144   -3.5101 S   0  0  0  0  0  0  0  0  0  0  0  0
    3.1741    0.5761   -3.0730 C   0  0  0  0  0  0  0  0  0  0  0  0
    2.2282    1.2231   -2.2606 C   0  0  0  0  0  0  0  0  0  0  0  0
    2.2924    2.4095   -1.4964 C   0  0  0  0  0  0  0  0  0  0  0  0
    1.1223    2.8433   -0.7866 C   0  0  0  0  0  0  0  0  0  0  0  0
    1.3119    3.9912   -0.1557 N   0  0  0  0  0  0  0  0  0  0  0  0
    2.8297    4.4826   -0.4261 S   0  0  0  0  0  0  0  0  0  0  0  0
    3.3063    3.2492   -1.3585 N   0  0  0  0  0  0  0  0  0  0  0  0
   -0.0138    2.0029   -0.7638 C   0  0  0  0  0  0  0  0  0  0  0  0
   -1.1754    2.0366    0.0208 C   0  0  0  0  0  0  0  0  0  0  0  0
   -1.9089    3.0380    1.2207 S   0  0  0  0  0  0  0  0  0  0  0  0
   -3.1424    1.8194    1.4603 C   0  0  0  0  0  0  0  0  0  0  0  0
   -4.1998    1.7075    2.3725 C   0  0  0  0  0  0  0  0  0  0  0  0
   -4.6446    2.8021    3.2816 C   0  0  0  0  0  0  0  0  0  0  0  0
   -4.8055    4.1355    2.5537 C   0  0  0  0  0  0  0  0  0  0  0  0
   -4.8505    0.4847    2.2310 C   0  0  0  0  0  0  0  0  0  0  0  0
   -4.2019   -0.4719    0.8968 S   0  0  0  0  0  0  0  0  0  0  0  0
   -2.9842    0.7115    0.6124 C   0  0  0  0  0  0  0  0  0  0  0  0
   -1.8653    0.8403   -0.2144 C   0  0  0  0  0  0  0  0  0  0  0  0
   -1.1897    0.0876   -1.1390 N   0  0  0  0  0  0  0  0  0  0  0  0
   -0.0536    0.7846   -1.4996 C   0  0  0  0  0  0  0  0  0  0  0  0
    1.0256    0.4710   -2.3626 C   0  0  0  0  0  0  0  0  0  0  0  0
    1.2158   -0.5601   -3.2688 N   0  0  0  0  0  0  0  0  0  0  0  0
    2.5238   -0.5017   -3.6809 C   0  0  0  0  0  0  0  0  0  0  0  0
    3.3809   -1.2315   -4.5094 C   0  0  0  0  0  0  0  0  0  0  0  0
    3.2581   -2.6381   -5.4926 S   0  0  0  0  0  0  0  0  0  0  0  0
    0.2312   -1.1710   -4.1371 C   0  0  0  0  0  0  0  0  0  0  0  0
    0.1820   -0.4721   -5.4959 C   0  0  0  0  0  0  0  0  0  0  0  0
   -1.5231   -1.3073   -1.3261 C   0  0  0  0  0  0  0  0  0  0  0  0
   -2.7782   -1.4888   -2.1793 C   0  0  0  0  0  0  0  0  0  0  0  0
   -5.9266   -0.0817    2.9414 C   0  0  0  0  0  0  0  0  0  0  0  0
   -6.1656    0.0392    4.2858 C   0  0  0  0  0  0  0  0  0  0  0  0
   -5.1348    0.3946    5.2842 C   0  0  0  0  0  0  0  0  0  0  0  0
   -4.0010    0.7760    5.0882 O   0  0  0  0  0  0  0  0  0  0  0  0
   -5.7366    0.0650    6.5974 C   0  0  0  0  0  0  0  0  0  0  0  0
   -5.1647    0.1784    7.8478 C   0  0  0  0  0  0  0  0  0  0  0  0
   -5.9140   -0.2089    8.9527 C   0  0  0  0  0  0  0  0  0  0  0  0
   -5.2632   -0.0892   10.5400 Cl  0  0  0  0  0  0  0  0  0  0  0  0
   -7.2075   -0.7015    8.7647 C   0  0  0  0  0  0  0  0  0  0  0  0
   -7.9197   -1.0797    9.8326 F   0  0  0  0  0  0  0  0  0  0  0  0
   -7.7873   -0.8207    7.5110 C   0  0  0  0  0  0  0  0  0  0  0  0
   -7.0386   -0.4304    6.4121 C   0  0  0  0  0  0  0  0  0  0  0  0
   -7.3432   -0.4289    4.9845 C   0  0  0  0  0  0  0  0  0  0  0  0
   -8.5533   -0.7338    4.4180 C   0  0  0  0  0  0  0  0  0  0  0  0
   -8.8379   -0.6196    3.0408 C   0  0  0  0  0  0  0  0  0  0  0  0
   -9.1412   -0.5263    1.9373 N   0  0  0  0  0  0  0  0  0  0  0  0
   -9.6790   -1.1681    5.1481 C   0  0  0  0  0  0  0  0  0  0  0  0
  -10.6220   -1.5330    5.6910 N   0  0  0  0  0  0  0  0  0  0  0  0
    4.7906   -4.0859   -7.3141 H   0  0  0  0  0  0  0  0  0  0  0  0
    7.6218   -1.2330   -4.6682 H   0  0  0  0  0  0  0  0  0  0  0  0
    7.4084   -1.6160   -6.3741 H   0  0  0  0  0  0  0  0  0  0  0  0
    8.1345    0.6809   -6.2020 H   0  0  0  0  0  0  0  0  0  0  0  0
    6.8575    1.0863   -5.0600 H   0  0  0  0  0  0  0  0  0  0  0  0
    6.4518    0.6979   -6.7351 H   0  0  0  0  0  0  0  0  0  0  0  0
   -3.9083    2.9046    4.0838 H   0  0  0  0  0  0  0  0  0  0  0  0
   -5.5951    2.5232    3.7396 H   0  0  0  0  0  0  0  0  0  0  0  0
   -5.2010    4.8785    3.2413 H   0  0  0  0  0  0  0  0  0  0  0  0
   -3.8540    4.4952    2.1731 H   0  0  0  0  0  0  0  0  0  0  0  0
   -5.4985    4.0326    1.7214 H   0  0  0  0  0  0  0  0  0  0  0  0
    0.4949   -2.2251   -4.2702 H   0  0  0  0  0  0  0  0  0  0  0  0
   -0.7481   -1.0980   -3.6786 H   0  0  0  0  0  0  0  0  0  0  0  0
    1.1315   -0.5595   -6.0166 H   0  0  0  0  0  0  0  0  0  0  0  0
   -0.0486    0.5836   -5.3680 H   0  0  0  0  0  0  0  0  0  0  0  0
   -0.5900   -0.9270   -6.1103 H   0  0  0  0  0  0  0  0  0  0  0  0
   -0.6626   -1.8241   -1.7518 H   0  0  0  0  0  0  0  0  0  0  0  0
   -1.7117   -1.7389   -0.3366 H   0  0  0  0  0  0  0  0  0  0  0  0
   -3.6481   -1.1084   -1.6511 H   0  0  0  0  0  0  0  0  0  0  0  0
   -2.9346   -2.5446   -2.3808 H   0  0  0  0  0  0  0  0  0  0  0  0
   -2.7043   -0.9575   -3.1257 H   0  0  0  0  0  0  0  0  0  0  0  0
   -6.5695   -0.7377    2.3652 H   0  0  0  0  0  0  0  0  0  0  0  0
   -4.1622    0.5589    7.9614 H   0  0  0  0  0  0  0  0  0  0  0  0
   -8.7874   -1.2150    7.4328 H   0  0  0  0  0  0  0  0  0  0  0  0
  1  2  2  0  0  0  0
  2  3  1  0  0  0  0
  3  4  3  0  0  0  0
  2  5  1  0  0  0  0
  5  6  3  0  0  0  0
  1  7  1  0  0  0  0
  7  8  2  0  0  0  0
  8  9  1  0  0  0  0
  9 10  1  0  0  0  0
  8 11  1  0  0  0  0
 11 12  1  0  0  0  0
 12 13  1  0  0  0  0
 13 14  1  0  0  0  0
 14 15  1  0  0  0  0
 15 16  1  0  0  0  0
 16 17  2  0  0  0  0
 17 18  1  0  0  0  0
 18 19  1  0  0  0  0
 16 20  1  0  0  0  0
 20 21  1  0  0  0  0
 21 22  1  0  0  0  0
 22 23  1  0  0  0  0
 23 24  1  0  0  0  0
 24 25  1  0  0  0  0
 25 26  1  0  0  0  0
 24 27  2  0  0  0  0
 27 28  1  0  0  0  0
 28 29  1  0  0  0  0
 29 30  1  0  0  0  0
 30 31  1  0  0  0  0
 31 32  1  0  0  0  0
 32 33  1  0  0  0  0
 33 34  1  0  0  0  0
 34 35  1  0  0  0  0
 35 36  1  0  0  0  0
 36 37  1  0  0  0  0
 34 38  1  0  0  0  0
 38 39  1  0  0  0  0
 31 40  1  0  0  0  0
 40 41  1  0  0  0  0
 27 42  1  0  0  0  0
 42 43  2  0  0  0  0
 43 44  1  0  0  0  0
 44 45  2  0  0  0  0
 44 46  1  0  0  0  0
 46 47  2  0  0  0  0
 47 48  1  0  0  0  0
 48 49  1  0  0  0  0
 48 50  2  0  0  0  0
 50 51  1  0  0  0  0
 50 52  1  0  0  0  0
 52 53  2  0  0  0  0
 53 54  1  0  0  0  0
 54 55  2  0  0  0  0
 55 56  1  0  0  0  0
 56 57  3  0  0  0  0
 55 58  1  0  0  0  0
 58 59  3  0  0  0  0
 37  7  1  0  0  0  0
 54 43  1  0  0  0  0
 36 11  2  0  0  0  0
 53 46  1  0  0  0  0
 35 13  2  0  0  0  0
 33 14  2  0  0  0  0
 19 15  2  0  0  0  0
 32 20  2  0  0  0  0
 30 21  2  0  0  0  0
 29 23  2  0  0  0  0
  1 60  1  0  0  0  0
  9 61  1  0  0  0  0
  9 62  1  0  0  0  0
 10 63  1  0  0  0  0
 10 64  1  0  0  0  0
 10 65  1  0  0  0  0
 25 66  1  0  0  0  0
 25 67  1  0  0  0  0
 26 68  1  0  0  0  0
 26 69  1  0  0  0  0
 26 70  1  0  0  0  0
 38 71  1  0  0  0  0
 38 72  1  0  0  0  0
 39 73  1  0  0  0  0
 39 74  1  0  0  0  0
 39 75  1  0  0  0  0
 40 76  1  0  0  0  0
 40 77  1  0  0  0  0
 41 78  1  0  0  0  0
 41 79  1  0  0  0  0
 41 80  1  0  0  0  0
 42 81  1  0  0  0  0
 47 82  1  0  0  0  0
 52 83  1  0  0  0  0
M  END
