83

C         -3.32010        8.98500       -1.36320
C         -4.63530        9.02040       -0.99470
C         -5.40730        7.90300       -0.62150
N         -6.07120        7.01870       -0.31180
C         -5.32660       10.25100       -0.96810
N         -5.87680       11.25700       -0.94430
C         -2.48090        7.85620       -1.44500
C         -1.13570        7.86240       -1.80850
C         -0.32550        9.07470       -2.13310
C          0.20600        9.72850       -0.85480
C         -0.59790        6.57390       -1.77870
S          1.00260        5.95780       -2.12890
C          0.43580        4.36470       -1.76970
C          0.91520        3.04860       -1.75400
C          2.16580        2.52270       -2.14620
C          2.35250        1.10350       -2.12930
N          3.54870        0.74480       -2.56860
S          4.37110        2.08090       -2.96420
N          3.23190        3.16880       -2.59240
C          1.31660        0.28770       -1.62370
C          1.28060       -1.09150       -1.38370
S          2.28070       -2.48180       -1.59590
C          1.05930       -3.46020       -0.80960
C          1.01070       -4.81210       -0.45060
C          2.01430       -5.83330       -0.86340
C          2.41320       -5.71570       -2.33280
C         -0.16810       -5.10220        0.23950
S         -1.24450       -3.70510        0.34590
C         -0.06800       -2.71400       -0.42440
C          0.05910       -1.36380       -0.75670
N         -0.67010       -0.21150       -0.62940
C          0.07900        0.82550       -1.16080
C         -0.16090        2.21700       -1.32390
N         -1.27190        3.02010       -1.12160
C         -0.91100        4.31120       -1.39460
C         -1.50900        5.57560       -1.40450
S         -3.06710        6.23380       -1.07780
C         -2.67500        2.67780       -1.03810
C         -3.13540        1.89990       -2.26810
C         -1.79960       -0.18450        0.27370
C         -1.46810        0.56670        1.56060
C         -0.64820       -6.29550        0.80190
C          0.09540       -7.28920        1.39290
C          1.44380       -7.08720        1.95780
O          2.13900       -6.09880        1.89240
C          1.71810       -8.31760        2.74490
C          0.61850       -9.19010        2.66650
C          0.62660      -10.39920        3.34040
C          1.75040      -10.72100        4.08830
F          1.78030      -11.88040        4.74960
C          2.85060       -9.87080        4.17270
F          3.91600      -10.21930        4.89890
C          2.83220       -8.64990        3.49400
F          3.88530       -7.84190        3.57570
C         -0.39670       -8.58080        1.80700
C         -1.56350       -9.17510        1.39950
C         -2.46740       -8.60330        0.47870
N         -3.22830       -8.20950       -0.28560
C         -1.99410      -10.45020        1.82040
N         -2.39850      -11.47550        2.14030
H         -2.86350        9.93260       -1.62110
H          0.51760        8.76760       -2.75490
H         -0.92130        9.79500       -2.69610
H         -0.61320       10.04460       -0.21280
H          0.82530        9.02580       -0.30260
H          0.80760       10.59820       -1.10450
H          2.89970       -5.72140       -0.22980
H          1.60380       -6.82820       -0.67890
H          1.53230       -5.74740       -2.97060
H          3.06080       -6.54710       -2.59860
H          2.95040       -4.79180       -2.52530
H         -2.88490        2.13780       -0.11490
H         -3.22370        3.62120       -0.98550
H         -2.56010        0.98600       -2.39790
H         -4.18700        1.64480       -2.17080
H         -3.00960        2.50840       -3.16060
H         -2.02920       -1.22530        0.51420
H         -2.67790        0.22900       -0.22120
H         -0.65260        0.06980        2.08080
H         -2.33590        0.58210        2.21420
H         -1.16410        1.59020        1.35380
H         -1.72790       -6.39090        0.82790
H         -0.19730      -11.09290        3.31350
