
  xtb     02022208373D
 energy: -186.237585891689 gnorm: 0.000200734783 xtb: 6.4.1 (unknown)
101115  0     0  0            999 V2000
   -5.5495    2.6575   -7.4175 C   0  0  0  0  0  0  0  0  0  0  0  0
   -6.8051    2.1888   -7.1492 C   0  0  0  0  0  0  0  0  0  0  0  0
   -8.2274    2.8218   -7.9725 S   0  0  0  0  0  0  0  0  0  0  0  0
   -9.2771    1.8326   -6.9909 C   0  0  0  0  0  0  0  0  0  0  0  0
  -10.6440    1.9158   -7.0628 C   0  0  0  0  0  0  0  0  0  0  0  0
  -11.2464    2.7845   -7.9945 C   0  0  0  0  0  0  0  0  0  0  0  0
  -11.7385    3.4874   -8.7557 N   0  0  0  0  0  0  0  0  0  0  0  0
  -11.5363    1.2197   -6.2283 C   0  0  0  0  0  0  0  0  0  0  0  0
  -12.3221    0.7059   -5.5670 N   0  0  0  0  0  0  0  0  0  0  0  0
   -8.5583    1.0355   -6.1499 N   0  0  0  0  0  0  0  0  0  0  0  0
   -9.1540    0.0521   -5.3037 C   0  0  0  0  0  0  0  0  0  0  0  0
   -9.1283    0.2315   -3.9304 C   0  0  0  0  0  0  0  0  0  0  0  0
   -9.6947   -0.7317   -3.1151 C   0  0  0  0  0  0  0  0  0  0  0  0
  -10.2748   -1.8595   -3.6697 C   0  0  0  0  0  0  0  0  0  0  0  0
  -10.2806   -2.0376   -5.0428 C   0  0  0  0  0  0  0  0  0  0  0  0
   -9.7145   -1.0841   -5.8682 C   0  0  0  0  0  0  0  0  0  0  0  0
   -7.1869    1.1936   -6.1843 C   0  0  0  0  0  0  0  0  0  0  0  0
   -6.4337    0.5416   -5.4705 O   0  0  0  0  0  0  0  0  0  0  0  0
   -4.3192    2.3313   -6.8269 C   0  0  0  0  0  0  0  0  0  0  0  0
   -3.1451    3.0005   -7.1713 C   0  0  0  0  0  0  0  0  0  0  0  0
   -2.0210    2.6128   -6.4642 C   0  0  0  0  0  0  0  0  0  0  0  0
   -0.3758    3.2169   -6.5214 S   0  0  0  0  0  0  0  0  0  0  0  0
    0.0446    2.1035   -5.2680 C   0  0  0  0  0  0  0  0  0  0  0  0
    1.1653    1.7132   -4.5246 C   0  0  0  0  0  0  0  0  0  0  0  0
    2.5115    2.1316   -4.6001 C   0  0  0  0  0  0  0  0  0  0  0  0
    3.4750    1.5168   -3.7366 C   0  0  0  0  0  0  0  0  0  0  0  0
    4.7006    1.9754   -3.9376 N   0  0  0  0  0  0  0  0  0  0  0  0
    4.6451    3.0878   -5.1113 S   0  0  0  0  0  0  0  0  0  0  0  0
    3.0549    3.0286   -5.4082 N   0  0  0  0  0  0  0  0  0  0  0  0
    3.0302    0.5810   -2.7776 C   0  0  0  0  0  0  0  0  0  0  0  0
    3.7216   -0.0400   -1.7270 C   0  0  0  0  0  0  0  0  0  0  0  0
    2.7803   -0.7808   -1.0066 C   0  0  0  0  0  0  0  0  0  0  0  0
    1.5425   -0.6642   -1.5853 N   0  0  0  0  0  0  0  0  0  0  0  0
    0.4019   -1.0061   -0.7670 C   0  0  0  0  0  0  0  0  0  0  0  0
    0.0745    0.1203    0.2112 C   0  0  0  0  0  0  0  0  0  0  0  0
    1.6635    0.1850   -2.6757 C   0  0  0  0  0  0  0  0  0  0  0  0
    0.7352    0.6904   -3.6250 C   0  0  0  0  0  0  0  0  0  0  0  0
   -0.6039    0.4438   -3.8683 N   0  0  0  0  0  0  0  0  0  0  0  0
   -1.0258    1.3102   -4.8428 C   0  0  0  0  0  0  0  0  0  0  0  0
   -2.2190    1.5869   -5.5167 C   0  0  0  0  0  0  0  0  0  0  0  0
   -4.0021    1.0374   -5.4753 Se  0  0  0  0  0  2  0  0  0  0  0  0
   -1.4468   -0.6793   -3.5288 C   0  0  0  0  0  0  0  0  0  0  0  0
   -2.5134   -0.3171   -2.4956 C   0  0  0  0  0  0  0  0  0  0  0  0
    3.3276   -1.3799    0.1324 C   0  0  0  0  0  0  0  0  0  0  0  0
    4.6920   -1.0634    0.2688 C   0  0  0  0  0  0  0  0  0  0  0  0
    5.3042   -0.0694   -1.0347 S   0  0  0  0  0  0  0  0  0  0  0  0
    5.3212   -1.5327    1.4207 C   0  0  0  0  0  0  0  0  0  0  0  0
    4.5033   -2.2640    2.2571 C   0  0  0  0  0  0  0  0  0  0  0  0
    2.7469   -2.4539    1.5375 Se  0  0  0  0  0  2  0  0  0  0  0  0
    4.7509   -2.8603    3.5128 C   0  0  0  0  0  0  0  0  0  0  0  0
    5.6468   -2.4850    4.4711 C   0  0  0  0  0  0  0  0  0  0  0  0
    6.3755   -1.1949    4.5411 C   0  0  0  0  0  0  0  0  0  0  0  0
    6.5996   -0.4049    3.6490 O   0  0  0  0  0  0  0  0  0  0  0  0
    6.7318   -1.0274    5.9641 C   0  0  0  0  0  0  0  0  0  0  0  0
    7.2915    0.1043    6.5539 C   0  0  0  0  0  0  0  0  0  0  0  0
    7.4648   -0.0020    7.9130 C   0  0  0  0  0  0  0  0  0  0  0  0
    7.1172   -1.1522    8.6350 C   0  0  0  0  0  0  0  0  0  0  0  0
    6.5780   -2.2806    8.0648 C   0  0  0  0  0  0  0  0  0  0  0  0
    6.3835   -2.1883    6.6832 C   0  0  0  0  0  0  0  0  0  0  0  0
    5.7984   -3.1471    5.7539 C   0  0  0  0  0  0  0  0  0  0  0  0
    5.5123   -4.4607    6.0160 C   0  0  0  0  0  0  0  0  0  0  0  0
    5.0370   -5.3752    5.0519 C   0  0  0  0  0  0  0  0  0  0  0  0
    4.6686   -6.1715    4.3111 N   0  0  0  0  0  0  0  0  0  0  0  0
    5.7069   -5.0820    7.2666 C   0  0  0  0  0  0  0  0  0  0  0  0
    5.8386   -5.6409    8.2607 N   0  0  0  0  0  0  0  0  0  0  0  0
    7.5284   -0.5462    9.9535 C   0  0  0  0  0  0  0  0  0  0  0  0
    6.3854   -0.0460   10.8626 C   0  0  0  0  0  0  0  0  0  0  0  0
    7.0709    0.9052   11.8168 C   0  0  0  0  0  0  0  0  0  0  0  0
    7.4009    1.9938   11.1337 C   0  0  0  0  0  0  0  0  0  0  0  0
    6.9439    1.7967    9.7063 C   0  0  0  0  0  0  0  0  0  0  0  0
    5.6787    0.9631    9.9481 C   0  0  0  0  0  0  0  0  0  0  0  0
    7.9170    0.7354    9.1489 C   0  0  0  0  0  0  0  0  0  0  0  0
   -5.4873    3.4228   -8.1846 H   0  0  0  0  0  0  0  0  0  0  0  0
   -8.6727    1.1158   -3.5116 H   0  0  0  0  0  0  0  0  0  0  0  0
   -9.6864   -0.5955   -2.0446 H   0  0  0  0  0  0  0  0  0  0  0  0
  -10.7236   -2.6036   -3.0298 H   0  0  0  0  0  0  0  0  0  0  0  0
  -10.7282   -2.9190   -5.4751 H   0  0  0  0  0  0  0  0  0  0  0  0
   -9.7128   -1.2129   -6.9408 H   0  0  0  0  0  0  0  0  0  0  0  0
   -3.1292    3.7739   -7.9204 H   0  0  0  0  0  0  0  0  0  0  0  0
    0.6734   -1.9101   -0.2071 H   0  0  0  0  0  0  0  0  0  0  0  0
   -0.4627   -1.2402   -1.3748 H   0  0  0  0  0  0  0  0  0  0  0  0
   -0.1400    1.0419   -0.3266 H   0  0  0  0  0  0  0  0  0  0  0  0
   -0.7888   -0.1494    0.8130 H   0  0  0  0  0  0  0  0  0  0  0  0
    0.9170    0.2999    0.8759 H   0  0  0  0  0  0  0  0  0  0  0  0
   -0.8190   -1.5135   -3.2105 H   0  0  0  0  0  0  0  0  0  0  0  0
   -1.9579   -0.9910   -4.4498 H   0  0  0  0  0  0  0  0  0  0  0  0
   -3.0311   -1.2148   -2.1692 H   0  0  0  0  0  0  0  0  0  0  0  0
   -3.2478    0.3530   -2.9427 H   0  0  0  0  0  0  0  0  0  0  0  0
   -2.0843    0.1827   -1.6318 H   0  0  0  0  0  0  0  0  0  0  0  0
    6.3561   -1.3464    1.6404 H   0  0  0  0  0  0  0  0  0  0  0  0
    4.0685   -3.6666    3.7677 H   0  0  0  0  0  0  0  0  0  0  0  0
    7.5446    0.9699    5.9620 H   0  0  0  0  0  0  0  0  0  0  0  0
    6.3098   -3.1576    8.6302 H   0  0  0  0  0  0  0  0  0  0  0  0
    8.3063   -1.0759   10.4997 H   0  0  0  0  0  0  0  0  0  0  0  0
    5.7794   -0.8316   11.3054 H   0  0  0  0  0  0  0  0  0  0  0  0
    7.2869    0.6731   12.8431 H   0  0  0  0  0  0  0  0  0  0  0  0
    7.9477    2.8530   11.4752 H   0  0  0  0  0  0  0  0  0  0  0  0
    6.8460    2.6904    9.0958 H   0  0  0  0  0  0  0  0  0  0  0  0
    4.9095    1.5263   10.4741 H   0  0  0  0  0  0  0  0  0  0  0  0
    5.2555    0.5254    9.0457 H   0  0  0  0  0  0  0  0  0  0  0  0
    8.9548    1.0624    9.1579 H   0  0  0  0  0  0  0  0  0  0  0  0
  1  2  2  0  0  0  0
  2  3  1  0  0  0  0
  3  4  1  0  0  0  0
  4  5  2  0  0  0  0
  5  6  1  0  0  0  0
  6  7  3  0  0  0  0
  5  8  1  0  0  0  0
  8  9  3  0  0  0  0
  4 10  1  0  0  0  0
 10 11  1  0  0  0  0
 11 12  2  0  0  0  0
 12 13  1  0  0  0  0
 13 14  2  0  0  0  0
 14 15  1  0  0  0  0
 15 16  2  0  0  0  0
 10 17  1  0  0  0  0
 17 18  2  0  0  0  0
  1 19  1  0  0  0  0
 19 20  2  0  0  0  0
 20 21  1  0  0  0  0
 21 22  1  0  0  0  0
 22 23  1  0  0  0  0
 23 24  1  0  0  0  0
 24 25  1  0  0  0  0
 25 26  1  0  0  0  0
 26 27  2  0  0  0  0
 27 28  1  0  0  0  0
 28 29  1  0  0  0  0
 26 30  1  0  0  0  0
 30 31  1  0  0  0  0
 31 32  2  0  0  0  0
 32 33  1  0  0  0  0
 33 34  1  0  0  0  0
 34 35  1  0  0  0  0
 33 36  1  0  0  0  0
 36 37  1  0  0  0  0
 37 38  1  0  0  0  0
 38 39  1  0  0  0  0
 39 40  1  0  0  0  0
 40 41  1  0  0  0  0
 38 42  1  0  0  0  0
 42 43  1  0  0  0  0
 32 44  1  0  0  0  0
 44 45  2  0  0  0  0
 45 46  1  0  0  0  0
 45 47  1  0  0  0  0
 47 48  2  0  0  0  0
 48 49  1  0  0  0  0
 48 50  1  0  0  0  0
 50 51  2  0  0  0  0
 51 52  1  0  0  0  0
 52 53  2  0  0  0  0
 52 54  1  0  0  0  0
 54 55  2  0  0  0  0
 55 56  1  0  0  0  0
 56 57  2  0  0  0  0
 57 58  1  0  0  0  0
 58 59  2  0  0  0  0
 59 60  1  0  0  0  0
 60 61  2  0  0  0  0
 61 62  1  0  0  0  0
 62 63  3  0  0  0  0
 61 64  1  0  0  0  0
 64 65  3  0  0  0  0
 57 66  1  0  0  0  0
 66 67  1  0  0  0  0
 67 68  1  0  0  0  0
 68 69  2  0  0  0  0
 69 70  1  0  0  0  0
 70 71  1  0  0  0  0
 70 72  1  0  0  0  0
 17  2  1  0  0  0  0
 41 19  1  0  0  0  0
 49 44  1  0  0  0  0
 60 51  1  0  0  0  0
 72 66  1  0  0  0  0
 16 11  1  0  0  0  0
 40 21  2  0  0  0  0
 59 54  1  0  0  0  0
 71 67  1  0  0  0  0
 39 23  2  0  0  0  0
 72 56  1  0  0  0  0
 37 24  2  0  0  0  0
 29 25  2  0  0  0  0
 36 30  2  0  0  0  0
 46 31  1  0  0  0  0
  1 73  1  0  0  0  0
 12 74  1  0  0  0  0
 13 75  1  0  0  0  0
 14 76  1  0  0  0  0
 15 77  1  0  0  0  0
 16 78  1  0  0  0  0
 20 79  1  0  0  0  0
 34 80  1  0  0  0  0
 34 81  1  0  0  0  0
 35 82  1  0  0  0  0
 35 83  1  0  0  0  0
 35 84  1  0  0  0  0
 42 85  1  0  0  0  0
 42 86  1  0  0  0  0
 43 87  1  0  0  0  0
 43 88  1  0  0  0  0
 43 89  1  0  0  0  0
 47 90  1  0  0  0  0
 50 91  1  0  0  0  0
 55 92  1  0  0  0  0
 58 93  1  0  0  0  0
 66 94  1  0  0  0  0
 67 95  1  0  0  0  0
 68 96  1  0  0  0  0
 69 97  1  0  0  0  0
 70 98  1  0  0  0  0
 71 99  1  0  0  0  0
 71100  1  0  0  0  0
 72101  1  0  0  0  0
M  END
