
  xtb     02112208323D
 energy: -192.731407097014 gnorm: 0.000729141460 xtb: 6.4.1 (unknown)
107121  0     0  0            999 V2000
   -2.0215    2.8072   -8.2654 C   0  0  0  0  0  0  0  0  0  0  0  0
   -2.1022    1.5488   -8.7886 C   0  0  0  0  0  0  0  0  0  0  0  0
   -2.3618    1.3205  -10.5180 S   0  0  0  0  0  0  0  0  0  0  0  0
   -2.3355   -0.4127  -10.3337 C   0  0  0  0  0  0  0  0  0  0  0  0
   -2.5564   -1.2660  -11.3848 C   0  0  0  0  0  0  0  0  0  0  0  0
   -2.7679   -0.7461  -12.6769 C   0  0  0  0  0  0  0  0  0  0  0  0
   -2.9386   -0.3208  -13.7285 N   0  0  0  0  0  0  0  0  0  0  0  0
   -2.6284   -2.6661  -11.2804 C   0  0  0  0  0  0  0  0  0  0  0  0
   -2.7199   -3.8109  -11.2688 N   0  0  0  0  0  0  0  0  0  0  0  0
   -2.1090   -0.7648   -9.0392 N   0  0  0  0  0  0  0  0  0  0  0  0
   -1.9367   -2.1187   -8.6214 C   0  0  0  0  0  0  0  0  0  0  0  0
   -2.9209   -2.7294   -7.8618 C   0  0  0  0  0  0  0  0  0  0  0  0
   -2.7400   -4.0379   -7.4517 C   0  0  0  0  0  0  0  0  0  0  0  0
   -1.5867   -4.7219   -7.7952 C   0  0  0  0  0  0  0  0  0  0  0  0
   -0.6008   -4.0973   -8.5403 C   0  0  0  0  0  0  0  0  0  0  0  0
   -0.7685   -2.7890   -8.9533 C   0  0  0  0  0  0  0  0  0  0  0  0
   -1.9897    0.2704   -8.1219 C   0  0  0  0  0  0  0  0  0  0  0  0
   -1.8058    0.0686   -6.9358 O   0  0  0  0  0  0  0  0  0  0  0  0
   -1.8170    3.2334   -6.9443 C   0  0  0  0  0  0  0  0  0  0  0  0
   -1.7552    4.5809   -6.5625 C   0  0  0  0  0  0  0  0  0  0  0  0
   -1.9459    5.7573   -7.4645 C   0  0  0  0  0  0  0  0  0  0  0  0
   -3.4340    6.0584   -7.6618 C   0  0  0  0  0  0  0  0  0  0  0  0
   -1.5371    4.7092   -5.1952 C   0  0  0  0  0  0  0  0  0  0  0  0
   -1.4223    3.4847   -4.5178 C   0  0  0  0  0  0  0  0  0  0  0  0
   -1.5940    2.1395   -5.5791 S   0  0  0  0  0  0  0  0  0  0  0  0
   -1.1792    3.6824   -3.1561 C   0  0  0  0  0  0  0  0  0  0  0  0
   -1.1240    5.0370   -2.8098 C   0  0  0  0  0  0  0  0  0  0  0  0
   -1.3614    6.1059   -4.1495 S   0  0  0  0  0  0  0  0  0  0  0  0
   -0.8969    5.0978   -1.4270 C   0  0  0  0  0  0  0  0  0  0  0  0
   -0.8584    6.1876   -0.5285 C   0  0  0  0  0  0  0  0  0  0  0  0
   -1.0140    7.4760   -0.7880 N   0  0  0  0  0  0  0  0  0  0  0  0
   -0.9550    8.2922    0.6090 S   0  0  0  0  0  0  0  0  0  0  0  0
   -0.7234    7.0328    1.5991 N   0  0  0  0  0  0  0  0  0  0  0  0
   -0.6838    5.9280    0.8722 C   0  0  0  0  0  0  0  0  0  0  0  0
   -0.4226    4.6046    1.2948 C   0  0  0  0  0  0  0  0  0  0  0  0
   -0.0191    4.0918    2.5342 C   0  0  0  0  0  0  0  0  0  0  0  0
    0.2756    4.6512    4.1451 S   0  0  0  0  0  0  0  0  0  0  0  0
    0.8454    3.0481    4.5625 C   0  0  0  0  0  0  0  0  0  0  0  0
    1.3512    2.4955    5.7234 C   0  0  0  0  0  0  0  0  0  0  0  0
    1.6958    1.1507    5.5767 C   0  0  0  0  0  0  0  0  0  0  0  0
    1.3706    0.5720    3.9482 S   0  0  0  0  0  0  0  0  0  0  0  0
    0.7933    2.1324    3.4924 C   0  0  0  0  0  0  0  0  0  0  0  0
    0.2871    2.7376    2.3391 C   0  0  0  0  0  0  0  0  0  0  0  0
    0.0602    2.3948    1.0324 N   0  0  0  0  0  0  0  0  0  0  0  0
    0.5845    1.1532    0.5079 C   0  0  0  0  0  0  0  0  0  0  0  0
   -0.2788   -0.0478    0.8965 C   0  0  0  0  0  0  0  0  0  0  0  0
   -0.3948    3.5175    0.3723 C   0  0  0  0  0  0  0  0  0  0  0  0
   -0.7719    3.7523   -0.9742 C   0  0  0  0  0  0  0  0  0  0  0  0
   -0.9764    2.9015   -2.0467 N   0  0  0  0  0  0  0  0  0  0  0  0
   -1.5139    1.5570   -2.0563 C   0  0  0  0  0  0  0  0  0  0  0  0
   -3.0411    1.5804   -2.1152 C   0  0  0  0  0  0  0  0  0  0  0  0
    2.2476    0.4048    6.6286 C   0  0  0  0  0  0  0  0  0  0  0  0
    2.6250   -0.9119    6.6810 C   0  0  0  0  0  0  0  0  0  0  0  0
    2.4759   -1.8909    5.5997 C   0  0  0  0  0  0  0  0  0  0  0  0
    2.0525   -1.6930    4.4720 O   0  0  0  0  0  0  0  0  0  0  0  0
    2.9317   -3.1809    6.1401 C   0  0  0  0  0  0  0  0  0  0  0  0
    2.9459   -4.4088    5.4813 C   0  0  0  0  0  0  0  0  0  0  0  0
    3.4209   -5.4473    6.2455 C   0  0  0  0  0  0  0  0  0  0  0  0
    3.8462   -5.2779    7.5698 C   0  0  0  0  0  0  0  0  0  0  0  0
    3.8351   -4.0730    8.2318 C   0  0  0  0  0  0  0  0  0  0  0  0
    3.3603   -3.0003    7.4708 C   0  0  0  0  0  0  0  0  0  0  0  0
    3.2028   -1.5903    7.8257 C   0  0  0  0  0  0  0  0  0  0  0  0
    3.5713   -1.0302    9.0217 C   0  0  0  0  0  0  0  0  0  0  0  0
    3.4521    0.3323    9.3675 C   0  0  0  0  0  0  0  0  0  0  0  0
    3.3954    1.4204    9.7320 N   0  0  0  0  0  0  0  0  0  0  0  0
    4.1521   -1.7415   10.0928 C   0  0  0  0  0  0  0  0  0  0  0  0
    4.6257   -2.2495   11.0074 N   0  0  0  0  0  0  0  0  0  0  0  0
    4.1980   -6.7359    7.7283 C   0  0  0  0  0  0  0  0  0  0  0  0
    5.6974   -7.0945    7.6554 C   0  0  0  0  0  0  0  0  0  0  0  0
    5.7001   -8.5769    7.3595 C   0  0  0  0  0  0  0  0  0  0  0  0
    5.2976   -8.7388    6.1056 C   0  0  0  0  0  0  0  0  0  0  0  0
    5.0162   -7.3683    5.5326 C   0  0  0  0  0  0  0  0  0  0  0  0
    6.0810   -6.5492    6.2736 C   0  0  0  0  0  0  0  0  0  0  0  0
    3.7242   -6.9251    6.2514 C   0  0  0  0  0  0  0  0  0  0  0  0
   -2.1309    3.6100   -8.9847 H   0  0  0  0  0  0  0  0  0  0  0  0
   -3.8155   -2.1842   -7.6017 H   0  0  0  0  0  0  0  0  0  0  0  0
   -3.5062   -4.5240   -6.8675 H   0  0  0  0  0  0  0  0  0  0  0  0
   -1.4546   -5.7458   -7.4808 H   0  0  0  0  0  0  0  0  0  0  0  0
    0.3006   -4.6285   -8.8040 H   0  0  0  0  0  0  0  0  0  0  0  0
   -0.0065   -2.2913   -9.5354 H   0  0  0  0  0  0  0  0  0  0  0  0
   -1.4719    5.5830   -8.4319 H   0  0  0  0  0  0  0  0  0  0  0  0
   -1.4662    6.6220   -7.0019 H   0  0  0  0  0  0  0  0  0  0  0  0
   -3.9035    6.2688   -6.7040 H   0  0  0  0  0  0  0  0  0  0  0  0
   -3.5566    6.9256   -8.3052 H   0  0  0  0  0  0  0  0  0  0  0  0
   -3.9430    5.2116   -8.1167 H   0  0  0  0  0  0  0  0  0  0  0  0
    1.4796    3.0263    6.6493 H   0  0  0  0  0  0  0  0  0  0  0  0
    0.6969    1.2468   -0.5731 H   0  0  0  0  0  0  0  0  0  0  0  0
    1.5841    1.0106    0.9332 H   0  0  0  0  0  0  0  0  0  0  0  0
   -0.1716   -0.2576    1.9569 H   0  0  0  0  0  0  0  0  0  0  0  0
    0.0427   -0.9254    0.3427 H   0  0  0  0  0  0  0  0  0  0  0  0
   -1.3325    0.1325    0.6942 H   0  0  0  0  0  0  0  0  0  0  0  0
   -1.2068    1.0242   -1.1652 H   0  0  0  0  0  0  0  0  0  0  0  0
   -1.1189    1.0457   -2.9392 H   0  0  0  0  0  0  0  0  0  0  0  0
   -3.3853    2.0642   -3.0252 H   0  0  0  0  0  0  0  0  0  0  0  0
   -3.4447    2.1183   -1.2594 H   0  0  0  0  0  0  0  0  0  0  0  0
   -3.4211    0.5628   -2.1019 H   0  0  0  0  0  0  0  0  0  0  0  0
    2.3792    0.9887    7.5313 H   0  0  0  0  0  0  0  0  0  0  0  0
    2.6025   -4.4946    4.4623 H   0  0  0  0  0  0  0  0  0  0  0  0
    4.1591   -3.9640    9.2529 H   0  0  0  0  0  0  0  0  0  0  0  0
    3.6709   -7.2683    8.5175 H   0  0  0  0  0  0  0  0  0  0  0  0
    6.2861   -6.7635    8.5065 H   0  0  0  0  0  0  0  0  0  0  0  0
    5.9334   -9.3331    8.0858 H   0  0  0  0  0  0  0  0  0  0  0  0
    5.1272   -9.6573    5.5751 H   0  0  0  0  0  0  0  0  0  0  0  0
    4.9856   -7.2879    4.4493 H   0  0  0  0  0  0  0  0  0  0  0  0
    5.9624   -5.4719    6.1728 H   0  0  0  0  0  0  0  0  0  0  0  0
    7.0920   -6.8325    5.9858 H   0  0  0  0  0  0  0  0  0  0  0  0
    2.8803   -7.5841    6.0555 H   0  0  0  0  0  0  0  0  0  0  0  0
  1  2  2  0  0  0  0
  2  3  1  0  0  0  0
  3  4  1  0  0  0  0
  4  5  2  0  0  0  0
  5  6  1  0  0  0  0
  6  7  3  0  0  0  0
  5  8  1  0  0  0  0
  8  9  3  0  0  0  0
  4 10  1  0  0  0  0
 10 11  1  0  0  0  0
 11 12  2  0  0  0  0
 12 13  1  0  0  0  0
 13 14  2  0  0  0  0
 14 15  1  0  0  0  0
 15 16  2  0  0  0  0
 10 17  1  0  0  0  0
 17 18  2  0  0  0  0
  1 19  1  0  0  0  0
 19 20  2  0  0  0  0
 20 21  1  0  0  0  0
 21 22  1  0  0  0  0
 20 23  1  0  0  0  0
 23 24  2  0  0  0  0
 24 25  1  0  0  0  0
 24 26  1  0  0  0  0
 26 27  2  0  0  0  0
 27 28  1  0  0  0  0
 27 29  1  0  0  0  0
 29 30  1  0  0  0  0
 30 31  2  0  0  0  0
 31 32  1  0  0  0  0
 32 33  1  0  0  0  0
 33 34  2  0  0  0  0
 34 35  1  0  0  0  0
 35 36  1  0  0  0  0
 36 37  1  0  0  0  0
 37 38  1  0  0  0  0
 38 39  1  0  0  0  0
 39 40  2  0  0  0  0
 40 41  1  0  0  0  0
 41 42  1  0  0  0  0
 42 43  1  0  0  0  0
 43 44  1  0  0  0  0
 44 45  1  0  0  0  0
 45 46  1  0  0  0  0
 44 47  1  0  0  0  0
 47 48  1  0  0  0  0
 48 49  1  0  0  0  0
 49 50  1  0  0  0  0
 50 51  1  0  0  0  0
 40 52  1  0  0  0  0
 52 53  2  0  0  0  0
 53 54  1  0  0  0  0
 54 55  2  0  0  0  0
 54 56  1  0  0  0  0
 56 57  2  0  0  0  0
 57 58  1  0  0  0  0
 58 59  2  0  0  0  0
 59 60  1  0  0  0  0
 60 61  2  0  0  0  0
 61 62  1  0  0  0  0
 62 63  2  0  0  0  0
 63 64  1  0  0  0  0
 64 65  3  0  0  0  0
 63 66  1  0  0  0  0
 66 67  3  0  0  0  0
 59 68  1  0  0  0  0
 68 69  1  0  0  0  0
 69 70  1  0  0  0  0
 70 71  2  0  0  0  0
 71 72  1  0  0  0  0
 72 73  1  0  0  0  0
 72 74  1  0  0  0  0
 17  2  1  0  0  0  0
 25 19  1  0  0  0  0
 49 26  1  0  0  0  0
 62 53  1  0  0  0  0
 74 68  1  0  0  0  0
 16 11  1  0  0  0  0
 28 23  1  0  0  0  0
 48 29  2  0  0  0  0
 61 56  1  0  0  0  0
 73 69  1  0  0  0  0
 34 30  1  0  0  0  0
 47 35  2  0  0  0  0
 74 58  1  0  0  0  0
 43 36  2  0  0  0  0
 42 38  2  0  0  0  0
  1 75  1  0  0  0  0
 12 76  1  0  0  0  0
 13 77  1  0  0  0  0
 14 78  1  0  0  0  0
 15 79  1  0  0  0  0
 16 80  1  0  0  0  0
 21 81  1  0  0  0  0
 21 82  1  0  0  0  0
 22 83  1  0  0  0  0
 22 84  1  0  0  0  0
 22 85  1  0  0  0  0
 39 86  1  0  0  0  0
 45 87  1  0  0  0  0
 45 88  1  0  0  0  0
 46 89  1  0  0  0  0
 46 90  1  0  0  0  0
 46 91  1  0  0  0  0
 50 92  1  0  0  0  0
 50 93  1  0  0  0  0
 51 94  1  0  0  0  0
 51 95  1  0  0  0  0
 51 96  1  0  0  0  0
 52 97  1  0  0  0  0
 57 98  1  0  0  0  0
 60 99  1  0  0  0  0
 68100  1  0  0  0  0
 69101  1  0  0  0  0
 70102  1  0  0  0  0
 71103  1  0  0  0  0
 72104  1  0  0  0  0
 73105  1  0  0  0  0
 73106  1  0  0  0  0
 74107  1  0  0  0  0
M  END
