107

C         -2.02150        2.80720       -8.26540
C         -2.10220        1.54880       -8.78860
S         -2.36180        1.32050      -10.51800
C         -2.33550       -0.41270      -10.33370
C         -2.55640       -1.26600      -11.38480
C         -2.76790       -0.74610      -12.67690
N         -2.93860       -0.32080      -13.72850
C         -2.62840       -2.66610      -11.28040
N         -2.71990       -3.81090      -11.26880
N         -2.10900       -0.76480       -9.03920
C         -1.93670       -2.11870       -8.62140
C         -2.92090       -2.72940       -7.86180
C         -2.74000       -4.03790       -7.45170
C         -1.58670       -4.72190       -7.79520
C         -0.60080       -4.09730       -8.54030
C         -0.76850       -2.78900       -8.95330
C         -1.98970        0.27040       -8.12190
O         -1.80580        0.06860       -6.93580
C         -1.81700        3.23340       -6.94430
C         -1.75520        4.58090       -6.56250
C         -1.94590        5.75730       -7.46450
C         -3.43400        6.05840       -7.66180
C         -1.53710        4.70920       -5.19520
C         -1.42230        3.48470       -4.51780
S         -1.59400        2.13950       -5.57910
C         -1.17920        3.68240       -3.15610
C         -1.12400        5.03700       -2.80980
S         -1.36140        6.10590       -4.14950
C         -0.89690        5.09780       -1.42700
C         -0.85840        6.18760       -0.52850
N         -1.01400        7.47600       -0.78800
S         -0.95500        8.29220        0.60900
N         -0.72340        7.03280        1.59910
C         -0.68380        5.92800        0.87220
C         -0.42260        4.60460        1.29480
C         -0.01910        4.09180        2.53420
S          0.27560        4.65120        4.14510
C          0.84540        3.04810        4.56250
C          1.35120        2.49550        5.72340
C          1.69580        1.15070        5.57670
S          1.37060        0.57200        3.94820
C          0.79330        2.13240        3.49240
C          0.28710        2.73760        2.33910
N          0.06020        2.39480        1.03240
C          0.58450        1.15320        0.50790
C         -0.27880       -0.04780        0.89650
C         -0.39480        3.51750        0.37230
C         -0.77190        3.75230       -0.97420
N         -0.97640        2.90150       -2.04670
C         -1.51390        1.55700       -2.05630
C         -3.04110        1.58040       -2.11520
C          2.24760        0.40480        6.62860
C          2.62500       -0.91190        6.68100
C          2.47590       -1.89090        5.59970
O          2.05250       -1.69300        4.47200
C          2.93170       -3.18090        6.14010
C          2.94590       -4.40880        5.48130
C          3.42090       -5.44730        6.24550
C          3.84620       -5.27790        7.56980
C          3.83510       -4.07300        8.23180
C          3.36030       -3.00030        7.47080
C          3.20280       -1.59030        7.82570
C          3.57130       -1.03020        9.02170
C          3.45210        0.33230        9.36750
N          3.39540        1.42040        9.73200
C          4.15210       -1.74150       10.09280
N          4.62570       -2.24950       11.00740
C          4.19800       -6.73590        7.72830
C          5.69740       -7.09450        7.65540
C          5.70010       -8.57690        7.35950
C          5.29760       -8.73880        6.10560
C          5.01620       -7.36830        5.53260
C          6.08100       -6.54920        6.27360
C          3.72420       -6.92510        6.25140
H         -2.13090        3.61000       -8.98470
H         -3.81550       -2.18420       -7.60170
H         -3.50620       -4.52400       -6.86750
H         -1.45460       -5.74580       -7.48080
H          0.30060       -4.62850       -8.80400
H         -0.00650       -2.29130       -9.53540
H         -1.47190        5.58300       -8.43190
H         -1.46620        6.62200       -7.00190
H         -3.90350        6.26880       -6.70400
H         -3.55660        6.92560       -8.30520
H         -3.94300        5.21160       -8.11670
H          1.47960        3.02630        6.64930
H          0.69690        1.24680       -0.57310
H          1.58410        1.01060        0.93320
H         -0.17160       -0.25760        1.95690
H          0.04270       -0.92540        0.34270
H         -1.33250        0.13250        0.69420
H         -1.20680        1.02420       -1.16520
H         -1.11890        1.04570       -2.93920
H         -3.38530        2.06420       -3.02520
H         -3.44470        2.11830       -1.25940
H         -3.42110        0.56280       -2.10190
H          2.37920        0.98870        7.53130
H          2.60250       -4.49460        4.46230
H          4.15910       -3.96400        9.25290
H          3.67090       -7.26830        8.51750
H          6.28610       -6.76350        8.50650
H          5.93340       -9.33310        8.08580
H          5.12720       -9.65730        5.57510
H          4.98560       -7.28790        4.44930
H          5.96240       -5.47190        6.17280
H          7.09200       -6.83250        5.98580
H          2.88030       -7.58410        6.05550
