103

C          1.97100       -7.89400        0.09580
C          2.70970       -7.81620       -1.04130
S          2.95740       -6.40260       -2.04480
C          4.00030       -7.31090       -3.11830
C          4.63390       -6.70840       -4.17460
C          5.55350       -7.34030       -5.03010
N          6.32850       -7.78320       -5.75260
C          4.40270       -5.34290       -4.43220
N          4.20440       -4.23260       -4.64270
N          4.10340       -8.61010       -2.73730
C          4.82100       -9.58810       -3.48930
C          5.99460      -10.11470       -2.97530
C          6.67710      -11.07400       -3.70130
C          6.18730      -11.50100       -4.92350
C          5.00530      -10.97980       -5.42180
C          4.31220      -10.02320       -4.70410
C          3.42280       -8.97140       -1.57800
O          3.43550      -10.08660       -1.11160
C          1.25120       -6.86800        0.73240
C          0.50310       -6.97760        1.90190
C          0.28060       -8.23940        2.66910
C         -0.87240       -9.04450        2.06430
C         -0.06780       -5.75300        2.25530
S         -1.07310       -5.26690        3.60330
C         -1.07330       -3.65160        2.98530
C         -1.56140       -2.38480        3.33040
C         -2.25220       -1.95060        4.48320
C         -2.51550       -0.55210        4.64320
N         -3.11800       -0.27840        5.78950
S         -3.33930       -1.66420        6.59600
N         -2.67250       -2.66720        5.51380
C         -2.16780        0.33030        3.59670
C         -2.39730        1.70320        3.44870
S         -3.06470        3.02200        4.34590
C         -2.75580        4.06780        2.97160
C         -2.98040        5.42110        2.76100
C         -3.63200        6.29920        3.77830
C         -5.13960        6.39470        3.52710
C         -2.57260        5.81400        1.47360
S         -1.89930        4.46870        0.54990
C         -2.16660        3.40610        1.88000
C         -1.95830        2.05370        2.16650
N         -1.44020        0.95650        1.53280
C         -1.54510       -0.12160        2.39390
C         -1.14620       -1.48310        2.30610
N         -0.39980       -2.19620        1.38190
C         -0.34950       -3.49840        1.79800
C          0.23250       -4.69890        1.38010
S          1.23810       -5.22810        0.08400
C          0.52510       -1.74120        0.36730
C          1.64510       -0.89670        0.96900
C         -1.22610        1.00390        0.10300
C         -2.27910        0.19110       -0.64610
C         -2.69150        7.12580        1.00650
C         -2.37270        7.68390       -0.20830
C         -1.82090        6.97930       -1.36760
O         -1.52490        5.79920       -1.45290
C         -1.68770        7.98810       -2.43420
C         -1.22420        7.82180       -3.72410
C         -1.18100        8.91670       -4.58010
C         -0.69320        8.81360       -5.98780
C         -1.61650       10.14410       -4.07720
F         -1.57990       11.21000       -4.89850
C         -2.08480       10.33700       -2.78720
C         -2.12000        9.23390       -1.94950
C         -2.54530        9.07950       -0.55910
C         -3.00510       10.09430        0.24110
C         -3.40630        9.96850        1.58700
N         -3.75250        9.95140        2.68300
C         -3.13590       11.43420       -0.18130
N         -3.26520       12.54100       -0.45680
H          1.94970       -8.87280        0.55940
H          6.36410       -9.77370       -2.02030
H          7.59550      -11.48440       -3.31060
H          6.72740      -12.24420       -5.48950
H          4.62030      -11.31650       -6.37190
H          3.38790       -9.61100       -5.08220
H          1.18790       -8.84520        2.67430
H          0.03390       -7.97710        3.69960
H         -1.03680       -9.94980        2.64230
H         -1.78720       -8.45690        2.07240
H         -0.64810       -9.32310        1.03720
H         -3.19920        7.30050        3.77010
H         -3.46300        5.86160        4.76420
H         -5.34040        6.82360        2.54810
H         -5.59840        7.02780        4.28110
H         -5.59400        5.40780        3.57460
H         -0.00300       -1.20870       -0.42310
H          0.95600       -2.63760       -0.08530
H          2.31500       -0.55860        0.18320
H          2.21710       -1.49010        1.67860
H          1.24920       -0.03020        1.49370
H         -1.30960        2.05360       -0.18840
H         -0.21500        0.68330       -0.14630
H         -2.08410        0.22990       -1.71420
H         -2.28140       -0.84810       -0.32460
H         -3.26740        0.60520       -0.46070
H         -3.11250        7.80120        1.73850
H         -0.90040        6.84750       -4.05730
H         -0.38840        7.79700       -6.21810
H          0.15140        9.48410       -6.14280
H         -1.47770        9.11720       -6.68030
H         -2.40120       11.32110       -2.48390
