
  xtb     02012223383D
 energy: -199.079955574964 gnorm: 0.000380057243 xtb: 6.4.1 (unknown)
106118  0     0  0            999 V2000
   -5.4757    3.7481   -4.6201 C   0  0  0  0  0  0  0  0  0  0  0  0
   -5.6807    3.7486   -5.9618 C   0  0  0  0  0  0  0  0  0  0  0  0
   -7.3023    3.6762   -6.6434 S   0  0  0  0  0  0  0  0  0  0  0  0
   -6.6578    3.5742   -8.2644 C   0  0  0  0  0  0  0  0  0  0  0  0
   -7.4657    3.5764   -9.3713 C   0  0  0  0  0  0  0  0  0  0  0  0
   -7.0045    3.5822  -10.7002 C   0  0  0  0  0  0  0  0  0  0  0  0
   -6.7011    3.6109  -11.8072 N   0  0  0  0  0  0  0  0  0  0  0  0
   -8.8664    3.6113   -9.2201 C   0  0  0  0  0  0  0  0  0  0  0  0
  -10.0066    3.6293   -9.0971 N   0  0  0  0  0  0  0  0  0  0  0  0
   -5.2990    3.5253   -8.2529 N   0  0  0  0  0  0  0  0  0  0  0  0
   -4.5196    3.2878   -9.4250 C   0  0  0  0  0  0  0  0  0  0  0  0
   -3.7032    4.2940   -9.9146 C   0  0  0  0  0  0  0  0  0  0  0  0
   -2.9348    4.0509  -11.0387 C   0  0  0  0  0  0  0  0  0  0  0  0
   -2.9819    2.8148  -11.6598 C   0  0  0  0  0  0  0  0  0  0  0  0
   -3.7894    1.8102  -11.1540 C   0  0  0  0  0  0  0  0  0  0  0  0
   -4.5594    2.0398  -10.0293 C   0  0  0  0  0  0  0  0  0  0  0  0
   -4.6737    3.6227   -7.0142 C   0  0  0  0  0  0  0  0  0  0  0  0
   -3.4750    3.5335   -6.8767 O   0  0  0  0  0  0  0  0  0  0  0  0
   -4.2363    3.9148   -3.9471 C   0  0  0  0  0  0  0  0  0  0  0  0
   -3.1628    4.7526   -4.2015 C   0  0  0  0  0  0  0  0  0  0  0  0
   -3.1462    5.8028   -5.2602 C   0  0  0  0  0  0  0  0  0  0  0  0
   -2.6700    7.1588   -4.7447 C   0  0  0  0  0  0  0  0  0  0  0  0
   -2.1334    4.5462   -3.2652 C   0  0  0  0  0  0  0  0  0  0  0  0
   -0.5258    5.2141   -3.0880 S   0  0  0  0  0  0  0  0  0  0  0  0
   -0.2425    4.1566   -1.7508 C   0  0  0  0  0  0  0  0  0  0  0  0
    0.7797    3.8362   -0.8392 C   0  0  0  0  0  0  0  0  0  0  0  0
    2.0439    4.4036   -0.5543 C   0  0  0  0  0  0  0  0  0  0  0  0
    2.8115    3.8935    0.5531 C   0  0  0  0  0  0  0  0  0  0  0  0
    3.9318    4.5713    0.7413 N   0  0  0  0  0  0  0  0  0  0  0  0
    4.0241    5.7403   -0.3738 S   0  0  0  0  0  0  0  0  0  0  0  0
    2.6346    5.4309   -1.1429 N   0  0  0  0  0  0  0  0  0  0  0  0
    2.3603    2.7373    1.2328 C   0  0  0  0  0  0  0  0  0  0  0  0
    2.9419    1.8991    2.1976 C   0  0  0  0  0  0  0  0  0  0  0  0
    4.3597    1.8236    3.1860 S   0  0  0  0  0  0  0  0  0  0  0  0
    3.8236    0.2645    3.7886 C   0  0  0  0  0  0  0  0  0  0  0  0
    4.3761   -0.6335    4.6887 C   0  0  0  0  0  0  0  0  0  0  0  0
    5.6957   -0.4086    5.3508 C   0  0  0  0  0  0  0  0  0  0  0  0
    6.8214   -1.0867    4.5644 C   0  0  0  0  0  0  0  0  0  0  0  0
    3.5690   -1.7806    4.8296 C   0  0  0  0  0  0  0  0  0  0  0  0
    2.1112   -1.6963    3.8342 S   0  0  0  0  0  0  0  0  0  0  0  0
    2.5986   -0.1565    3.2389 C   0  0  0  0  0  0  0  0  0  0  0  0
    2.1001    0.7849    2.3389 C   0  0  0  0  0  0  0  0  0  0  0  0
    1.0033    0.9155    1.5229 N   0  0  0  0  0  0  0  0  0  0  0  0
    1.1358    2.1181    0.8607 C   0  0  0  0  0  0  0  0  0  0  0  0
    0.2778    2.7708   -0.0480 C   0  0  0  0  0  0  0  0  0  0  0  0
   -1.0321    2.5045   -0.4016 N   0  0  0  0  0  0  0  0  0  0  0  0
   -1.3386    3.3391   -1.4474 C   0  0  0  0  0  0  0  0  0  0  0  0
   -2.4187    3.5705   -2.3032 C   0  0  0  0  0  0  0  0  0  0  0  0
   -4.0033    2.9268   -2.5050 S   0  0  0  0  0  0  0  0  0  0  0  0
   -2.0702    2.0097    0.4813 C   0  0  0  0  0  0  0  0  0  0  0  0
   -2.8995    3.1570    1.0573 C   0  0  0  0  0  0  0  0  0  0  0  0
    0.3080   -0.2648    1.0480 C   0  0  0  0  0  0  0  0  0  0  0  0
    1.2500   -1.1814    0.2685 C   0  0  0  0  0  0  0  0  0  0  0  0
    3.9114   -2.8499    5.6576 C   0  0  0  0  0  0  0  0  0  0  0  0
    3.2756   -4.0483    5.8972 C   0  0  0  0  0  0  0  0  0  0  0  0
    2.0122   -4.4860    5.3059 C   0  0  0  0  0  0  0  0  0  0  0  0
    1.3019   -3.8783    4.5213 O   0  0  0  0  0  0  0  0  0  0  0  0
    1.7455   -5.8302    5.8489 C   0  0  0  0  0  0  0  0  0  0  0  0
    0.6919   -6.6590    5.5962 C   0  0  0  0  0  0  0  0  0  0  0  0
    0.6445   -7.9195    6.2327 C   0  0  0  0  0  0  0  0  0  0  0  0
   -0.4176   -8.8160    6.0075 C   0  0  0  0  0  0  0  0  0  0  0  0
   -0.4373  -10.0302    6.6348 C   0  0  0  0  0  0  0  0  0  0  0  0
   -1.4493  -10.8827    6.4186 F   0  0  0  0  0  0  0  0  0  0  0  0
    0.6012  -10.3992    7.5122 C   0  0  0  0  0  0  0  0  0  0  0  0
    0.5559  -11.5963    8.1129 F   0  0  0  0  0  0  0  0  0  0  0  0
    1.6451   -9.5497    7.7510 C   0  0  0  0  0  0  0  0  0  0  0  0
    1.6953   -8.2908    7.1199 C   0  0  0  0  0  0  0  0  0  0  0  0
    2.7730   -7.4068    7.3616 C   0  0  0  0  0  0  0  0  0  0  0  0
    2.7993   -6.1899    6.7340 C   0  0  0  0  0  0  0  0  0  0  0  0
    3.7606   -5.0881    6.7801 C   0  0  0  0  0  0  0  0  0  0  0  0
    4.9061   -5.0786    7.5374 C   0  0  0  0  0  0  0  0  0  0  0  0
    5.3051   -6.1391    8.3769 C   0  0  0  0  0  0  0  0  0  0  0  0
    5.6884   -6.9635    9.0784 N   0  0  0  0  0  0  0  0  0  0  0  0
    5.8485   -4.0323    7.5991 C   0  0  0  0  0  0  0  0  0  0  0  0
    6.6635   -3.2285    7.7052 N   0  0  0  0  0  0  0  0  0  0  0  0
   -6.3347    3.5548   -3.9873 H   0  0  0  0  0  0  0  0  0  0  0  0
   -3.6764    5.2533   -9.4203 H   0  0  0  0  0  0  0  0  0  0  0  0
   -2.3016    4.8320  -11.4305 H   0  0  0  0  0  0  0  0  0  0  0  0
   -2.3857    2.6323  -12.5406 H   0  0  0  0  0  0  0  0  0  0  0  0
   -3.8220    0.8447  -11.6344 H   0  0  0  0  0  0  0  0  0  0  0  0
   -5.1910    1.2624   -9.6243 H   0  0  0  0  0  0  0  0  0  0  0  0
   -4.1530    5.9046   -5.6710 H   0  0  0  0  0  0  0  0  0  0  0  0
   -2.4941    5.4613   -6.0697 H   0  0  0  0  0  0  0  0  0  0  0  0
   -1.6266    7.1224   -4.4458 H   0  0  0  0  0  0  0  0  0  0  0  0
   -2.7737    7.9038   -5.5295 H   0  0  0  0  0  0  0  0  0  0  0  0
   -3.2664    7.4726   -3.8907 H   0  0  0  0  0  0  0  0  0  0  0  0
    5.8821    0.6667    5.3822 H   0  0  0  0  0  0  0  0  0  0  0  0
    5.6920   -0.7852    6.3746 H   0  0  0  0  0  0  0  0  0  0  0  0
    7.7731   -0.9033    5.0543 H   0  0  0  0  0  0  0  0  0  0  0  0
    6.6627   -2.1613    4.5129 H   0  0  0  0  0  0  0  0  0  0  0  0
    6.8665   -0.6923    3.5520 H   0  0  0  0  0  0  0  0  0  0  0  0
   -1.6062    1.4739    1.3078 H   0  0  0  0  0  0  0  0  0  0  0  0
   -2.7182    1.3305   -0.0820 H   0  0  0  0  0  0  0  0  0  0  0  0
   -2.2556    3.8583    1.5839 H   0  0  0  0  0  0  0  0  0  0  0  0
   -3.6295    2.7600    1.7569 H   0  0  0  0  0  0  0  0  0  0  0  0
   -3.4289    3.6896    0.2725 H   0  0  0  0  0  0  0  0  0  0  0  0
   -0.5034    0.0347    0.3885 H   0  0  0  0  0  0  0  0  0  0  0  0
   -0.0964   -0.7988    1.9130 H   0  0  0  0  0  0  0  0  0  0  0  0
    2.0465   -1.5543    0.9057 H   0  0  0  0  0  0  0  0  0  0  0  0
    1.6908   -0.6440   -0.5687 H   0  0  0  0  0  0  0  0  0  0  0  0
    0.6919   -2.0305   -0.1154 H   0  0  0  0  0  0  0  0  0  0  0  0
    4.8422   -2.6992    6.1869 H   0  0  0  0  0  0  0  0  0  0  0  0
   -0.0936   -6.3582    4.9198 H   0  0  0  0  0  0  0  0  0  0  0  0
   -1.2202   -8.5480    5.3383 H   0  0  0  0  0  0  0  0  0  0  0  0
    2.4321   -9.8482    8.4259 H   0  0  0  0  0  0  0  0  0  0  0  0
    3.5506   -7.7199    8.0389 H   0  0  0  0  0  0  0  0  0  0  0  0
  1  2  2  0  0  0  0
  2  3  1  0  0  0  0
  3  4  1  0  0  0  0
  4  5  2  0  0  0  0
  5  6  1  0  0  0  0
  6  7  3  0  0  0  0
  5  8  1  0  0  0  0
  8  9  3  0  0  0  0
  4 10  1  0  0  0  0
 10 11  1  0  0  0  0
 11 12  2  0  0  0  0
 12 13  1  0  0  0  0
 13 14  2  0  0  0  0
 14 15  1  0  0  0  0
 15 16  2  0  0  0  0
 10 17  1  0  0  0  0
 17 18  2  0  0  0  0
  1 19  1  0  0  0  0
 19 20  2  0  0  0  0
 20 21  1  0  0  0  0
 21 22  1  0  0  0  0
 20 23  1  0  0  0  0
 23 24  1  0  0  0  0
 24 25  1  0  0  0  0
 25 26  1  0  0  0  0
 26 27  1  0  0  0  0
 27 28  1  0  0  0  0
 28 29  2  0  0  0  0
 29 30  1  0  0  0  0
 30 31  1  0  0  0  0
 28 32  1  0  0  0  0
 32 33  1  0  0  0  0
 33 34  1  0  0  0  0
 34 35  1  0  0  0  0
 35 36  1  0  0  0  0
 36 37  1  0  0  0  0
 37 38  1  0  0  0  0
 36 39  2  0  0  0  0
 39 40  1  0  0  0  0
 40 41  1  0  0  0  0
 41 42  1  0  0  0  0
 42 43  1  0  0  0  0
 43 44  1  0  0  0  0
 44 45  1  0  0  0  0
 45 46  1  0  0  0  0
 46 47  1  0  0  0  0
 47 48  1  0  0  0  0
 48 49  1  0  0  0  0
 46 50  1  0  0  0  0
 50 51  1  0  0  0  0
 43 52  1  0  0  0  0
 52 53  1  0  0  0  0
 39 54  1  0  0  0  0
 54 55  2  0  0  0  0
 55 56  1  0  0  0  0
 56 57  2  0  0  0  0
 56 58  1  0  0  0  0
 58 59  2  0  0  0  0
 59 60  1  0  0  0  0
 60 61  2  0  0  0  0
 61 62  1  0  0  0  0
 62 63  1  0  0  0  0
 62 64  2  0  0  0  0
 64 65  1  0  0  0  0
 64 66  1  0  0  0  0
 66 67  2  0  0  0  0
 67 68  1  0  0  0  0
 68 69  2  0  0  0  0
 69 70  1  0  0  0  0
 70 71  2  0  0  0  0
 71 72  1  0  0  0  0
 72 73  3  0  0  0  0
 71 74  1  0  0  0  0
 74 75  3  0  0  0  0
 17  2  1  0  0  0  0
 49 19  1  0  0  0  0
 70 55  1  0  0  0  0
 16 11  1  0  0  0  0
 48 23  2  0  0  0  0
 69 58  1  0  0  0  0
 47 25  2  0  0  0  0
 67 60  1  0  0  0  0
 45 26  2  0  0  0  0
 31 27  2  0  0  0  0
 44 32  2  0  0  0  0
 42 33  2  0  0  0  0
 41 35  2  0  0  0  0
  1 76  1  0  0  0  0
 12 77  1  0  0  0  0
 13 78  1  0  0  0  0
 14 79  1  0  0  0  0
 15 80  1  0  0  0  0
 16 81  1  0  0  0  0
 21 82  1  0  0  0  0
 21 83  1  0  0  0  0
 22 84  1  0  0  0  0
 22 85  1  0  0  0  0
 22 86  1  0  0  0  0
 37 87  1  0  0  0  0
 37 88  1  0  0  0  0
 38 89  1  0  0  0  0
 38 90  1  0  0  0  0
 38 91  1  0  0  0  0
 50 92  1  0  0  0  0
 50 93  1  0  0  0  0
 51 94  1  0  0  0  0
 51 95  1  0  0  0  0
 51 96  1  0  0  0  0
 52 97  1  0  0  0  0
 52 98  1  0  0  0  0
 53 99  1  0  0  0  0
 53100  1  0  0  0  0
 53101  1  0  0  0  0
 54102  1  0  0  0  0
 59103  1  0  0  0  0
 61104  1  0  0  0  0
 66105  1  0  0  0  0
 68106  1  0  0  0  0
M  END
