155

C         -2.55420        8.77280       -0.27520
C         -2.65830        9.59360        0.80130
S         -2.21410        9.23070        2.45460
C         -2.69150       10.83730        2.96450
C         -2.52190       11.26270        4.25650
C         -2.00040       10.38060        5.22390
N         -1.58310        9.66260        6.01520
C         -2.79670       12.56250        4.71790
N         -2.97510       13.60690        5.16070
N         -3.19070       11.56510        1.93090
C         -3.74960       12.86830        2.09230
C         -4.96820       13.01160        2.73940
C         -5.51310       14.27410        2.88000
C         -4.85050       15.37730        2.36910
C         -3.64430       15.22190        1.70820
C         -3.08710       13.96420        1.56420
C         -3.18990       10.94980        0.68390
O         -3.58490       11.48050       -0.32790
C         -2.07210        7.45190       -0.32280
S         -1.49020        6.60790        1.11390
C         -1.14450        5.21470        0.16690
C         -0.63620        3.92120        0.27170
S         -0.03640        2.83730        1.48050
C          0.16130        1.63530        0.24860
C          0.59550        0.27530        0.25490
C          1.04730       -0.53430        1.29380
C          1.38950       -1.82870        0.97880
C          1.90890       -2.91520        1.90460
C          3.13970       -2.40520        2.62900
C          3.00060       -1.69270        3.81370
C          4.11120       -1.19150        4.46480
C          5.38740       -1.38590        3.95190
C          6.58780       -0.80730        4.64340
C          6.84130        0.62380        4.16520
C          5.51910       -2.08720        2.76130
C          4.41060       -2.58830        2.10380
C          0.86140       -3.42940        2.88010
C         -0.48340       -3.11670        2.75100
C         -1.41000       -3.63610        3.63780
C         -1.02010       -4.48270        4.66580
C         -2.03420       -5.07750        5.59960
C         -2.54840       -6.41020        5.05100
C          0.32670       -4.80570        4.77900
C          1.25650       -4.28940        3.89820
C          2.18100       -4.02510        0.92160
C          1.77930       -3.63870       -0.35890
C          1.30250       -2.29550       -0.35490
C          0.83890       -1.48780       -1.39240
C          0.47960       -0.20200       -1.07210
C         -0.03900        0.88940       -2.00000
C         -1.42010        0.56710       -2.54690
C         -2.33590       -0.09370       -1.73600
C         -3.62300       -0.33300       -2.17650
C         -4.03810        0.08970       -3.43310
C         -5.42420       -0.20820       -3.92630
C         -5.46340       -1.57520       -4.61260
C         -3.12260        0.75360       -4.23660
C         -1.83290        0.99400       -3.80030
C          1.02370        1.11640       -3.05520
C          2.00710        2.08000       -2.87480
C          3.00360        2.25420       -3.81650
C          3.05340        1.46630       -4.95820
C          4.10150        1.70410       -6.00620
C          3.64510        2.79160       -6.98120
C          2.08460        0.48490       -5.12210
C          1.08820        0.30400       -4.18070
C         -0.19780        2.03680       -1.02970
C         -0.66280        3.35420       -1.02840
N         -1.17700        4.27560       -1.91370
C         -1.47450        5.41230       -1.19290
C         -1.99420        6.67000       -1.46760
C         -1.36880        4.15710       -3.28530
C         -2.55180        4.23550       -3.95380
C         -2.38820        4.14800       -5.35200
C         -1.09070        4.02400       -5.74110
C         -0.55350        3.81320       -7.11470
C         -0.33280        2.32260       -7.38560
S         -0.01840        4.02550       -4.37880
S          2.01240       -4.86720       -1.51700
C          2.68820       -5.93070       -0.27140
C          2.68430       -5.30970        0.97770
C          3.09790       -7.19640       -0.70960
C          3.76520       -8.21670       -0.07320
C          4.38340       -8.21090        1.26820
O          4.30100       -7.37290        2.14140
C          5.16820       -9.46300        1.34830
C          5.98890       -9.92490        2.36630
Cl         6.21180       -9.02680        3.80820
C          6.64440      -11.14240        2.20280
C          6.46360      -11.85960        1.03220
Br         7.37400      -13.50970        0.82910
C          5.64320      -11.41830       -0.00080
C          4.99290      -10.20940        0.16980
C          4.07730       -9.47960       -0.70980
C          3.57490       -9.96850       -1.88860
C          2.62360       -9.33280       -2.71540
N          1.84200       -8.90740       -3.44210
C          3.91520      -11.22290       -2.43800
N          4.14850      -12.22610       -2.94520
H         -2.88640        9.20050       -1.21430
H         -5.47720       12.14340        3.13210
H         -6.45620       14.39420        3.39010
H         -5.27750       16.36160        2.48520
H         -3.13090       16.08150        1.30540
H         -2.14800       13.82800        1.04980
H          1.12120       -0.15200        2.29990
H          2.01810       -1.54360        4.23820
H          3.98550       -0.64600        5.38920
H          6.42600       -0.80180        5.72320
H          7.46740       -1.41870        4.43260
H          7.71030        1.04410        4.66600
H          7.01740        0.63820        3.09180
H          5.97950        1.25220        4.37820
H          6.50260       -2.24860        2.34330
H          4.54040       -3.13200        1.17930
H         -0.81460       -2.46170        1.95840
H         -2.45320       -3.37580        3.52800
H         -1.58260       -5.24280        6.57970
H         -2.87400       -4.39050        5.72120
H         -1.72660       -7.11290        4.93310
H         -3.28150       -6.84290        5.72770
H         -3.01510       -6.26470        4.07930
H          0.65160       -5.46830        5.56820
H          2.30000       -4.54640        4.00550
H          0.77320       -1.87070       -2.39860
H         -2.03910       -0.42270       -0.75030
H         -4.31880       -0.85040       -1.53150
H         -5.73790        0.56000       -4.63610
H         -6.12410       -0.20650       -3.08840
H         -4.78090       -1.59310       -5.45940
H         -6.46690       -1.79280       -4.97030
H         -5.16510       -2.35630       -3.91710
H         -3.42120        1.09720       -5.21690
H         -1.14560        1.51170       -4.44960
H          1.99490        2.70470       -1.99370
H          3.75500        3.01460       -3.66010
H          4.29290        0.78200       -6.55810
H          5.03260        2.01770       -5.53030
H          3.42890        3.71270       -6.44430
H          4.41980        2.99130       -7.71760
H          2.74410        2.47830       -7.50320
H          2.11230       -0.15250       -5.99500
H          0.34770       -0.46790       -4.33210
H         -2.30190        7.01790       -2.43650
H         -3.50150        4.32890       -3.45880
H         -3.20990        4.17220       -6.04510
H          0.39450        4.34290       -7.22700
H         -1.26300        4.21700       -7.83980
H         -1.27000        1.77810       -7.29570
H          0.05700        2.17670       -8.38990
H          0.37650        1.91090       -6.67010
H          3.05240       -5.79710        1.86050
H          2.86150       -7.37620       -1.75220
H          7.28770      -11.51800        2.98240
H          5.53740      -12.01020       -0.89460
