
  xtb     02022217383D
 energy: -232.003067992854 gnorm: 0.000499495913 xtb: 6.4.1 (unknown)
136152  0     0  0            999 V2000
    7.9050   -1.0550   -3.1366 C   0  0  0  0  0  0  0  0  0  0  0  0
    7.6638   -1.7634   -4.2778 C   0  0  0  0  0  0  0  0  0  0  0  0
    8.9852   -2.2212   -5.3467 S   0  0  0  0  0  0  0  0  0  0  0  0
    7.8844   -3.0565   -6.4144 C   0  0  0  0  0  0  0  0  0  0  0  0
    8.3429   -3.6656   -7.5552 C   0  0  0  0  0  0  0  0  0  0  0  0
    9.7253   -3.6570   -7.8336 C   0  0  0  0  0  0  0  0  0  0  0  0
   10.8490   -3.6560   -8.0646 N   0  0  0  0  0  0  0  0  0  0  0  0
    7.5619   -4.2864   -8.5426 C   0  0  0  0  0  0  0  0  0  0  0  0
    6.9826   -4.7779   -9.4042 N   0  0  0  0  0  0  0  0  0  0  0  0
    6.6041   -2.9804   -5.9612 N   0  0  0  0  0  0  0  0  0  0  0  0
    5.4983   -3.7258   -6.5276 C   0  0  0  0  0  0  0  0  0  0  0  0
    5.6492   -5.2131   -6.3120 C   0  0  0  0  0  0  0  0  0  0  0  0
    5.1731   -6.1053   -7.2629 C   0  0  0  0  0  0  0  0  0  0  0  0
    5.3017   -7.4683   -7.0665 C   0  0  0  0  0  0  0  0  0  0  0  0
    5.9094   -7.9529   -5.9207 C   0  0  0  0  0  0  0  0  0  0  0  0
    6.3781   -7.0685   -4.9654 C   0  0  0  0  0  0  0  0  0  0  0  0
    6.2445   -5.7049   -5.1579 C   0  0  0  0  0  0  0  0  0  0  0  0
    6.4112   -2.2710   -4.7843 C   0  0  0  0  0  0  0  0  0  0  0  0
    5.3062   -2.1280   -4.2883 O   0  0  0  0  0  0  0  0  0  0  0  0
    7.0233   -0.6129   -2.1390 C   0  0  0  0  0  0  0  0  0  0  0  0
    7.4636    0.0598   -0.9908 C   0  0  0  0  0  0  0  0  0  0  0  0
    8.8606    0.4651   -0.7700 C   0  0  0  0  0  0  0  0  0  0  0  0
    9.3907    1.4665   -1.5789 C   0  0  0  0  0  0  0  0  0  0  0  0
   10.6890    1.9036   -1.3996 C   0  0  0  0  0  0  0  0  0  0  0  0
   11.4708    1.3349   -0.4090 C   0  0  0  0  0  0  0  0  0  0  0  0
   10.9499    0.3326    0.3890 C   0  0  0  0  0  0  0  0  0  0  0  0
    9.6460   -0.1170    0.2278 C   0  0  0  0  0  0  0  0  0  0  0  0
    9.1379   -1.2608    1.0586 C   0  0  0  0  0  0  0  0  0  0  0  0
    9.2236   -2.5740    0.2775 C   0  0  0  0  0  0  0  0  0  0  0  0
    6.4098    0.3402   -0.1263 C   0  0  0  0  0  0  0  0  0  0  0  0
    6.3419    1.1208    1.4405 S   0  0  0  0  0  0  0  0  0  0  0  0
    4.6312    0.8638    1.4544 C   0  0  0  0  0  0  0  0  0  0  0  0
    3.5455    1.0442    2.3211 C   0  0  0  0  0  0  0  0  0  0  0  0
    3.4870    1.4364    3.6776 C   0  0  0  0  0  0  0  0  0  0  0  0
    2.2446    1.3030    4.3845 C   0  0  0  0  0  0  0  0  0  0  0  0
    2.3554    1.6206    5.6643 N   0  0  0  0  0  0  0  0  0  0  0  0
    3.8856    2.0601    5.9546 S   0  0  0  0  0  0  0  0  0  0  0  0
    4.4700    1.8550    4.4584 N   0  0  0  0  0  0  0  0  0  0  0  0
    1.0859    0.9312    3.6664 C   0  0  0  0  0  0  0  0  0  0  0  0
   -0.2616    0.8482    4.0520 C   0  0  0  0  0  0  0  0  0  0  0  0
   -1.2308    1.0282    5.4724 S   0  0  0  0  0  0  0  0  0  0  0  0
   -2.6592    0.8025    4.4918 C   0  0  0  0  0  0  0  0  0  0  0  0
   -4.0261    0.8354    4.7871 C   0  0  0  0  0  0  0  0  0  0  0  0
   -4.5857    1.1083    6.1216 C   0  0  0  0  0  0  0  0  0  0  0  0
   -5.0240    0.0741    6.9483 C   0  0  0  0  0  0  0  0  0  0  0  0
   -4.8947   -1.3647    6.5339 C   0  0  0  0  0  0  0  0  0  0  0  0
   -3.5394   -1.9253    6.9698 C   0  0  0  0  0  0  0  0  0  0  0  0
   -5.5354    0.3990    8.1977 C   0  0  0  0  0  0  0  0  0  0  0  0
   -5.6151    1.7140    8.6181 C   0  0  0  0  0  0  0  0  0  0  0  0
   -5.1781    2.7333    7.7892 C   0  0  0  0  0  0  0  0  0  0  0  0
   -4.6645    2.4307    6.5424 C   0  0  0  0  0  0  0  0  0  0  0  0
   -4.7994    0.7045    3.6430 C   0  0  0  0  0  0  0  0  0  0  0  0
   -3.8177    0.4286    2.2046 S   0  0  0  0  0  0  0  0  0  0  0  0
   -2.3754    0.5859    3.1369 C   0  0  0  0  0  0  0  0  0  0  0  0
   -1.0019    0.6005    2.8898 C   0  0  0  0  0  0  0  0  0  0  0  0
   -0.1669    0.4917    1.8064 N   0  0  0  0  0  0  0  0  0  0  0  0
    1.1280    0.6731    2.2676 C   0  0  0  0  0  0  0  0  0  0  0  0
    2.3900    0.5796    1.6288 C   0  0  0  0  0  0  0  0  0  0  0  0
    2.7833    0.0770    0.4059 N   0  0  0  0  0  0  0  0  0  0  0  0
    4.1390    0.2427    0.2985 C   0  0  0  0  0  0  0  0  0  0  0  0
    5.1572   -0.0821   -0.6044 C   0  0  0  0  0  0  0  0  0  0  0  0
    5.2841   -0.8779   -2.1303 S   0  0  0  0  0  0  0  0  0  0  0  0
    2.0720   -0.7866   -0.5097 C   0  0  0  0  0  0  0  0  0  0  0  0
    1.8384   -0.1223   -1.8669 C   0  0  0  0  0  0  0  0  0  0  0  0
   -0.7112    0.8072    0.5011 C   0  0  0  0  0  0  0  0  0  0  0  0
   -1.0777    2.2881    0.4021 C   0  0  0  0  0  0  0  0  0  0  0  0
   -6.2110    0.7669    3.5923 C   0  0  0  0  0  0  0  0  0  0  0  0
   -7.0017    1.1196    2.5429 C   0  0  0  0  0  0  0  0  0  0  0  0
   -8.4362    0.7330    2.5168 C   0  0  0  0  0  0  0  0  0  0  0  0
   -9.0853    0.2903    3.4379 O   0  0  0  0  0  0  0  0  0  0  0  0
   -8.8728    0.9521    1.1231 C   0  0  0  0  0  0  0  0  0  0  0  0
  -10.1156    0.6474    0.5711 C   0  0  0  0  0  0  0  0  0  0  0  0
  -10.2317    0.9677   -0.7603 C   0  0  0  0  0  0  0  0  0  0  0  0
   -9.1859    1.5390   -1.4987 C   0  0  0  0  0  0  0  0  0  0  0  0
   -7.9549    1.8448   -0.9697 C   0  0  0  0  0  0  0  0  0  0  0  0
   -7.8208    1.5379    0.3873 C   0  0  0  0  0  0  0  0  0  0  0  0
   -6.7040    1.7856    1.2942 C   0  0  0  0  0  0  0  0  0  0  0  0
   -5.7102    2.7106    1.0948 C   0  0  0  0  0  0  0  0  0  0  0  0
   -5.4596    3.3637   -0.1267 C   0  0  0  0  0  0  0  0  0  0  0  0
   -5.1749    3.9006   -1.1015 N   0  0  0  0  0  0  0  0  0  0  0  0
   -4.8675    3.1772    2.1246 C   0  0  0  0  0  0  0  0  0  0  0  0
   -4.1996    3.6335    2.9402 N   0  0  0  0  0  0  0  0  0  0  0  0
  -10.0053    1.6001   -2.7635 C   0  0  0  0  0  0  0  0  0  0  0  0
  -10.5700    2.9843   -3.1481 C   0  0  0  0  0  0  0  0  0  0  0  0
  -11.6898    2.6630   -4.1115 C   0  0  0  0  0  0  0  0  0  0  0  0
  -12.6810    2.1246   -3.4127 C   0  0  0  0  0  0  0  0  0  0  0  0
  -12.2479    2.0732   -1.9652 C   0  0  0  0  0  0  0  0  0  0  0  0
  -11.3897    3.3432   -1.9019 C   0  0  0  0  0  0  0  0  0  0  0  0
  -11.1721    0.9665   -1.9399 C   0  0  0  0  0  0  0  0  0  0  0  0
    8.9422   -0.7964   -2.9510 H   0  0  0  0  0  0  0  0  0  0  0  0
    4.6060   -3.3620   -6.0029 H   0  0  0  0  0  0  0  0  0  0  0  0
    5.3994   -3.4983   -7.5916 H   0  0  0  0  0  0  0  0  0  0  0  0
    4.7138   -5.7307   -8.1648 H   0  0  0  0  0  0  0  0  0  0  0  0
    4.9335   -8.1527   -7.8154 H   0  0  0  0  0  0  0  0  0  0  0  0
    6.0177   -9.0167   -5.7721 H   0  0  0  0  0  0  0  0  0  0  0  0
    6.8496   -7.4380   -4.0668 H   0  0  0  0  0  0  0  0  0  0  0  0
    6.6044   -5.0243   -4.3980 H   0  0  0  0  0  0  0  0  0  0  0  0
    8.7684    1.9082   -2.3443 H   0  0  0  0  0  0  0  0  0  0  0  0
   11.0872    2.6841   -2.0302 H   0  0  0  0  0  0  0  0  0  0  0  0
   12.4865    1.6695   -0.2608 H   0  0  0  0  0  0  0  0  0  0  0  0
   11.5662   -0.1144    1.1557 H   0  0  0  0  0  0  0  0  0  0  0  0
    9.7406   -1.3433    1.9645 H   0  0  0  0  0  0  0  0  0  0  0  0
    8.1039   -1.0867    1.3575 H   0  0  0  0  0  0  0  0  0  0  0  0
    8.8999   -3.4048    0.8998 H   0  0  0  0  0  0  0  0  0  0  0  0
    8.5902   -2.5376   -0.6062 H   0  0  0  0  0  0  0  0  0  0  0  0
   10.2470   -2.7584   -0.0421 H   0  0  0  0  0  0  0  0  0  0  0  0
   -4.9907   -1.4583    5.4502 H   0  0  0  0  0  0  0  0  0  0  0  0
   -5.6913   -1.9503    6.9971 H   0  0  0  0  0  0  0  0  0  0  0  0
   -2.7286   -1.3638    6.5115 H   0  0  0  0  0  0  0  0  0  0  0  0
   -3.4320   -1.8560    8.0497 H   0  0  0  0  0  0  0  0  0  0  0  0
   -3.4488   -2.9689    6.6773 H   0  0  0  0  0  0  0  0  0  0  0  0
   -5.8778   -0.3946    8.8465 H   0  0  0  0  0  0  0  0  0  0  0  0
   -6.0191    1.9436    9.5928 H   0  0  0  0  0  0  0  0  0  0  0  0
   -5.2384    3.7618    8.1112 H   0  0  0  0  0  0  0  0  0  0  0  0
   -4.3266    3.2134    5.8795 H   0  0  0  0  0  0  0  0  0  0  0  0
    2.6828   -1.6831   -0.6645 H   0  0  0  0  0  0  0  0  0  0  0  0
    1.1380   -1.0998   -0.0408 H   0  0  0  0  0  0  0  0  0  0  0  0
    1.1596   -0.7284   -2.4602 H   0  0  0  0  0  0  0  0  0  0  0  0
    1.4192    0.8758   -1.7583 H   0  0  0  0  0  0  0  0  0  0  0  0
    2.7767   -0.0359   -2.4072 H   0  0  0  0  0  0  0  0  0  0  0  0
   -1.6055    0.1923    0.3605 H   0  0  0  0  0  0  0  0  0  0  0  0
    0.0074    0.5677   -0.2735 H   0  0  0  0  0  0  0  0  0  0  0  0
   -1.5047    2.4967   -0.5750 H   0  0  0  0  0  0  0  0  0  0  0  0
   -0.1923    2.9057    0.5378 H   0  0  0  0  0  0  0  0  0  0  0  0
   -1.8071    2.5626    1.1602 H   0  0  0  0  0  0  0  0  0  0  0  0
   -6.7309    0.4524    4.4926 H   0  0  0  0  0  0  0  0  0  0  0  0
  -10.8950    0.2051    1.1714 H   0  0  0  0  0  0  0  0  0  0  0  0
   -7.1527    2.2760   -1.5460 H   0  0  0  0  0  0  0  0  0  0  0  0
   -9.6092    1.0501   -3.6150 H   0  0  0  0  0  0  0  0  0  0  0  0
   -9.8261    3.7021   -3.4827 H   0  0  0  0  0  0  0  0  0  0  0  0
  -11.6263    2.8050   -5.1743 H   0  0  0  0  0  0  0  0  0  0  0  0
  -13.6107    1.7269   -3.7752 H   0  0  0  0  0  0  0  0  0  0  0  0
  -13.0337    1.9615   -1.2230 H   0  0  0  0  0  0  0  0  0  0  0  0
  -11.9806    4.2464   -2.0446 H   0  0  0  0  0  0  0  0  0  0  0  0
  -10.7986    3.4356   -0.9927 H   0  0  0  0  0  0  0  0  0  0  0  0
  -11.5553   -0.0064   -2.2421 H   0  0  0  0  0  0  0  0  0  0  0  0
  1  2  2  0  0  0  0
  2  3  1  0  0  0  0
  3  4  1  0  0  0  0
  4  5  2  0  0  0  0
  5  6  1  0  0  0  0
  6  7  3  0  0  0  0
  5  8  1  0  0  0  0
  8  9  3  0  0  0  0
  4 10  1  0  0  0  0
 10 11  1  0  0  0  0
 11 12  1  0  0  0  0
 12 13  2  0  0  0  0
 13 14  1  0  0  0  0
 14 15  2  0  0  0  0
 15 16  1  0  0  0  0
 16 17  2  0  0  0  0
 10 18  1  0  0  0  0
 18 19  2  0  0  0  0
  1 20  1  0  0  0  0
 20 21  2  0  0  0  0
 21 22  1  0  0  0  0
 22 23  2  0  0  0  0
 23 24  1  0  0  0  0
 24 25  2  0  0  0  0
 25 26  1  0  0  0  0
 26 27  2  0  0  0  0
 27 28  1  0  0  0  0
 28 29  1  0  0  0  0
 21 30  1  0  0  0  0
 30 31  1  0  0  0  0
 31 32  1  0  0  0  0
 32 33  1  0  0  0  0
 33 34  1  0  0  0  0
 34 35  1  0  0  0  0
 35 36  2  0  0  0  0
 36 37  1  0  0  0  0
 37 38  1  0  0  0  0
 35 39  1  0  0  0  0
 39 40  1  0  0  0  0
 40 41  1  0  0  0  0
 41 42  1  0  0  0  0
 42 43  1  0  0  0  0
 43 44  1  0  0  0  0
 44 45  2  0  0  0  0
 45 46  1  0  0  0  0
 46 47  1  0  0  0  0
 45 48  1  0  0  0  0
 48 49  2  0  0  0  0
 49 50  1  0  0  0  0
 50 51  2  0  0  0  0
 43 52  2  0  0  0  0
 52 53  1  0  0  0  0
 53 54  1  0  0  0  0
 54 55  1  0  0  0  0
 55 56  1  0  0  0  0
 56 57  1  0  0  0  0
 57 58  1  0  0  0  0
 58 59  1  0  0  0  0
 59 60  1  0  0  0  0
 60 61  1  0  0  0  0
 61 62  1  0  0  0  0
 59 63  1  0  0  0  0
 63 64  1  0  0  0  0
 56 65  1  0  0  0  0
 65 66  1  0  0  0  0
 52 67  1  0  0  0  0
 67 68  2  0  0  0  0
 68 69  1  0  0  0  0
 69 70  2  0  0  0  0
 69 71  1  0  0  0  0
 71 72  2  0  0  0  0
 72 73  1  0  0  0  0
 73 74  2  0  0  0  0
 74 75  1  0  0  0  0
 75 76  2  0  0  0  0
 76 77  1  0  0  0  0
 77 78  2  0  0  0  0
 78 79  1  0  0  0  0
 79 80  3  0  0  0  0
 78 81  1  0  0  0  0
 81 82  3  0  0  0  0
 74 83  1  0  0  0  0
 83 84  1  0  0  0  0
 84 85  1  0  0  0  0
 85 86  2  0  0  0  0
 86 87  1  0  0  0  0
 87 88  1  0  0  0  0
 87 89  1  0  0  0  0
 18  2  1  0  0  0  0
 62 20  1  0  0  0  0
 77 68  1  0  0  0  0
 89 83  1  0  0  0  0
 17 12  1  0  0  0  0
 27 22  1  0  0  0  0
 61 30  2  0  0  0  0
 76 71  1  0  0  0  0
 88 84  1  0  0  0  0
 60 32  2  0  0  0  0
 89 73  1  0  0  0  0
 58 33  2  0  0  0  0
 38 34  2  0  0  0  0
 57 39  2  0  0  0  0
 55 40  2  0  0  0  0
 54 42  2  0  0  0  0
 51 44  1  0  0  0  0
  1 90  1  0  0  0  0
 11 91  1  0  0  0  0
 11 92  1  0  0  0  0
 13 93  1  0  0  0  0
 14 94  1  0  0  0  0
 15 95  1  0  0  0  0
 16 96  1  0  0  0  0
 17 97  1  0  0  0  0
 23 98  1  0  0  0  0
 24 99  1  0  0  0  0
 25100  1  0  0  0  0
 26101  1  0  0  0  0
 28102  1  0  0  0  0
 28103  1  0  0  0  0
 29104  1  0  0  0  0
 29105  1  0  0  0  0
 29106  1  0  0  0  0
 46107  1  0  0  0  0
 46108  1  0  0  0  0
 47109  1  0  0  0  0
 47110  1  0  0  0  0
 47111  1  0  0  0  0
 48112  1  0  0  0  0
 49113  1  0  0  0  0
 50114  1  0  0  0  0
 51115  1  0  0  0  0
 63116  1  0  0  0  0
 63117  1  0  0  0  0
 64118  1  0  0  0  0
 64119  1  0  0  0  0
 64120  1  0  0  0  0
 65121  1  0  0  0  0
 65122  1  0  0  0  0
 66123  1  0  0  0  0
 66124  1  0  0  0  0
 66125  1  0  0  0  0
 67126  1  0  0  0  0
 72127  1  0  0  0  0
 75128  1  0  0  0  0
 83129  1  0  0  0  0
 84130  1  0  0  0  0
 85131  1  0  0  0  0
 86132  1  0  0  0  0
 87133  1  0  0  0  0
 88134  1  0  0  0  0
 88135  1  0  0  0  0
 89136  1  0  0  0  0
M  END
