100

C          3.09540       -6.40400        2.64220
C          3.74250       -6.90540        3.73530
S          3.43850       -8.53330        4.32680
C          4.48020       -8.26840        5.70480
C          4.67590       -9.25990        6.63240
C          3.99200      -10.48460        6.48720
N          3.43570      -11.48160        6.37590
C          5.54070       -9.21180        7.73740
N          6.24900       -9.25520        8.64060
N          5.02630       -7.02200        5.67840
C          5.78130       -6.43740        6.76950
C          4.90510       -6.15710        7.96770
C          5.40650       -6.31340        9.25230
C          4.60710       -6.04830       10.34970
C          3.29960       -5.62840       10.17430
C          2.79720       -5.46220        8.89550
C          3.59740       -5.72090        7.79710
C          4.66880       -6.22880        4.60250
O          5.10950       -5.09710        4.45210
C          3.14590       -5.12510        2.06060
Se         4.26920       -3.65620        2.55760
C          3.40660       -2.73260        1.21530
C          3.40570       -1.47220        0.60540
C          4.29030       -0.38750        0.77700
C          4.14400        0.76850       -0.05500
N          5.07750        1.67800        0.17760
S          6.05320        1.12480        1.34560
N          5.32150       -0.29830        1.60090
C          3.03380        0.83380       -0.92770
C          2.53160        1.89600       -1.68810
S          2.93130        3.53510       -2.07240
C          1.38590        3.68610       -2.89130
C          0.75230        4.75950       -3.50020
C          1.40240        6.09370       -3.66730
C          2.01330        6.23370       -5.06430
C         -0.53530        4.40850       -3.94840
S         -0.91730        2.71770       -3.61360
C          0.62530        2.50300       -2.87870
C          1.29750        1.48070       -2.20530
N          1.04420        0.19170       -1.82560
C          2.09810       -0.24200       -1.04630
C          2.36440       -1.45750       -0.36200
N          1.78620       -2.71620       -0.38270
C          2.41060       -3.48720        0.56920
C          2.29170       -4.79910        1.00330
C          0.95360       -3.34170       -1.38420
C         -0.42240       -3.73440       -0.84500
C         -0.26490       -0.37140       -2.06030
C         -0.45450       -0.80390       -3.51340
C         -1.40800        5.31810       -4.55040
C         -2.71960        5.18080       -4.94280
C         -3.55080        3.98780       -4.77460
O         -3.19940        2.87870       -4.40450
C         -4.92210        4.38840       -5.12860
C         -6.07060        3.65480       -5.06530
C         -7.29630        4.26590       -5.41200
C         -8.51570        3.56200       -5.34770
C         -9.69760        4.16950       -5.66960
C         -9.68170        5.51190       -6.07090
F        -10.85460        6.09380       -6.38100
C         -8.52660        6.23900       -6.15430
C         -7.30070        5.62990       -5.82430
C         -6.09020        6.36020       -5.89230
C         -4.91520        5.74850       -5.54800
C         -3.53950        6.23980       -5.49490
C         -3.12550        7.47340       -5.93120
C         -3.99010        8.45070       -6.46590
N         -4.63890        9.28910       -6.90700
C         -1.79350        7.93450       -5.94190
N         -0.73280        8.37430       -5.99230
H          2.40620       -7.08980        2.15850
H          6.18170       -5.49630        6.37300
H          6.61320       -7.09050        7.04150
H          6.42060       -6.65440        9.39330
H          5.00570       -6.17760       11.34430
H          2.67350       -5.42990       11.03120
H          1.78020       -5.12920        8.74990
H          3.19830       -5.57310        6.80260
H          2.19430        6.18080       -2.92050
H          0.68760        6.90140       -3.50260
H          2.74100        5.44480       -5.23950
H          2.51100        7.19490       -5.15210
H          1.24370        6.17700       -5.83010
H          1.60670       -5.52360        0.59650
H          1.46820       -4.24820       -1.72530
H          0.86600       -2.67550       -2.23880
H         -0.33170       -4.51390       -0.09440
H         -1.03980       -4.10650       -1.65800
H         -0.92840       -2.89120       -0.38060
H         -0.42510       -1.19410       -1.36930
H         -1.00340        0.40600       -1.83520
H         -0.45830        0.06580       -4.16420
H          0.34040       -1.46990       -3.84300
H         -1.40780       -1.31290       -3.62050
H         -0.97610        6.30060       -4.68580
H         -6.04640        2.62360       -4.74580
H         -8.50210        2.52850       -5.03510
H        -10.63950        3.64640       -5.62250
H         -8.55240        7.27090       -6.46790
H         -6.12960        7.39080       -6.20600
