123

C          0.33600       -2.58500        7.03380
C         -0.85400       -3.23720        7.17370
S         -1.20150       -4.17960        8.61840
C         -2.80090       -4.56600        8.03030
C         -3.66060       -5.32050        8.78710
C         -4.99310       -5.63530        8.47560
N         -6.09600       -5.90450        8.30210
C         -3.22460       -5.82060       10.03180
N         -2.87220       -6.23280       11.04250
N         -3.02300       -4.01340        6.80720
C         -4.20950       -4.24700        6.00960
C         -4.29490       -5.66350        5.49410
C         -5.53760       -6.24790        5.29060
C         -5.63000       -7.53790        4.80190
C         -4.48230       -8.25740        4.51450
C         -3.24140       -7.67730        4.70850
C         -3.14760       -6.38400        5.19200
C         -1.98060       -3.27440        6.27020
O         -2.06200       -2.73990        5.17710
C          0.81660       -1.79480        5.97730
C          2.06960       -1.16750        6.01140
C          2.96080       -1.19710        7.18090
C          2.55370       -0.54460        8.34140
C          3.36230       -0.52850        9.46160
C          4.58630       -1.17390        9.43000
C          4.98850       -1.83180        8.28190
C          4.19320       -1.85510        7.14390
C          4.62680       -2.64630        5.94270
C          3.91880       -4.00240        5.90220
C          2.33240       -0.48380        4.82640
S          3.68360        0.49860        4.29410
C          2.86630        0.74550        2.78810
C          3.08200        1.37320        1.55490
C          4.21260        2.05820        1.05800
C          4.21090        2.49550       -0.30560
N          5.34890        3.07510       -0.65370
S          6.33670        3.07420        0.62870
N          5.35080        2.33240        1.67600
C          3.04400        2.30860       -1.07900
C          2.74810        2.69930       -2.39110
S          3.52310        3.45930       -3.73660
C          2.03660        3.29740       -4.64580
C          1.67740        3.66520       -5.94450
C          2.54910        4.39210       -6.87820
C          3.68690        3.80620       -7.43620
C          4.01900        2.35790       -7.22500
C          3.30530        1.49560       -8.26850
C          4.47530        4.57530       -8.28340
C          4.15630        5.88880       -8.57270
C          3.02340        6.46110       -8.01910
C          2.22340        5.71300       -7.17810
C          0.36080        3.30430       -6.23500
S         -0.44200        2.56700       -4.84820
C          1.00050        2.69400       -3.91450
C          1.41190        2.35070       -2.62620
N          0.88230        1.74440       -1.51910
C          1.87180        1.69000       -0.55100
C          1.92530        1.13100        0.75410
N          1.04750        0.35420        1.49120
C          1.61880        0.11700        2.71130
C          1.30300       -0.58920        3.87740
S         -0.02360       -1.52710        4.45580
C         -0.07470       -0.45590        1.07080
C          0.34490       -1.49480        0.03370
C         -0.55360        1.61780       -1.40120
C         -1.11870        2.60700       -0.38480
C         -0.29790        3.53630       -7.45330
C         -1.51440        3.08050       -7.87360
C         -2.23350        3.78090       -8.96030
O         -1.78120        4.59900       -9.72470
C         -3.64060        3.31400       -8.84810
C         -4.76590        3.76800       -9.51370
Cl        -4.65310        4.92670      -10.76090
C         -6.01490        3.25430       -9.13330
Cl        -7.42870        3.76660       -9.94740
C         -6.11270        2.35630       -8.07130
Cl        -7.65480        1.81430       -7.56770
C         -4.96760        1.89770       -7.40150
Cl        -5.15710        0.91310       -6.01010
C         -3.72660        2.33770       -7.83440
C         -2.36730        2.00840       -7.40720
C         -1.91770        0.77440       -7.01800
C         -0.54100        0.47440       -6.91420
N          0.56590        0.17590       -6.85900
C         -2.69660       -0.39090       -6.86550
N         -3.22650       -1.40390       -6.76580
H          1.02990       -2.68100        7.86220
H         -5.10110       -3.99540        6.58940
H         -4.12950       -3.55220        5.16400
H         -6.43340       -5.69450        5.52780
H         -6.60120       -7.98440        4.65260
H         -4.55460       -9.26740        4.14020
H         -2.34160       -8.23020        4.48310
H         -2.17170       -5.93730        5.32760
H          1.59920       -0.03770        8.35180
H          3.03740       -0.01540       10.35400
H          5.22520       -1.16800       10.30020
H          5.94090       -2.34180        8.26470
H          4.40860       -2.09960        5.02510
H          5.70500       -2.80740        5.98870
H          4.26870       -4.58460        5.05320
H          2.84270       -3.87210        5.81070
H          4.12000       -4.56220        6.81290
H          5.09760        2.21850       -7.31820
H          3.71910        2.02940       -6.23040
H          2.22680        1.56660       -8.14910
H          3.56600        1.81940       -9.27380
H          3.58910        0.45330       -8.15130
H          5.35550        4.12910       -8.72330
H          4.78790        6.46540       -9.23170
H          2.76330        7.48490       -8.24040
H          1.34310        6.15380       -6.73190
H         -0.88860        0.17180        0.70950
H         -0.43940       -0.96810        1.96430
H          0.78730       -1.02590       -0.84240
H          1.08080       -2.17020        0.46360
H         -0.51790       -2.07780       -0.27630
H         -0.83260        0.59120       -1.16560
H         -0.96660        1.84120       -2.38790
H         -2.19450        2.47930       -0.30220
H         -0.67010        2.46500        0.59570
H         -0.91510        3.62620       -0.70530
H          0.18930        4.24280       -8.11820
