136

C          4.41240       -5.93030        3.04490
C          5.16190       -6.92800        2.50480
S          6.62090       -7.51600        3.28810
C          6.82700       -8.74810        2.06400
C          7.81050       -9.69660        2.18480
C          8.70750       -9.63380        3.27070
N          9.44390       -9.58580        4.14890
C          7.99060      -10.80810        1.34620
N          8.16080      -11.76170        0.72890
N          5.90900       -8.61780        1.07270
C          5.97440       -9.32490       -0.18990
C          7.21030       -8.96860       -0.98020
C          7.82450       -9.92480       -1.77720
C          8.95410       -9.60330       -2.50760
C          9.48340       -8.32550       -2.44530
C          8.87020       -7.36550       -1.65970
C          7.73590       -7.68390       -0.93440
C          4.96720       -7.60620        1.23150
O          4.16350       -7.32760        0.36870
C          3.11460       -5.53140        2.64130
C          2.06870       -6.27090        2.09970
C          2.07220       -7.72190        1.94570
C          2.57630       -8.54410        2.95160
C          2.62040       -9.91200        2.77840
C          2.15970      -10.49870        1.60390
C          2.26940      -11.98090        1.39490
C          3.61080      -12.33360        0.74760
C          1.63250       -9.67690        0.61630
C          1.58050       -8.30650        0.78180
C          0.96550       -5.45210        1.80740
S         -0.60800       -5.78490        1.12290
C         -1.00340       -4.10700        1.27020
C         -2.06920       -3.23420        0.99200
C         -3.38800       -3.46000        0.53840
C         -4.28700       -2.34390        0.43340
N         -5.50170       -2.70960        0.05660
S         -5.51500       -4.31430       -0.15390
N         -3.96930       -4.60760        0.22770
C         -3.78890       -1.03780        0.64440
C         -4.35620        0.22360        0.41330
S         -5.86660        0.91390       -0.07340
C         -5.11270        2.49720       -0.05710
C         -5.59500        3.77710       -0.32290
C         -6.97940        4.06570       -0.68390
C         -7.69540        5.07900       -0.04800
C         -8.99920        5.34570       -0.41150
C         -9.62310        4.61680       -1.41670
C        -11.04620        4.90170       -1.79480
C        -12.00540        4.09500       -0.91670
C         -8.91630        3.58790       -2.02790
C         -7.61450        3.30810       -1.66610
C         -4.58190        4.74830       -0.19510
S         -3.05390        4.04570        0.33250
C         -3.76050        2.47160        0.31820
C         -3.33820        1.16800        0.59510
N         -2.17570        0.54510        0.96830
C         -2.43420       -0.81270        1.02340
C         -1.62700       -1.93060        1.34680
N         -0.35740       -2.01930        1.89210
C          0.02210       -3.33640        1.82940
C          1.14390       -4.10600        2.14820
S          2.69210       -3.83350        2.85620
C          0.23230       -1.15300        2.88920
C         -0.00160       -1.69320        4.29960
C         -0.91430        1.24500        0.82190
C         -0.01520        0.60030       -0.22670
C         -4.76750        6.08300       -0.57200
C         -3.89760        7.14600       -0.54920
C         -2.51610        7.12120       -0.06550
O         -1.90980        6.17430        0.41120
C         -1.97730        8.47530       -0.26970
C         -0.68890        8.91740        0.02270
C         -0.46540       10.23530       -0.29530
C         -1.45110       11.05180       -0.86470
C         -2.72520       10.62690       -1.15930
C         -2.97610        9.28890       -0.84060
C         -4.18900        8.48780       -1.01170
C         -5.37640        8.95540       -1.51570
C         -5.59690       10.28420       -1.93490
N         -5.85780       11.34490       -2.29000
C         -6.56260        8.21270       -1.69100
N         -7.57740        7.70410       -1.87180
C         -0.53910       12.25210       -0.91940
C         -0.75460       13.33200        0.16190
C          0.54170       14.10950        0.15900
C          1.47680       13.33700        0.69700
C          0.82800       12.02430        1.07310
C         -0.57300       12.52140        1.45180
C          0.56060       11.34140       -0.28480
H          4.84790       -5.36880        3.86390
H          5.92630      -10.40260       -0.01760
H          5.07570       -9.01270       -0.73680
H          7.42420      -10.92650       -1.81410
H          9.42660      -10.35630       -3.11970
H         10.37090       -8.07760       -3.00790
H          9.27350       -6.36490       -1.61000
H          7.25700       -6.92180       -0.33460
H          2.92290       -8.10610        3.87720
H          3.01330      -10.53730        3.56810
H          2.18600      -12.49810        2.35260
H          1.45920      -12.32340        0.74850
H          3.71060      -11.82970       -0.21150
H          4.43540      -12.02800        1.38890
H          3.68370      -13.40590        0.58450
H          1.25920      -10.11600       -0.29760
H          1.19280       -7.67990       -0.00580
H         -7.23210        5.64170        0.75010
H         -9.53750        6.13970        0.08390
H        -11.21020        4.63970       -2.84160
H        -11.25140        5.96640       -1.67170
H        -11.82460        3.02920       -1.03790
H        -11.86360        4.34820        0.13150
H        -13.03710        4.30570       -1.18840
H         -9.38920        3.00440       -2.80480
H         -7.07110        2.51850       -2.16370
H         -0.22400       -0.17100        2.81750
H          1.30590       -1.07460        2.69180
H          0.48110       -2.65710        4.43360
H          0.40810       -0.99880        5.02780
H         -1.06740       -1.80760        4.48600
H         -1.16430        2.26130        0.50830
H         -0.39160        1.33100        1.77820
H         -0.53790        0.53780       -1.17840
H          0.87610        1.20670       -0.36000
H          0.28640       -0.40090        0.06760
H         -5.75740        6.27810       -0.96610
H          0.04070        8.25060        0.45520
H         -3.46650       11.26870       -1.60420
H         -0.36300       12.66980       -1.90880
H         -1.67080       13.90610        0.05500
H          0.65360       15.08750       -0.27110
H          2.52590       13.54080        0.80610
H          1.35450       11.40850        1.79740
H         -1.30530       11.72690        1.58340
H         -0.55970       13.15480        2.33730
H          1.46980       11.15090       -0.85230
