
  xtb     02112204463D
 energy: -184.085140749405 gnorm: 0.000285995577 xtb: 6.4.1 (unknown)
100111  0     0  0            999 V2000
    3.0954   -6.4040    2.6422 C   0  0  0  0  0  0  0  0  0  0  0  0
    3.7425   -6.9054    3.7353 C   0  0  0  0  0  0  0  0  0  0  0  0
    3.4385   -8.5333    4.3268 S   0  0  0  0  0  0  0  0  0  0  0  0
    4.4802   -8.2684    5.7048 C   0  0  0  0  0  0  0  0  0  0  0  0
    4.6759   -9.2599    6.6324 C   0  0  0  0  0  0  0  0  0  0  0  0
    3.9920  -10.4846    6.4872 C   0  0  0  0  0  0  0  0  0  0  0  0
    3.4357  -11.4816    6.3759 N   0  0  0  0  0  0  0  0  0  0  0  0
    5.5407   -9.2118    7.7374 C   0  0  0  0  0  0  0  0  0  0  0  0
    6.2490   -9.2552    8.6406 N   0  0  0  0  0  0  0  0  0  0  0  0
    5.0263   -7.0220    5.6784 N   0  0  0  0  0  0  0  0  0  0  0  0
    5.7813   -6.4374    6.7695 C   0  0  0  0  0  0  0  0  0  0  0  0
    4.9051   -6.1571    7.9677 C   0  0  0  0  0  0  0  0  0  0  0  0
    5.4065   -6.3134    9.2523 C   0  0  0  0  0  0  0  0  0  0  0  0
    4.6071   -6.0483   10.3497 C   0  0  0  0  0  0  0  0  0  0  0  0
    3.2996   -5.6284   10.1743 C   0  0  0  0  0  0  0  0  0  0  0  0
    2.7972   -5.4622    8.8955 C   0  0  0  0  0  0  0  0  0  0  0  0
    3.5974   -5.7209    7.7971 C   0  0  0  0  0  0  0  0  0  0  0  0
    4.6688   -6.2288    4.6025 C   0  0  0  0  0  0  0  0  0  0  0  0
    5.1095   -5.0971    4.4521 O   0  0  0  0  0  0  0  0  0  0  0  0
    3.1459   -5.1251    2.0606 C   0  0  0  0  0  0  0  0  0  0  0  0
    4.2692   -3.6562    2.5576 Se  0  0  0  0  0  2  0  0  0  0  0  0
    3.4066   -2.7326    1.2153 C   0  0  0  0  0  0  0  0  0  0  0  0
    3.4057   -1.4722    0.6054 C   0  0  0  0  0  0  0  0  0  0  0  0
    4.2903   -0.3875    0.7770 C   0  0  0  0  0  0  0  0  0  0  0  0
    4.1440    0.7685   -0.0550 C   0  0  0  0  0  0  0  0  0  0  0  0
    5.0775    1.6780    0.1776 N   0  0  0  0  0  0  0  0  0  0  0  0
    6.0532    1.1248    1.3456 S   0  0  0  0  0  0  0  0  0  0  0  0
    5.3215   -0.2983    1.6009 N   0  0  0  0  0  0  0  0  0  0  0  0
    3.0338    0.8338   -0.9277 C   0  0  0  0  0  0  0  0  0  0  0  0
    2.5316    1.8960   -1.6881 C   0  0  0  0  0  0  0  0  0  0  0  0
    2.9313    3.5351   -2.0724 S   0  0  0  0  0  0  0  0  0  0  0  0
    1.3859    3.6861   -2.8913 C   0  0  0  0  0  0  0  0  0  0  0  0
    0.7523    4.7595   -3.5002 C   0  0  0  0  0  0  0  0  0  0  0  0
    1.4024    6.0937   -3.6673 C   0  0  0  0  0  0  0  0  0  0  0  0
    2.0133    6.2337   -5.0643 C   0  0  0  0  0  0  0  0  0  0  0  0
   -0.5353    4.4085   -3.9484 C   0  0  0  0  0  0  0  0  0  0  0  0
   -0.9173    2.7177   -3.6136 S   0  0  0  0  0  0  0  0  0  0  0  0
    0.6253    2.5030   -2.8787 C   0  0  0  0  0  0  0  0  0  0  0  0
    1.2975    1.4807   -2.2053 C   0  0  0  0  0  0  0  0  0  0  0  0
    1.0442    0.1917   -1.8256 N   0  0  0  0  0  0  0  0  0  0  0  0
    2.0981   -0.2420   -1.0463 C   0  0  0  0  0  0  0  0  0  0  0  0
    2.3644   -1.4575   -0.3620 C   0  0  0  0  0  0  0  0  0  0  0  0
    1.7862   -2.7162   -0.3827 N   0  0  0  0  0  0  0  0  0  0  0  0
    2.4106   -3.4872    0.5692 C   0  0  0  0  0  0  0  0  0  0  0  0
    2.2917   -4.7991    1.0033 C   0  0  0  0  0  0  0  0  0  0  0  0
    0.9536   -3.3417   -1.3842 C   0  0  0  0  0  0  0  0  0  0  0  0
   -0.4224   -3.7344   -0.8450 C   0  0  0  0  0  0  0  0  0  0  0  0
   -0.2649   -0.3714   -2.0603 C   0  0  0  0  0  0  0  0  0  0  0  0
   -0.4545   -0.8039   -3.5134 C   0  0  0  0  0  0  0  0  0  0  0  0
   -1.4080    5.3181   -4.5504 C   0  0  0  0  0  0  0  0  0  0  0  0
   -2.7196    5.1808   -4.9428 C   0  0  0  0  0  0  0  0  0  0  0  0
   -3.5508    3.9878   -4.7746 C   0  0  0  0  0  0  0  0  0  0  0  0
   -3.1994    2.8787   -4.4045 O   0  0  0  0  0  0  0  0  0  0  0  0
   -4.9221    4.3884   -5.1286 C   0  0  0  0  0  0  0  0  0  0  0  0
   -6.0706    3.6548   -5.0653 C   0  0  0  0  0  0  0  0  0  0  0  0
   -7.2963    4.2659   -5.4120 C   0  0  0  0  0  0  0  0  0  0  0  0
   -8.5157    3.5620   -5.3477 C   0  0  0  0  0  0  0  0  0  0  0  0
   -9.6976    4.1695   -5.6696 C   0  0  0  0  0  0  0  0  0  0  0  0
   -9.6817    5.5119   -6.0709 C   0  0  0  0  0  0  0  0  0  0  0  0
  -10.8546    6.0938   -6.3810 F   0  0  0  0  0  0  0  0  0  0  0  0
   -8.5266    6.2390   -6.1543 C   0  0  0  0  0  0  0  0  0  0  0  0
   -7.3007    5.6299   -5.8243 C   0  0  0  0  0  0  0  0  0  0  0  0
   -6.0902    6.3602   -5.8923 C   0  0  0  0  0  0  0  0  0  0  0  0
   -4.9152    5.7485   -5.5480 C   0  0  0  0  0  0  0  0  0  0  0  0
   -3.5395    6.2398   -5.4949 C   0  0  0  0  0  0  0  0  0  0  0  0
   -3.1255    7.4734   -5.9312 C   0  0  0  0  0  0  0  0  0  0  0  0
   -3.9901    8.4507   -6.4659 C   0  0  0  0  0  0  0  0  0  0  0  0
   -4.6389    9.2891   -6.9070 N   0  0  0  0  0  0  0  0  0  0  0  0
   -1.7935    7.9345   -5.9419 C   0  0  0  0  0  0  0  0  0  0  0  0
   -0.7328    8.3743   -5.9923 N   0  0  0  0  0  0  0  0  0  0  0  0
    2.4062   -7.0898    2.1585 H   0  0  0  0  0  0  0  0  0  0  0  0
    6.1817   -5.4963    6.3730 H   0  0  0  0  0  0  0  0  0  0  0  0
    6.6132   -7.0905    7.0415 H   0  0  0  0  0  0  0  0  0  0  0  0
    6.4206   -6.6544    9.3933 H   0  0  0  0  0  0  0  0  0  0  0  0
    5.0057   -6.1776   11.3443 H   0  0  0  0  0  0  0  0  0  0  0  0
    2.6735   -5.4299   11.0312 H   0  0  0  0  0  0  0  0  0  0  0  0
    1.7802   -5.1292    8.7499 H   0  0  0  0  0  0  0  0  0  0  0  0
    3.1983   -5.5731    6.8026 H   0  0  0  0  0  0  0  0  0  0  0  0
    2.1943    6.1808   -2.9205 H   0  0  0  0  0  0  0  0  0  0  0  0
    0.6876    6.9014   -3.5026 H   0  0  0  0  0  0  0  0  0  0  0  0
    2.7410    5.4448   -5.2395 H   0  0  0  0  0  0  0  0  0  0  0  0
    2.5110    7.1949   -5.1521 H   0  0  0  0  0  0  0  0  0  0  0  0
    1.2437    6.1770   -5.8301 H   0  0  0  0  0  0  0  0  0  0  0  0
    1.6067   -5.5236    0.5965 H   0  0  0  0  0  0  0  0  0  0  0  0
    1.4682   -4.2482   -1.7253 H   0  0  0  0  0  0  0  0  0  0  0  0
    0.8660   -2.6755   -2.2388 H   0  0  0  0  0  0  0  0  0  0  0  0
   -0.3317   -4.5139   -0.0944 H   0  0  0  0  0  0  0  0  0  0  0  0
   -1.0398   -4.1065   -1.6580 H   0  0  0  0  0  0  0  0  0  0  0  0
   -0.9284   -2.8912   -0.3806 H   0  0  0  0  0  0  0  0  0  0  0  0
   -0.4251   -1.1941   -1.3693 H   0  0  0  0  0  0  0  0  0  0  0  0
   -1.0034    0.4060   -1.8352 H   0  0  0  0  0  0  0  0  0  0  0  0
   -0.4583    0.0658   -4.1642 H   0  0  0  0  0  0  0  0  0  0  0  0
    0.3404   -1.4699   -3.8430 H   0  0  0  0  0  0  0  0  0  0  0  0
   -1.4078   -1.3129   -3.6205 H   0  0  0  0  0  0  0  0  0  0  0  0
   -0.9761    6.3006   -4.6858 H   0  0  0  0  0  0  0  0  0  0  0  0
   -6.0464    2.6236   -4.7458 H   0  0  0  0  0  0  0  0  0  0  0  0
   -8.5021    2.5285   -5.0351 H   0  0  0  0  0  0  0  0  0  0  0  0
  -10.6395    3.6464   -5.6225 H   0  0  0  0  0  0  0  0  0  0  0  0
   -8.5524    7.2709   -6.4679 H   0  0  0  0  0  0  0  0  0  0  0  0
   -6.1296    7.3908   -6.2060 H   0  0  0  0  0  0  0  0  0  0  0  0
  1  2  2  0  0  0  0
  2  3  1  0  0  0  0
  3  4  1  0  0  0  0
  4  5  2  0  0  0  0
  5  6  1  0  0  0  0
  6  7  3  0  0  0  0
  5  8  1  0  0  0  0
  8  9  3  0  0  0  0
  4 10  1  0  0  0  0
 10 11  1  0  0  0  0
 11 12  1  0  0  0  0
 12 13  2  0  0  0  0
 13 14  1  0  0  0  0
 14 15  2  0  0  0  0
 15 16  1  0  0  0  0
 16 17  2  0  0  0  0
 10 18  1  0  0  0  0
 18 19  2  0  0  0  0
  1 20  1  0  0  0  0
 20 21  1  0  0  0  0
 21 22  1  0  0  0  0
 22 23  1  0  0  0  0
 23 24  1  0  0  0  0
 24 25  1  0  0  0  0
 25 26  2  0  0  0  0
 26 27  1  0  0  0  0
 27 28  1  0  0  0  0
 25 29  1  0  0  0  0
 29 30  1  0  0  0  0
 30 31  1  0  0  0  0
 31 32  1  0  0  0  0
 32 33  1  0  0  0  0
 33 34  1  0  0  0  0
 34 35  1  0  0  0  0
 33 36  2  0  0  0  0
 36 37  1  0  0  0  0
 37 38  1  0  0  0  0
 38 39  1  0  0  0  0
 39 40  1  0  0  0  0
 40 41  1  0  0  0  0
 41 42  1  0  0  0  0
 42 43  1  0  0  0  0
 43 44  1  0  0  0  0
 44 45  1  0  0  0  0
 43 46  1  0  0  0  0
 46 47  1  0  0  0  0
 40 48  1  0  0  0  0
 48 49  1  0  0  0  0
 36 50  1  0  0  0  0
 50 51  2  0  0  0  0
 51 52  1  0  0  0  0
 52 53  2  0  0  0  0
 52 54  1  0  0  0  0
 54 55  2  0  0  0  0
 55 56  1  0  0  0  0
 56 57  2  0  0  0  0
 57 58  1  0  0  0  0
 58 59  2  0  0  0  0
 59 60  1  0  0  0  0
 59 61  1  0  0  0  0
 61 62  2  0  0  0  0
 62 63  1  0  0  0  0
 63 64  2  0  0  0  0
 64 65  1  0  0  0  0
 65 66  2  0  0  0  0
 66 67  1  0  0  0  0
 67 68  3  0  0  0  0
 66 69  1  0  0  0  0
 69 70  3  0  0  0  0
 18  2  1  0  0  0  0
 45 20  2  0  0  0  0
 65 51  1  0  0  0  0
 17 12  1  0  0  0  0
 44 22  2  0  0  0  0
 64 54  1  0  0  0  0
 42 23  2  0  0  0  0
 62 56  1  0  0  0  0
 28 24  2  0  0  0  0
 41 29  2  0  0  0  0
 39 30  2  0  0  0  0
 38 32  2  0  0  0  0
  1 71  1  0  0  0  0
 11 72  1  0  0  0  0
 11 73  1  0  0  0  0
 13 74  1  0  0  0  0
 14 75  1  0  0  0  0
 15 76  1  0  0  0  0
 16 77  1  0  0  0  0
 17 78  1  0  0  0  0
 34 79  1  0  0  0  0
 34 80  1  0  0  0  0
 35 81  1  0  0  0  0
 35 82  1  0  0  0  0
 35 83  1  0  0  0  0
 45 84  1  0  0  0  0
 46 85  1  0  0  0  0
 46 86  1  0  0  0  0
 47 87  1  0  0  0  0
 47 88  1  0  0  0  0
 47 89  1  0  0  0  0
 48 90  1  0  0  0  0
 48 91  1  0  0  0  0
 49 92  1  0  0  0  0
 49 93  1  0  0  0  0
 49 94  1  0  0  0  0
 50 95  1  0  0  0  0
 55 96  1  0  0  0  0
 57 97  1  0  0  0  0
 58 98  1  0  0  0  0
 61 99  1  0  0  0  0
 63100  1  0  0  0  0
M  END
