91

C          0.49150        3.16680        7.87970
C         -0.03290        4.42510        7.78010
S          0.00330        5.55800        9.12430
C         -0.80220        6.77760        8.16650
C         -1.11040        8.00030        8.70560
C         -1.82460        9.03470        8.07960
N         -2.42820        9.90760        7.64080
C         -0.73050        8.28410       10.03430
N         -0.42100        8.52190       11.11270
N         -1.06360        6.32410        6.90830
C         -1.59560        7.14370        5.83740
C         -0.60470        8.18090        5.36480
C         -1.05380        9.41650        4.91930
C         -0.15290       10.36530        4.47090
C          1.20410       10.08960        4.46510
C          1.65670        8.85650        4.90060
C          0.75610        7.90420        5.34440
C         -0.65850        5.03300        6.63900
O         -0.83570        4.50890        5.54330
C          0.56600        2.13930        6.92650
C          1.15470        0.91080        7.22460
C          1.16030       -0.00370        6.18620
S          1.77440       -1.64480        6.11620
C          1.24170       -1.74230        4.47430
C          1.17040       -2.67560        3.43320
C          1.50270       -4.04840        3.39810
C          1.17820       -4.80830        2.22750
N          1.48670       -6.08910        2.35410
S          2.13530       -6.31820        3.81920
N          2.04550       -4.79150        4.34930
C          0.64660       -4.13720        1.10330
C          0.35520       -4.60050       -0.18530
C         -0.01640       -3.48410       -0.94430
N          0.00140       -2.35610       -0.16430
C          0.06600       -1.08400       -0.84850
C          1.47340       -0.81990       -1.37960
C          0.40030       -2.72960        1.10710
C          0.55270       -2.01810        2.32580
N          0.21880       -0.73680        2.72060
C          0.64010       -0.56610        4.01170
C          0.57650        0.43880        4.98140
Se        -0.06340        2.18390        5.13700
C         -0.67110        0.24110        2.14070
C          0.08610        1.44750        1.58530
C         -0.28430       -3.78640       -2.27940
C         -0.12430       -5.17190       -2.51160
S          0.35850       -6.07610       -1.08590
C         -0.35570       -5.58710       -3.80620
C         -0.70800       -4.57120       -4.70460
Se        -0.76350       -2.87930       -3.83550
C         -0.97850       -4.86120       -6.04390
C         -1.31320       -4.03100       -7.09210
C         -1.42030       -2.58630       -7.01550
O         -1.31930       -1.88680       -6.01570
C         -1.63880       -2.10870       -8.39390
C         -1.71400       -0.80810       -8.85950
Cl        -1.72100        0.52080       -7.79050
C         -1.77560       -0.60450      -10.24550
Cl        -1.90670        0.98180      -10.86910
C         -1.68290       -1.68980      -11.11490
Cl        -1.65380       -1.40880      -12.80150
C         -1.59700       -3.00820      -10.63430
Cl        -1.29980       -4.26370      -11.76350
C         -1.65460       -3.22050       -9.26320
C         -1.63160       -4.43640       -8.44910
C         -2.04760       -5.68290       -8.83860
C         -2.00390       -6.83550       -8.02300
N         -1.98390       -7.82300       -7.43680
C         -2.73750       -5.98890      -10.03240
N         -3.40000       -6.32440      -10.90730
H          0.92330        2.91350        8.84260
H         -1.81720        6.44530        5.02100
H         -2.52560        7.61770        6.15980
H         -2.10950        9.64010        4.93660
H         -0.51270       11.32470        4.13190
H          1.90760       10.83320        4.12200
H          2.71300        8.63150        4.89420
H          1.12110        6.93930        5.67030
H          1.57030        0.69920        8.19520
H         -0.63790       -1.13700       -1.68940
H         -0.23970       -0.27330       -0.19990
H          1.76230       -1.59150       -2.09040
H          2.19380       -0.81230       -0.56370
H          1.50100        0.14080       -1.88560
H         -1.33460        0.59360        2.94250
H         -1.29820       -0.24390        1.39090
H          0.89860        1.14480        0.92920
H          0.51280        2.02420        2.40590
H         -0.59470        2.09240        1.03690
H         -0.27790       -6.61450       -4.11960
H         -0.88240       -5.91530       -6.27860
