
  xtb     02012222433D
 energy: -232.007954214707 gnorm: 0.000273117636 xtb: 6.4.1 (unknown)
136152  0     0  0            999 V2000
    4.4124   -5.9303    3.0449 C   0  0  0  0  0  0  0  0  0  0  0  0
    5.1619   -6.9280    2.5048 C   0  0  0  0  0  0  0  0  0  0  0  0
    6.6209   -7.5160    3.2881 S   0  0  0  0  0  0  0  0  0  0  0  0
    6.8270   -8.7481    2.0640 C   0  0  0  0  0  0  0  0  0  0  0  0
    7.8105   -9.6966    2.1848 C   0  0  0  0  0  0  0  0  0  0  0  0
    8.7075   -9.6338    3.2707 C   0  0  0  0  0  0  0  0  0  0  0  0
    9.4439   -9.5858    4.1489 N   0  0  0  0  0  0  0  0  0  0  0  0
    7.9906  -10.8081    1.3462 C   0  0  0  0  0  0  0  0  0  0  0  0
    8.1608  -11.7617    0.7289 N   0  0  0  0  0  0  0  0  0  0  0  0
    5.9090   -8.6178    1.0727 N   0  0  0  0  0  0  0  0  0  0  0  0
    5.9744   -9.3249   -0.1899 C   0  0  0  0  0  0  0  0  0  0  0  0
    7.2103   -8.9686   -0.9802 C   0  0  0  0  0  0  0  0  0  0  0  0
    7.8245   -9.9248   -1.7772 C   0  0  0  0  0  0  0  0  0  0  0  0
    8.9541   -9.6033   -2.5076 C   0  0  0  0  0  0  0  0  0  0  0  0
    9.4834   -8.3255   -2.4453 C   0  0  0  0  0  0  0  0  0  0  0  0
    8.8702   -7.3655   -1.6597 C   0  0  0  0  0  0  0  0  0  0  0  0
    7.7359   -7.6839   -0.9344 C   0  0  0  0  0  0  0  0  0  0  0  0
    4.9672   -7.6062    1.2315 C   0  0  0  0  0  0  0  0  0  0  0  0
    4.1635   -7.3276    0.3687 O   0  0  0  0  0  0  0  0  0  0  0  0
    3.1146   -5.5314    2.6413 C   0  0  0  0  0  0  0  0  0  0  0  0
    2.0687   -6.2709    2.0997 C   0  0  0  0  0  0  0  0  0  0  0  0
    2.0722   -7.7219    1.9457 C   0  0  0  0  0  0  0  0  0  0  0  0
    2.5763   -8.5441    2.9516 C   0  0  0  0  0  0  0  0  0  0  0  0
    2.6204   -9.9120    2.7784 C   0  0  0  0  0  0  0  0  0  0  0  0
    2.1597  -10.4987    1.6039 C   0  0  0  0  0  0  0  0  0  0  0  0
    2.2694  -11.9809    1.3949 C   0  0  0  0  0  0  0  0  0  0  0  0
    3.6108  -12.3336    0.7476 C   0  0  0  0  0  0  0  0  0  0  0  0
    1.6325   -9.6769    0.6163 C   0  0  0  0  0  0  0  0  0  0  0  0
    1.5805   -8.3065    0.7818 C   0  0  0  0  0  0  0  0  0  0  0  0
    0.9655   -5.4521    1.8074 C   0  0  0  0  0  0  0  0  0  0  0  0
   -0.6080   -5.7849    1.1229 S   0  0  0  0  0  0  0  0  0  0  0  0
   -1.0034   -4.1070    1.2702 C   0  0  0  0  0  0  0  0  0  0  0  0
   -2.0692   -3.2342    0.9920 C   0  0  0  0  0  0  0  0  0  0  0  0
   -3.3880   -3.4600    0.5384 C   0  0  0  0  0  0  0  0  0  0  0  0
   -4.2870   -2.3439    0.4334 C   0  0  0  0  0  0  0  0  0  0  0  0
   -5.5017   -2.7096    0.0566 N   0  0  0  0  0  0  0  0  0  0  0  0
   -5.5150   -4.3143   -0.1539 S   0  0  0  0  0  0  0  0  0  0  0  0
   -3.9693   -4.6076    0.2277 N   0  0  0  0  0  0  0  0  0  0  0  0
   -3.7889   -1.0378    0.6444 C   0  0  0  0  0  0  0  0  0  0  0  0
   -4.3562    0.2236    0.4133 C   0  0  0  0  0  0  0  0  0  0  0  0
   -5.8666    0.9139   -0.0734 S   0  0  0  0  0  0  0  0  0  0  0  0
   -5.1127    2.4972   -0.0571 C   0  0  0  0  0  0  0  0  0  0  0  0
   -5.5950    3.7771   -0.3229 C   0  0  0  0  0  0  0  0  0  0  0  0
   -6.9794    4.0657   -0.6839 C   0  0  0  0  0  0  0  0  0  0  0  0
   -7.6954    5.0790   -0.0480 C   0  0  0  0  0  0  0  0  0  0  0  0
   -8.9992    5.3457   -0.4115 C   0  0  0  0  0  0  0  0  0  0  0  0
   -9.6231    4.6168   -1.4167 C   0  0  0  0  0  0  0  0  0  0  0  0
  -11.0462    4.9017   -1.7948 C   0  0  0  0  0  0  0  0  0  0  0  0
  -12.0054    4.0950   -0.9167 C   0  0  0  0  0  0  0  0  0  0  0  0
   -8.9163    3.5879   -2.0279 C   0  0  0  0  0  0  0  0  0  0  0  0
   -7.6145    3.3081   -1.6661 C   0  0  0  0  0  0  0  0  0  0  0  0
   -4.5819    4.7483   -0.1951 C   0  0  0  0  0  0  0  0  0  0  0  0
   -3.0539    4.0457    0.3325 S   0  0  0  0  0  0  0  0  0  0  0  0
   -3.7605    2.4716    0.3182 C   0  0  0  0  0  0  0  0  0  0  0  0
   -3.3382    1.1680    0.5951 C   0  0  0  0  0  0  0  0  0  0  0  0
   -2.1757    0.5451    0.9683 N   0  0  0  0  0  0  0  0  0  0  0  0
   -2.4342   -0.8127    1.0234 C   0  0  0  0  0  0  0  0  0  0  0  0
   -1.6270   -1.9306    1.3468 C   0  0  0  0  0  0  0  0  0  0  0  0
   -0.3574   -2.0193    1.8921 N   0  0  0  0  0  0  0  0  0  0  0  0
    0.0221   -3.3364    1.8294 C   0  0  0  0  0  0  0  0  0  0  0  0
    1.1439   -4.1060    2.1482 C   0  0  0  0  0  0  0  0  0  0  0  0
    2.6921   -3.8335    2.8562 S   0  0  0  0  0  0  0  0  0  0  0  0
    0.2323   -1.1530    2.8892 C   0  0  0  0  0  0  0  0  0  0  0  0
   -0.0016   -1.6932    4.2996 C   0  0  0  0  0  0  0  0  0  0  0  0
   -0.9143    1.2450    0.8219 C   0  0  0  0  0  0  0  0  0  0  0  0
   -0.0152    0.6003   -0.2267 C   0  0  0  0  0  0  0  0  0  0  0  0
   -4.7675    6.0830   -0.5720 C   0  0  0  0  0  0  0  0  0  0  0  0
   -3.8976    7.1460   -0.5492 C   0  0  0  0  0  0  0  0  0  0  0  0
   -2.5161    7.1212   -0.0655 C   0  0  0  0  0  0  0  0  0  0  0  0
   -1.9098    6.1743    0.4112 O   0  0  0  0  0  0  0  0  0  0  0  0
   -1.9773    8.4753   -0.2697 C   0  0  0  0  0  0  0  0  0  0  0  0
   -0.6889    8.9174    0.0227 C   0  0  0  0  0  0  0  0  0  0  0  0
   -0.4654   10.2353   -0.2953 C   0  0  0  0  0  0  0  0  0  0  0  0
   -1.4511   11.0518   -0.8647 C   0  0  0  0  0  0  0  0  0  0  0  0
   -2.7252   10.6269   -1.1593 C   0  0  0  0  0  0  0  0  0  0  0  0
   -2.9761    9.2889   -0.8406 C   0  0  0  0  0  0  0  0  0  0  0  0
   -4.1890    8.4878   -1.0117 C   0  0  0  0  0  0  0  0  0  0  0  0
   -5.3764    8.9554   -1.5157 C   0  0  0  0  0  0  0  0  0  0  0  0
   -5.5969   10.2842   -1.9349 C   0  0  0  0  0  0  0  0  0  0  0  0
   -5.8578   11.3449   -2.2900 N   0  0  0  0  0  0  0  0  0  0  0  0
   -6.5626    8.2127   -1.6910 C   0  0  0  0  0  0  0  0  0  0  0  0
   -7.5774    7.7041   -1.8718 N   0  0  0  0  0  0  0  0  0  0  0  0
   -0.5391   12.2521   -0.9194 C   0  0  0  0  0  0  0  0  0  0  0  0
   -0.7546   13.3320    0.1619 C   0  0  0  0  0  0  0  0  0  0  0  0
    0.5417   14.1095    0.1590 C   0  0  0  0  0  0  0  0  0  0  0  0
    1.4768   13.3370    0.6970 C   0  0  0  0  0  0  0  0  0  0  0  0
    0.8280   12.0243    1.0731 C   0  0  0  0  0  0  0  0  0  0  0  0
   -0.5730   12.5214    1.4518 C   0  0  0  0  0  0  0  0  0  0  0  0
    0.5606   11.3414   -0.2848 C   0  0  0  0  0  0  0  0  0  0  0  0
    4.8479   -5.3688    3.8639 H   0  0  0  0  0  0  0  0  0  0  0  0
    5.9263  -10.4026   -0.0176 H   0  0  0  0  0  0  0  0  0  0  0  0
    5.0757   -9.0127   -0.7368 H   0  0  0  0  0  0  0  0  0  0  0  0
    7.4242  -10.9265   -1.8141 H   0  0  0  0  0  0  0  0  0  0  0  0
    9.4266  -10.3563   -3.1197 H   0  0  0  0  0  0  0  0  0  0  0  0
   10.3709   -8.0776   -3.0079 H   0  0  0  0  0  0  0  0  0  0  0  0
    9.2735   -6.3649   -1.6100 H   0  0  0  0  0  0  0  0  0  0  0  0
    7.2570   -6.9218   -0.3346 H   0  0  0  0  0  0  0  0  0  0  0  0
    2.9229   -8.1061    3.8772 H   0  0  0  0  0  0  0  0  0  0  0  0
    3.0133  -10.5373    3.5681 H   0  0  0  0  0  0  0  0  0  0  0  0
    2.1860  -12.4981    2.3526 H   0  0  0  0  0  0  0  0  0  0  0  0
    1.4592  -12.3234    0.7485 H   0  0  0  0  0  0  0  0  0  0  0  0
    3.7106  -11.8297   -0.2115 H   0  0  0  0  0  0  0  0  0  0  0  0
    4.4354  -12.0280    1.3889 H   0  0  0  0  0  0  0  0  0  0  0  0
    3.6837  -13.4059    0.5845 H   0  0  0  0  0  0  0  0  0  0  0  0
    1.2592  -10.1160   -0.2976 H   0  0  0  0  0  0  0  0  0  0  0  0
    1.1928   -7.6799   -0.0058 H   0  0  0  0  0  0  0  0  0  0  0  0
   -7.2321    5.6417    0.7501 H   0  0  0  0  0  0  0  0  0  0  0  0
   -9.5375    6.1397    0.0839 H   0  0  0  0  0  0  0  0  0  0  0  0
  -11.2102    4.6397   -2.8416 H   0  0  0  0  0  0  0  0  0  0  0  0
  -11.2514    5.9664   -1.6717 H   0  0  0  0  0  0  0  0  0  0  0  0
  -11.8246    3.0292   -1.0379 H   0  0  0  0  0  0  0  0  0  0  0  0
  -11.8636    4.3482    0.1315 H   0  0  0  0  0  0  0  0  0  0  0  0
  -13.0371    4.3057   -1.1884 H   0  0  0  0  0  0  0  0  0  0  0  0
   -9.3892    3.0044   -2.8048 H   0  0  0  0  0  0  0  0  0  0  0  0
   -7.0711    2.5185   -2.1637 H   0  0  0  0  0  0  0  0  0  0  0  0
   -0.2240   -0.1710    2.8175 H   0  0  0  0  0  0  0  0  0  0  0  0
    1.3059   -1.0746    2.6918 H   0  0  0  0  0  0  0  0  0  0  0  0
    0.4811   -2.6571    4.4336 H   0  0  0  0  0  0  0  0  0  0  0  0
    0.4081   -0.9988    5.0278 H   0  0  0  0  0  0  0  0  0  0  0  0
   -1.0674   -1.8076    4.4860 H   0  0  0  0  0  0  0  0  0  0  0  0
   -1.1643    2.2613    0.5083 H   0  0  0  0  0  0  0  0  0  0  0  0
   -0.3916    1.3310    1.7782 H   0  0  0  0  0  0  0  0  0  0  0  0
   -0.5379    0.5378   -1.1784 H   0  0  0  0  0  0  0  0  0  0  0  0
    0.8761    1.2067   -0.3600 H   0  0  0  0  0  0  0  0  0  0  0  0
    0.2864   -0.4009    0.0676 H   0  0  0  0  0  0  0  0  0  0  0  0
   -5.7574    6.2781   -0.9661 H   0  0  0  0  0  0  0  0  0  0  0  0
    0.0407    8.2506    0.4552 H   0  0  0  0  0  0  0  0  0  0  0  0
   -3.4665   11.2687   -1.6042 H   0  0  0  0  0  0  0  0  0  0  0  0
   -0.3630   12.6698   -1.9088 H   0  0  0  0  0  0  0  0  0  0  0  0
   -1.6708   13.9061    0.0550 H   0  0  0  0  0  0  0  0  0  0  0  0
    0.6536   15.0875   -0.2711 H   0  0  0  0  0  0  0  0  0  0  0  0
    2.5259   13.5408    0.8061 H   0  0  0  0  0  0  0  0  0  0  0  0
    1.3545   11.4085    1.7974 H   0  0  0  0  0  0  0  0  0  0  0  0
   -1.3053   11.7269    1.5834 H   0  0  0  0  0  0  0  0  0  0  0  0
   -0.5597   13.1548    2.3373 H   0  0  0  0  0  0  0  0  0  0  0  0
    1.4698   11.1509   -0.8523 H   0  0  0  0  0  0  0  0  0  0  0  0
  1  2  2  0  0  0  0
  2  3  1  0  0  0  0
  3  4  1  0  0  0  0
  4  5  2  0  0  0  0
  5  6  1  0  0  0  0
  6  7  3  0  0  0  0
  5  8  1  0  0  0  0
  8  9  3  0  0  0  0
  4 10  1  0  0  0  0
 10 11  1  0  0  0  0
 11 12  1  0  0  0  0
 12 13  2  0  0  0  0
 13 14  1  0  0  0  0
 14 15  2  0  0  0  0
 15 16  1  0  0  0  0
 16 17  2  0  0  0  0
 10 18  1  0  0  0  0
 18 19  2  0  0  0  0
  1 20  1  0  0  0  0
 20 21  2  0  0  0  0
 21 22  1  0  0  0  0
 22 23  2  0  0  0  0
 23 24  1  0  0  0  0
 24 25  2  0  0  0  0
 25 26  1  0  0  0  0
 26 27  1  0  0  0  0
 25 28  1  0  0  0  0
 28 29  2  0  0  0  0
 21 30  1  0  0  0  0
 30 31  1  0  0  0  0
 31 32  1  0  0  0  0
 32 33  1  0  0  0  0
 33 34  1  0  0  0  0
 34 35  1  0  0  0  0
 35 36  2  0  0  0  0
 36 37  1  0  0  0  0
 37 38  1  0  0  0  0
 35 39  1  0  0  0  0
 39 40  1  0  0  0  0
 40 41  1  0  0  0  0
 41 42  1  0  0  0  0
 42 43  1  0  0  0  0
 43 44  1  0  0  0  0
 44 45  2  0  0  0  0
 45 46  1  0  0  0  0
 46 47  2  0  0  0  0
 47 48  1  0  0  0  0
 48 49  1  0  0  0  0
 47 50  1  0  0  0  0
 50 51  2  0  0  0  0
 43 52  2  0  0  0  0
 52 53  1  0  0  0  0
 53 54  1  0  0  0  0
 54 55  1  0  0  0  0
 55 56  1  0  0  0  0
 56 57  1  0  0  0  0
 57 58  1  0  0  0  0
 58 59  1  0  0  0  0
 59 60  1  0  0  0  0
 60 61  1  0  0  0  0
 61 62  1  0  0  0  0
 59 63  1  0  0  0  0
 63 64  1  0  0  0  0
 56 65  1  0  0  0  0
 65 66  1  0  0  0  0
 52 67  1  0  0  0  0
 67 68  2  0  0  0  0
 68 69  1  0  0  0  0
 69 70  2  0  0  0  0
 69 71  1  0  0  0  0
 71 72  2  0  0  0  0
 72 73  1  0  0  0  0
 73 74  2  0  0  0  0
 74 75  1  0  0  0  0
 75 76  2  0  0  0  0
 76 77  1  0  0  0  0
 77 78  2  0  0  0  0
 78 79  1  0  0  0  0
 79 80  3  0  0  0  0
 78 81  1  0  0  0  0
 81 82  3  0  0  0  0
 74 83  1  0  0  0  0
 83 84  1  0  0  0  0
 84 85  1  0  0  0  0
 85 86  2  0  0  0  0
 86 87  1  0  0  0  0
 87 88  1  0  0  0  0
 87 89  1  0  0  0  0
 18  2  1  0  0  0  0
 62 20  1  0  0  0  0
 77 68  1  0  0  0  0
 89 83  1  0  0  0  0
 17 12  1  0  0  0  0
 29 22  1  0  0  0  0
 61 30  2  0  0  0  0
 76 71  1  0  0  0  0
 88 84  1  0  0  0  0
 60 32  2  0  0  0  0
 89 73  1  0  0  0  0
 58 33  2  0  0  0  0
 38 34  2  0  0  0  0
 57 39  2  0  0  0  0
 55 40  2  0  0  0  0
 54 42  2  0  0  0  0
 51 44  1  0  0  0  0
  1 90  1  0  0  0  0
 11 91  1  0  0  0  0
 11 92  1  0  0  0  0
 13 93  1  0  0  0  0
 14 94  1  0  0  0  0
 15 95  1  0  0  0  0
 16 96  1  0  0  0  0
 17 97  1  0  0  0  0
 23 98  1  0  0  0  0
 24 99  1  0  0  0  0
 26100  1  0  0  0  0
 26101  1  0  0  0  0
 27102  1  0  0  0  0
 27103  1  0  0  0  0
 27104  1  0  0  0  0
 28105  1  0  0  0  0
 29106  1  0  0  0  0
 45107  1  0  0  0  0
 46108  1  0  0  0  0
 48109  1  0  0  0  0
 48110  1  0  0  0  0
 49111  1  0  0  0  0
 49112  1  0  0  0  0
 49113  1  0  0  0  0
 50114  1  0  0  0  0
 51115  1  0  0  0  0
 63116  1  0  0  0  0
 63117  1  0  0  0  0
 64118  1  0  0  0  0
 64119  1  0  0  0  0
 64120  1  0  0  0  0
 65121  1  0  0  0  0
 65122  1  0  0  0  0
 66123  1  0  0  0  0
 66124  1  0  0  0  0
 66125  1  0  0  0  0
 67126  1  0  0  0  0
 72127  1  0  0  0  0
 75128  1  0  0  0  0
 83129  1  0  0  0  0
 84130  1  0  0  0  0
 85131  1  0  0  0  0
 86132  1  0  0  0  0
 87133  1  0  0  0  0
 88134  1  0  0  0  0
 88135  1  0  0  0  0
 89136  1  0  0  0  0
M  END
