107

C          6.38920        1.73750       -5.09200
C          7.34010        2.47190       -4.45590
S          7.27170        3.12940       -2.83390
C          8.82930        3.90410       -3.03530
C          9.33870        4.68770       -2.03160
C          8.60920        4.81410       -0.83220
N          8.00500        4.90910        0.13880
C         10.52140        5.44300       -2.08240
N         11.45420        6.11270       -2.06830
N          9.36700        3.62820       -4.24890
C         10.71570        3.98350       -4.63830
C         11.76030        3.28240       -3.80350
C         11.52200        2.02510       -3.26540
C         12.48910        1.39640       -2.50080
C         13.70630        2.01430       -2.27620
C         13.95560        3.26110       -2.82480
C         12.98750        3.89310       -3.58280
C          8.59560        2.83680       -5.09740
O          8.95300        2.52040       -6.20970
C          5.14470        1.30940       -4.59320
S          4.04980        0.47270       -5.69880
C          2.88290        0.31980       -4.44830
C          1.60290       -0.17110       -4.20240
S          0.30390       -0.92640       -5.07880
C         -0.62300       -0.91240       -3.61940
C         -1.90430       -1.32090       -3.20920
C         -2.95110       -2.02100       -3.85240
C         -4.10730       -2.41270       -3.08860
N         -4.96620       -3.11980       -3.80550
S         -4.38310       -3.27410       -5.30700
N         -3.00830       -2.44740       -5.10380
C         -4.23210       -1.97540       -1.74950
C         -5.25520       -2.07890       -0.79390
S         -6.79770       -2.83800       -0.60620
C         -6.92070       -2.12730        0.99330
C         -7.89020       -2.20960        1.98140
C         -9.17120       -2.95510        1.79810
C        -10.28890       -2.01110        1.34570
C         -7.52570       -1.46550        3.12020
S         -5.96030       -0.66980        2.92360
C         -5.81160       -1.33520        1.34210
C         -4.86600       -1.31430        0.31650
N         -3.63120       -0.75540        0.09240
C         -3.21730       -1.17610       -1.15510
C         -2.00150       -0.98180       -1.84030
N         -0.80120       -0.43970       -1.40010
C          0.03490       -0.37470       -2.50260
C          1.32040        0.08230       -2.83700
N          2.39560        0.71350       -2.25410
C          3.34230        0.88100       -3.23270
C          4.61080        1.44260       -3.31950
C          2.44820        1.35110       -0.96130
C          1.51450        2.55760       -0.89490
C         -0.28640       -0.70260       -0.06680
C          0.72970       -1.84450       -0.07180
C         -3.24260        0.46320        0.77410
C         -4.24060        1.58830        0.50380
C         -8.32100       -1.39710        4.26550
C         -8.12980       -0.74730        5.46330
C         -6.97610        0.07460        5.82670
O         -6.00330        0.34570        5.14370
C         -7.21570        0.52350        7.21410
C         -6.41520        1.31600        8.00910
C         -6.86520        1.59650        9.29440
Cl        -5.90530        2.58150       10.33260
C         -8.07620        1.09590        9.75730
C         -8.87400        0.29990        8.94850
C         -8.44390        0.00770        7.66270
C         -9.04170       -0.78470        6.58880
C        -10.24970       -1.43150        6.66730
C        -10.85180       -2.18800        5.64120
N        -11.41170       -2.81730        4.85910
C        -11.07590       -1.42670        7.81060
N        -11.79610       -1.46850        8.70380
H          6.63080        1.46310       -6.11210
H         10.80350        3.67130       -5.68680
H         10.84690        5.06770       -4.58240
H         10.57970        1.52440       -3.44360
H         12.28820        0.42180       -2.08110
H         14.45840        1.52530       -1.67560
H         14.90370        3.74800       -2.65510
H         13.17820        4.87190       -3.99580
H         -9.47180       -3.45510        2.71990
H         -9.01560       -3.71630        1.03100
H        -10.02320       -1.53320        0.40560
H        -10.46680       -1.23950        2.09090
H        -11.20860       -2.57160        1.20590
H          5.13320        1.91520       -2.50900
H          2.19390        0.62490       -0.18510
H          3.47910        1.66990       -0.79740
H          0.48890        2.26100       -1.10360
H          1.55840        3.00870        0.09250
H          1.81150        3.30150       -1.63010
H         -1.12150       -0.99850        0.56720
H          0.16030        0.20810        0.34270
H          0.26450       -2.75350       -0.44680
H          1.07900       -2.02580        0.94120
H          1.58540       -1.61570       -0.70160
H         -3.19670        0.26160        1.84870
H         -2.26330        0.77490        0.41670
H         -5.22030        1.34180        0.90230
H         -4.32970        1.76440       -0.56620
H         -3.89580        2.50070        0.98190
H         -9.23720       -1.96510        4.18180
H         -5.47700        1.69900        7.64020
H         -8.39780        1.33090       10.75970
H         -9.80800       -0.07530        9.33280
