103

C          5.78220       -2.26380       -4.40180
C          6.65650       -1.29420       -4.02490
S          6.33430        0.06320       -2.96890
C          8.00240        0.59060       -3.08200
C          8.42130        1.68470       -2.36980
C          9.73560        2.17170       -2.28200
N         10.79020        2.60170       -2.13510
C          7.47930        2.39500       -1.59730
N          6.70710        2.97000       -0.97340
N          8.72750       -0.21330       -3.90030
C         10.09350        0.05270       -4.30040
C         10.22200        1.30710       -5.13050
C          9.18170        1.74220       -5.93970
C          9.31770        2.89400       -6.69490
C         10.49790        3.61470       -6.65520
C         11.54460        3.17620       -5.86160
C         11.40740        2.02960       -5.10180
C          8.04400       -1.28330       -4.46850
O          8.56370       -2.08050       -5.21740
C          4.43490       -2.40020       -4.02430
C          3.56560       -3.42790       -4.38250
C          3.89430       -4.55330       -5.30730
C          3.70680       -4.12560       -6.76520
C          2.30860       -3.25540       -3.79800
S          0.84580       -4.21670       -3.83690
C          0.10050       -3.07970       -2.76700
C         -1.10330       -2.90800       -2.07050
C         -2.22450       -3.75770       -1.94310
C         -3.25280       -3.40900       -1.00790
N         -4.20790       -4.32320       -0.94200
S         -3.84660       -5.51770       -1.97260
N         -2.45570       -4.91570       -2.54130
C         -3.16780       -2.17230       -0.33090
C         -4.05270       -1.55000        0.55960
S         -5.52900       -1.88740        1.39110
C         -5.45750       -0.29930        2.12290
C         -6.27340        0.35330        3.05590
C         -7.56730       -0.21670        3.54730
C         -7.40100       -1.58090        4.21820
C         -5.79790        1.63240        3.32670
S         -4.36000        2.02420        2.38570
C         -4.35050        0.44930        1.69680
C         -3.53680       -0.27650        0.82320
N         -2.35510       -0.10060        0.15630
C         -2.08980       -1.26400       -0.54630
C         -0.98950       -1.69050       -1.33670
N          0.26890       -1.16170       -1.56770
C          0.92790       -2.00680       -2.41690
C          2.19540       -2.10990       -2.99690
S          3.67020       -1.22000       -2.96080
C          1.01430       -0.16020       -0.83720
C          1.17250       -0.53770        0.63300
C         -1.82540        1.23480       -0.01490
C         -1.95820        1.70740       -1.46010
C         -6.30660        2.67010        4.14020
C         -6.97140        2.61000        5.33030
C         -7.76820        3.77670        5.78490
O         -7.79360        4.87990        5.29130
C         -8.55740        3.27950        6.93660
C         -9.53490        3.93390        7.65960
C        -10.14970        3.23710        8.68790
F        -11.10440        3.83190        9.41280
C         -9.78700        1.92040        8.97430
F        -10.40820        1.26900        9.96330
C         -8.79810        1.26530        8.25540
C         -8.17870        1.95710        7.22770
C         -7.09730        1.56740        6.32230
C         -6.20790        0.55000        6.54870
C         -6.32900       -0.38030        7.60150
N         -6.39070       -1.17460        8.42740
C         -5.02440        0.36180        5.80630
N         -4.02890        0.18160        5.26420
H          6.19120       -3.01990       -5.06060
H         10.39360       -0.81970       -4.89490
H         10.73500        0.11280       -3.41670
H          8.25760        1.18210       -5.98950
H          8.49810        3.22640       -7.31460
H         10.60130        4.51560       -7.24100
H         12.46830        3.73320       -5.82660
H         12.21870        1.69850       -4.47160
H          4.92160       -4.88540       -5.15120
H          3.22430       -5.38680       -5.08820
H          2.68070       -3.80890       -6.93590
H          3.92750       -4.95770       -7.42820
H          4.37000       -3.29940       -7.01070
H         -8.04600        0.48530        4.23090
H         -8.22640       -0.33820        2.68180
H         -8.34920       -1.89910        4.64420
H         -6.65980       -1.54640        5.01220
H         -7.08170       -2.32550        3.49440
H          2.00200       -0.10740       -1.30150
H          0.55500        0.82110       -0.95600
H          1.72110       -1.47280        0.71860
H          1.72880        0.23670        1.15380
H          0.20730       -0.66570        1.11690
H         -0.79440        1.29010        0.33450
H         -2.41660        1.88720        0.63240
H         -1.43520        1.04290       -2.14390
H         -1.54830        2.70860       -1.56040
H         -3.00670        1.73250       -1.74830
H         -6.17770        3.67580        3.74790
H         -9.81420        4.95140        7.43770
H         -8.55210        0.24730        8.51040
