
  xtb     02012217253D
 energy: -223.991292158931 gnorm: 0.000766166041 xtb: 6.4.1 (unknown)
119134  0     0  0            999 V2000
   -1.5448    8.9130    1.2991 C   0  0  0  0  0  0  0  0  0  0  0  0
   -2.6010    9.7542    1.1659 C   0  0  0  0  0  0  0  0  0  0  0  0
   -4.1947    9.3884    0.5442 S   0  0  0  0  0  0  0  0  0  0  0  0
   -4.7228   11.0385    0.8134 C   0  0  0  0  0  0  0  0  0  0  0  0
   -6.0104   11.4051    0.5197 C   0  0  0  0  0  0  0  0  0  0  0  0
   -6.5923   12.6637    0.7463 C   0  0  0  0  0  0  0  0  0  0  0  0
   -7.1415   13.6555    0.9282 N   0  0  0  0  0  0  0  0  0  0  0  0
   -6.8891   10.4496   -0.0320 C   0  0  0  0  0  0  0  0  0  0  0  0
   -7.6053    9.6745   -0.4816 N   0  0  0  0  0  0  0  0  0  0  0  0
   -3.7272   11.8022    1.3312 N   0  0  0  0  0  0  0  0  0  0  0  0
   -3.8221   13.2310    1.5450 C   0  0  0  0  0  0  0  0  0  0  0  0
   -3.9317   14.0103    0.2565 C   0  0  0  0  0  0  0  0  0  0  0  0
   -4.5643   15.2467    0.2590 C   0  0  0  0  0  0  0  0  0  0  0  0
   -4.6608   15.9837   -0.9063 C   0  0  0  0  0  0  0  0  0  0  0  0
   -4.1303   15.4916   -2.0872 C   0  0  0  0  0  0  0  0  0  0  0  0
   -3.4937   14.2635   -2.0946 C   0  0  0  0  0  0  0  0  0  0  0  0
   -3.3900   13.5277   -0.9266 C   0  0  0  0  0  0  0  0  0  0  0  0
   -2.5150   11.1594    1.5546 C   0  0  0  0  0  0  0  0  0  0  0  0
   -1.5448   11.7165    2.0149 O   0  0  0  0  0  0  0  0  0  0  0  0
   -1.4802    7.5403    0.9730 C   0  0  0  0  0  0  0  0  0  0  0  0
    0.0217    6.6796    1.2758 S   0  0  0  0  0  0  0  0  0  0  0  0
   -0.6581    5.2052    0.6849 C   0  0  0  0  0  0  0  0  0  0  0  0
   -0.0220    3.9608    0.6130 C   0  0  0  0  0  0  0  0  0  0  0  0
    1.6388    3.6822    1.0897 S   0  0  0  0  0  0  0  0  0  0  0  0
    1.4576    2.0221    0.6780 C   0  0  0  0  0  0  0  0  0  0  0  0
    2.2431    0.8642    0.6296 C   0  0  0  0  0  0  0  0  0  0  0  0
    3.6317    0.6909    0.8143 C   0  0  0  0  0  0  0  0  0  0  0  0
    4.2112   -0.5788    0.4925 C   0  0  0  0  0  0  0  0  0  0  0  0
    5.5271   -0.5865    0.6349 N   0  0  0  0  0  0  0  0  0  0  0  0
    5.9956    0.8792    1.1382 S   0  0  0  0  0  0  0  0  0  0  0  0
    4.5371    1.5807    1.1899 N   0  0  0  0  0  0  0  0  0  0  0  0
    3.3543   -1.6430    0.1379 C   0  0  0  0  0  0  0  0  0  0  0  0
    3.6341   -2.9956   -0.0993 C   0  0  0  0  0  0  0  0  0  0  0  0
    5.0053   -4.0268   -0.1993 S   0  0  0  0  0  0  0  0  0  0  0  0
    3.9361   -5.3900   -0.4516 C   0  0  0  0  0  0  0  0  0  0  0  0
    4.3739   -6.7080   -0.6177 C   0  0  0  0  0  0  0  0  0  0  0  0
    3.4777   -7.7817   -0.8063 C   0  0  0  0  0  0  0  0  0  0  0  0
    2.0999   -7.4530   -0.8448 C   0  0  0  0  0  0  0  0  0  0  0  0
    1.0229   -8.2183   -1.0201 N   0  0  0  0  0  0  0  0  0  0  0  0
    0.0176   -7.3888   -0.9621 N   0  0  0  0  0  0  0  0  0  0  0  0
   -1.3356   -7.8244   -1.1523 C   0  0  0  0  0  0  0  0  0  0  0  0
   -1.6999   -7.8128   -2.6340 C   0  0  0  0  0  0  0  0  0  0  0  0
    0.3168   -6.1275   -0.7657 N   0  0  0  0  0  0  0  0  0  0  0  0
    1.6519   -6.1089   -0.6784 C   0  0  0  0  0  0  0  0  0  0  0  0
    2.5670   -5.0458   -0.4634 C   0  0  0  0  0  0  0  0  0  0  0  0
    2.4143   -3.6568   -0.2578 C   0  0  0  0  0  0  0  0  0  0  0  0
    1.3839   -2.7518   -0.1554 N   0  0  0  0  0  0  0  0  0  0  0  0
    1.9408   -1.4989    0.0702 C   0  0  0  0  0  0  0  0  0  0  0  0
    1.3925   -0.1893    0.1878 C   0  0  0  0  0  0  0  0  0  0  0  0
    0.1493    0.3506   -0.0792 N   0  0  0  0  0  0  0  0  0  0  0  0
    0.1830    1.6895    0.2125 C   0  0  0  0  0  0  0  0  0  0  0  0
   -0.6820    2.8063    0.1399 C   0  0  0  0  0  0  0  0  0  0  0  0
   -2.0146    2.9848   -0.3135 C   0  0  0  0  0  0  0  0  0  0  0  0
   -2.6568    4.2571   -0.2474 C   0  0  0  0  0  0  0  0  0  0  0  0
   -1.9896    5.3929    0.2692 C   0  0  0  0  0  0  0  0  0  0  0  0
   -2.4393    6.7077    0.4359 C   0  0  0  0  0  0  0  0  0  0  0  0
   -3.8834    4.1187   -0.7522 N   0  0  0  0  0  0  0  0  0  0  0  0
   -3.9540    2.8613   -1.0951 N   0  0  0  0  0  0  0  0  0  0  0  0
   -5.1485    2.2925   -1.6493 C   0  0  0  0  0  0  0  0  0  0  0  0
   -5.9724    1.6118   -0.5604 C   0  0  0  0  0  0  0  0  0  0  0  0
   -2.8887    2.1355   -0.8654 N   0  0  0  0  0  0  0  0  0  0  0  0
   -0.9946   -0.2465   -0.7242 C   0  0  0  0  0  0  0  0  0  0  0  0
   -2.0921   -0.5992    0.2811 C   0  0  0  0  0  0  0  0  0  0  0  0
    0.0867   -3.2339    0.2708 C   0  0  0  0  0  0  0  0  0  0  0  0
    0.0173   -3.3110    1.7957 C   0  0  0  0  0  0  0  0  0  0  0  0
    4.1139   -9.0192   -0.9255 C   0  0  0  0  0  0  0  0  0  0  0  0
    5.4897   -8.9309   -0.8355 C   0  0  0  0  0  0  0  0  0  0  0  0
    6.0070   -7.2567   -0.6106 S   0  0  0  0  0  0  0  0  0  0  0  0
    6.5223   -9.8868   -0.9082 C   0  0  0  0  0  0  0  0  0  0  0  0
    6.4932  -11.2553   -0.9397 C   0  0  0  0  0  0  0  0  0  0  0  0
    5.3331  -12.1576   -0.7660 C   0  0  0  0  0  0  0  0  0  0  0  0
    4.1506  -11.8913   -0.7444 O   0  0  0  0  0  0  0  0  0  0  0  0
    5.9077  -13.5124   -0.6044 C   0  0  0  0  0  0  0  0  0  0  0  0
    5.2390  -14.6915   -0.3484 C   0  0  0  0  0  0  0  0  0  0  0  0
    6.0014  -15.8464   -0.2210 C   0  0  0  0  0  0  0  0  0  0  0  0
    5.2205  -17.3480    0.1019 Cl  0  0  0  0  0  0  0  0  0  0  0  0
    7.3859  -15.8118   -0.3469 C   0  0  0  0  0  0  0  0  0  0  0  0
    8.0474  -14.6223   -0.6097 C   0  0  0  0  0  0  0  0  0  0  0  0
    7.3039  -13.4579   -0.7425 C   0  0  0  0  0  0  0  0  0  0  0  0
    7.6915  -12.0780   -1.0188 C   0  0  0  0  0  0  0  0  0  0  0  0
    8.9545  -11.6714   -1.3608 C   0  0  0  0  0  0  0  0  0  0  0  0
    9.3352  -10.3655   -1.7389 C   0  0  0  0  0  0  0  0  0  0  0  0
    9.7344   -9.3440   -2.0802 N   0  0  0  0  0  0  0  0  0  0  0  0
   10.0683  -12.5355   -1.4299 C   0  0  0  0  0  0  0  0  0  0  0  0
   11.0176  -13.1777   -1.4964 N   0  0  0  0  0  0  0  0  0  0  0  0
   -0.6500    9.3631    1.7129 H   0  0  0  0  0  0  0  0  0  0  0  0
   -2.8952   13.5059    2.0646 H   0  0  0  0  0  0  0  0  0  0  0  0
   -4.6701   13.4534    2.1986 H   0  0  0  0  0  0  0  0  0  0  0  0
   -4.9909   15.6252    1.1753 H   0  0  0  0  0  0  0  0  0  0  0  0
   -5.1582   16.9415   -0.8934 H   0  0  0  0  0  0  0  0  0  0  0  0
   -4.2129   16.0636   -2.9991 H   0  0  0  0  0  0  0  0  0  0  0  0
   -3.0737   13.8737   -3.0101 H   0  0  0  0  0  0  0  0  0  0  0  0
   -2.8780   12.5751   -0.9454 H   0  0  0  0  0  0  0  0  0  0  0  0
   -1.4127   -8.8363   -0.7504 H   0  0  0  0  0  0  0  0  0  0  0  0
   -1.9819   -7.1463   -0.5916 H   0  0  0  0  0  0  0  0  0  0  0  0
   -2.7255   -8.1456   -2.7643 H   0  0  0  0  0  0  0  0  0  0  0  0
   -1.0419   -8.4801   -3.1847 H   0  0  0  0  0  0  0  0  0  0  0  0
   -1.6022   -6.8084   -3.0391 H   0  0  0  0  0  0  0  0  0  0  0  0
   -3.4328    7.0145    0.1665 H   0  0  0  0  0  0  0  0  0  0  0  0
   -4.8529    1.5684   -2.4117 H   0  0  0  0  0  0  0  0  0  0  0  0
   -5.7116    3.1088   -2.1040 H   0  0  0  0  0  0  0  0  0  0  0  0
   -6.8724    1.1844   -0.9925 H   0  0  0  0  0  0  0  0  0  0  0  0
   -5.3948    0.8177   -0.0933 H   0  0  0  0  0  0  0  0  0  0  0  0
   -6.2591    2.3341    0.1999 H   0  0  0  0  0  0  0  0  0  0  0  0
   -1.4029    0.4893   -1.4217 H   0  0  0  0  0  0  0  0  0  0  0  0
   -0.6589   -1.1086   -1.3023 H   0  0  0  0  0  0  0  0  0  0  0  0
   -2.8592   -1.1988   -0.2015 H   0  0  0  0  0  0  0  0  0  0  0  0
   -1.6980   -1.1419    1.1356 H   0  0  0  0  0  0  0  0  0  0  0  0
   -2.5507    0.3165    0.6416 H   0  0  0  0  0  0  0  0  0  0  0  0
   -0.0380   -4.2321   -0.1542 H   0  0  0  0  0  0  0  0  0  0  0  0
   -0.7084   -2.6027   -0.1067 H   0  0  0  0  0  0  0  0  0  0  0  0
   -0.9600   -3.6723    2.1045 H   0  0  0  0  0  0  0  0  0  0  0  0
    0.7739   -3.9949    2.1735 H   0  0  0  0  0  0  0  0  0  0  0  0
    0.1895   -2.3324    2.2411 H   0  0  0  0  0  0  0  0  0  0  0  0
    3.5866   -9.9441   -1.0670 H   0  0  0  0  0  0  0  0  0  0  0  0
    7.5087   -9.4368   -0.9071 H   0  0  0  0  0  0  0  0  0  0  0  0
    4.1651  -14.7053   -0.2506 H   0  0  0  0  0  0  0  0  0  0  0  0
    7.9500  -16.7247   -0.2375 H   0  0  0  0  0  0  0  0  0  0  0  0
    9.1212  -14.6221   -0.6989 H   0  0  0  0  0  0  0  0  0  0  0  0
  1  2  2  0  0  0  0
  2  3  1  0  0  0  0
  3  4  1  0  0  0  0
  4  5  2  0  0  0  0
  5  6  1  0  0  0  0
  6  7  3  0  0  0  0
  5  8  1  0  0  0  0
  8  9  3  0  0  0  0
  4 10  1  0  0  0  0
 10 11  1  0  0  0  0
 11 12  1  0  0  0  0
 12 13  2  0  0  0  0
 13 14  1  0  0  0  0
 14 15  2  0  0  0  0
 15 16  1  0  0  0  0
 16 17  2  0  0  0  0
 10 18  1  0  0  0  0
 18 19  2  0  0  0  0
  1 20  1  0  0  0  0
 20 21  1  0  0  0  0
 21 22  1  0  0  0  0
 22 23  1  0  0  0  0
 23 24  1  0  0  0  0
 24 25  1  0  0  0  0
 25 26  1  0  0  0  0
 26 27  1  0  0  0  0
 27 28  1  0  0  0  0
 28 29  2  0  0  0  0
 29 30  1  0  0  0  0
 30 31  1  0  0  0  0
 28 32  1  0  0  0  0
 32 33  1  0  0  0  0
 33 34  1  0  0  0  0
 34 35  1  0  0  0  0
 35 36  1  0  0  0  0
 36 37  2  0  0  0  0
 37 38  1  0  0  0  0
 38 39  2  0  0  0  0
 39 40  1  0  0  0  0
 40 41  1  0  0  0  0
 41 42  1  0  0  0  0
 40 43  1  0  0  0  0
 43 44  2  0  0  0  0
 44 45  1  0  0  0  0
 45 46  1  0  0  0  0
 46 47  1  0  0  0  0
 47 48  1  0  0  0  0
 48 49  1  0  0  0  0
 49 50  1  0  0  0  0
 50 51  1  0  0  0  0
 51 52  1  0  0  0  0
 52 53  1  0  0  0  0
 53 54  1  0  0  0  0
 54 55  1  0  0  0  0
 55 56  1  0  0  0  0
 54 57  2  0  0  0  0
 57 58  1  0  0  0  0
 58 59  1  0  0  0  0
 59 60  1  0  0  0  0
 58 61  1  0  0  0  0
 50 62  1  0  0  0  0
 62 63  1  0  0  0  0
 47 64  1  0  0  0  0
 64 65  1  0  0  0  0
 37 66  1  0  0  0  0
 66 67  2  0  0  0  0
 67 68  1  0  0  0  0
 67 69  1  0  0  0  0
 69 70  2  0  0  0  0
 70 71  1  0  0  0  0
 71 72  2  0  0  0  0
 71 73  1  0  0  0  0
 73 74  2  0  0  0  0
 74 75  1  0  0  0  0
 75 76  1  0  0  0  0
 75 77  2  0  0  0  0
 77 78  1  0  0  0  0
 78 79  2  0  0  0  0
 79 80  1  0  0  0  0
 80 81  2  0  0  0  0
 81 82  1  0  0  0  0
 82 83  3  0  0  0  0
 81 84  1  0  0  0  0
 84 85  3  0  0  0  0
 18  2  1  0  0  0  0
 56 20  2  0  0  0  0
 80 70  1  0  0  0  0
 17 12  1  0  0  0  0
 55 22  2  0  0  0  0
 79 73  1  0  0  0  0
 52 23  2  0  0  0  0
 61 53  2  0  0  0  0
 51 25  2  0  0  0  0
 49 26  2  0  0  0  0
 31 27  2  0  0  0  0
 48 32  2  0  0  0  0
 46 33  2  0  0  0  0
 45 35  2  0  0  0  0
 68 36  1  0  0  0  0
 44 38  1  0  0  0  0
  1 86  1  0  0  0  0
 11 87  1  0  0  0  0
 11 88  1  0  0  0  0
 13 89  1  0  0  0  0
 14 90  1  0  0  0  0
 15 91  1  0  0  0  0
 16 92  1  0  0  0  0
 17 93  1  0  0  0  0
 41 94  1  0  0  0  0
 41 95  1  0  0  0  0
 42 96  1  0  0  0  0
 42 97  1  0  0  0  0
 42 98  1  0  0  0  0
 56 99  1  0  0  0  0
 59100  1  0  0  0  0
 59101  1  0  0  0  0
 60102  1  0  0  0  0
 60103  1  0  0  0  0
 60104  1  0  0  0  0
 62105  1  0  0  0  0
 62106  1  0  0  0  0
 63107  1  0  0  0  0
 63108  1  0  0  0  0
 63109  1  0  0  0  0
 64110  1  0  0  0  0
 64111  1  0  0  0  0
 65112  1  0  0  0  0
 65113  1  0  0  0  0
 65114  1  0  0  0  0
 66115  1  0  0  0  0
 69116  1  0  0  0  0
 74117  1  0  0  0  0
 77118  1  0  0  0  0
 78119  1  0  0  0  0
M  END
