119

C         -3.03550        9.00090       -1.13060
C         -3.29390        9.93920       -2.08340
S         -4.15660       11.40370       -1.61600
C         -4.14900       11.99520       -3.25820
C         -4.69460       13.21520       -3.56610
C         -5.31380       13.97300       -2.55020
N         -5.82720       14.59090       -1.73160
C         -4.66680       13.85090       -4.81800
N         -4.65220       14.44570       -5.80050
N         -3.53770       11.11440       -4.09250
C         -3.54460       11.23590       -5.53670
C         -4.93100       11.06710       -6.11150
C         -5.83800       10.19230       -5.52760
C         -7.10530       10.03890       -6.06100
C         -7.47430       10.75150       -7.18830
C         -6.56900       11.61390       -7.78300
C         -5.30380       11.77280       -7.24710
C         -3.02510        9.95670       -3.51530
O         -2.45090        9.11790       -4.17670
C         -2.37900        7.75230       -1.20260
S         -2.39940        6.78300        0.27230
C         -1.51640        5.51770       -0.49880
C         -1.15100        4.29220        0.06840
S         -1.52490        3.83070        1.71440
C         -0.77850        2.30790        1.43320
C         -0.49220        1.13890        2.14720
C         -0.64370        0.84760        3.51970
C         -0.10320       -0.37930        4.02140
N         -0.24990       -0.50060        5.33140
S         -1.00990        0.81750        5.88450
N         -1.17830        1.59400        4.47350
C          0.44080       -1.30240        3.10270
C          0.89690       -2.61200        3.30000
S          1.11770       -3.71240        4.60110
C          1.60240       -4.94080        3.45160
C          1.92930       -6.25410        3.80300
C          2.29700       -7.22290        2.84380
C          2.35250       -6.78440        1.49700
N          2.68240       -7.43170        0.37980
N          2.55030       -6.54300       -0.56630
C          2.85850       -6.84230       -1.93470
C          4.33370       -6.58080       -2.22380
N          2.16150       -5.34900       -0.18980
C          2.01400       -5.44610        1.13640
C          1.60850       -4.49700        2.11090
C          1.19090       -3.14960        2.04480
N          0.95710       -2.20360        1.07470
C          0.50310       -1.05090        1.70320
C          0.14390        0.24710        1.23680
N          0.28740        0.90450        0.02870
C         -0.27080        2.15210        0.14090
C         -0.45430        3.30410       -0.65980
C         -0.08580        3.64850       -1.98610
C         -0.46040        4.90020       -2.56180
C         -1.20760        5.85550       -1.83080
C         -1.70030        7.10770       -2.21480
N          0.02480        4.93530       -3.80280
N          0.64040        3.79310       -3.94530
C          1.35110        3.46150       -5.14630
C          2.78520        3.97830       -5.07940
N          0.61790        2.98790       -2.91260
C          1.05190        0.52930       -1.13640
C          0.15670        0.03000       -2.27250
C          0.66810       -2.65930       -0.26850
C         -0.80620       -3.04100       -0.39930
C          2.53770       -8.48280        3.39440
C          2.36490       -8.51630        4.76580
S          1.91230       -6.92550        5.38900
C          2.48170       -9.53550        5.72950
C          2.67810      -10.88700        5.61140
C          2.72160      -11.70690        4.38170
O          2.75060      -11.35190        3.22300
C          2.71060      -13.11410        4.84380
C          2.68420      -14.25890        4.07360
C          2.66450      -15.48790        4.72130
Cl         2.62790      -16.95470        3.82390
C          2.67230      -15.52470        6.11770
F          2.64630      -16.71160        6.73590
C          2.70380      -14.37840        6.89630
C          2.72420      -13.15340        6.24680
C          2.76050      -11.78400        6.75380
C          2.90520      -11.44380        8.07320
C          2.98420      -12.38320        9.12420
N          3.04940      -13.09060       10.02560
C          3.03490      -10.13670        8.59130
N          3.16760       -9.11860        9.10600
H         -3.40760        9.24260       -0.14060
H         -3.11700       12.19630       -5.83410
H         -2.89210       10.43110       -5.89780
H         -5.55730        9.61960       -4.65390
H         -7.80360        9.36060       -5.59350
H         -8.46470       10.63440       -7.60190
H         -6.85000       12.17170       -8.66320
H         -4.60600       12.45750       -7.70420
H          2.61980       -7.89440       -2.09990
H          2.22600       -6.20990       -2.56110
H          4.95500       -7.20010       -1.58180
H          4.57450       -5.53560       -2.04530
H          4.55390       -6.81960       -3.26020
H         -1.56830        7.51930       -3.19750
H          1.33770        2.37450       -5.24740
H          0.81930        3.92450       -5.97940
H          3.31010        3.73130       -5.99750
H          2.78630        5.05820       -4.95430
H          3.31110        3.52620       -4.24180
H          1.57520        1.42190       -1.48910
H          1.80260       -0.20440       -0.83790
H         -0.59540       -0.66740       -1.91530
H          0.75890       -0.45320       -3.03720
H         -0.35100        0.87670       -2.72390
H          0.92440       -1.90320       -0.99940
H          1.29120       -3.53790       -0.44910
H         -1.01270       -3.38150       -1.41040
H         -1.44810       -2.19080       -0.17420
H         -1.05010       -3.84420        0.29230
H          2.81910       -9.34000        2.81150
H          2.35900       -9.16690        6.74140
H          2.67790      -14.19630        2.99710
H          2.70570      -14.47940        7.96910
