108

C          6.57690       -2.95640        3.40780
C          7.82440       -3.16360        2.87800
C          8.11820       -3.03920        1.43550
O          7.37580       -2.63880        0.56260
C          9.44080       -3.67050        1.24700
C         10.15450       -3.84090        0.07640
C         11.37370       -4.49810        0.13490
C         11.82950       -4.96760        1.35740
F         13.00830       -5.61070        1.39350
C         11.12850       -4.81310        2.54620
C          9.91430       -4.15150        2.48060
C          8.93480       -3.82770        3.51670
C          9.08470       -4.03060        4.86490
C          8.15530       -3.59590        5.83240
N          7.45070       -3.24240        6.66760
C         10.19860       -4.66430        5.45090
N         11.07830       -5.17970        5.97860
C          5.53670       -2.15180        2.88600
C          4.18260       -2.53660        2.91030
C          3.48520       -1.49270        2.33360
C          4.40170       -0.45820        2.04530
N          5.65240       -0.88330        2.34150
C          6.83700       -0.05490        2.33050
C          7.29800        0.28900        0.91740
C          3.64230        0.62270        1.54810
C          3.99630        1.91360        1.09140
C          2.99320        2.74800        0.49180
N          3.47510        3.90630        0.07060
S          5.05380        3.96250        0.41270
N          5.18320        2.50420        1.10790
C          1.65450        2.30690        0.47470
C          0.47950        2.92480        0.02930
S         -0.00940        4.37430       -0.77660
C         -1.67430        3.83420       -0.66630
C         -2.86150        4.37110       -1.14710
C         -2.93140        5.70080       -1.82480
C         -3.37200        6.79280       -0.84620
C         -3.94910        3.52080       -0.88740
S         -3.46210        2.07080       -0.01030
C         -1.82250        2.59790       -0.01360
C         -0.58400        2.08400        0.38150
N         -0.10650        0.97400        1.02980
C          1.27320        1.06810        1.06830
C          2.28260        0.18130        1.51670
N          2.20460       -1.12060        1.99780
C          1.29120       -2.17410        1.60310
C          1.36700       -2.43140        0.09950
C         -0.99660        0.19590        1.86540
C         -1.83740       -0.80300        1.07170
C         -5.25290        3.78370       -1.32520
C         -6.37810        2.99860       -1.29980
C         -6.46400        1.61420       -0.82610
O         -5.62630        0.98700       -0.19830
C         -7.77010        1.10430       -1.27360
C         -8.25370       -0.19420       -1.13680
C         -9.48880       -0.39230       -1.70560
C        -10.19410        0.62820       -2.35690
C         -9.73420        1.91790       -2.48480
C         -8.47650        2.13970       -1.91820
C         -7.65930        3.35160       -1.87940
C         -8.06750        4.59870       -2.27820
C         -9.33640        4.88620       -2.82230
N        -10.34500        5.19280       -3.27750
C         -7.30450        5.77940       -2.16560
N         -6.75050        6.78390       -2.09680
C        -11.33800       -0.28540       -2.71920
C        -11.41080       -0.80080       -4.17830
C         -9.99790       -0.79770       -4.70690
C         -9.33170       -1.76320       -4.08790
C        -10.28240       -2.43660       -3.12920
C        -11.59710       -2.30360       -3.91410
C        -10.55320       -1.42160       -1.99070
H          6.30050       -3.52280        4.29040
H          9.76380       -3.46580       -0.85670
H         11.97250       -4.65510       -0.74810
H         11.53520       -5.20990        3.46170
H          3.82310       -3.48440        3.25910
H          6.60970        0.87350        2.86500
H          7.62330       -0.58900        2.86820
H          6.59090        0.96990        0.45600
H          8.26920        0.77390        0.96290
H          7.37460       -0.60800        0.31120
H         -3.62050        5.67220       -2.67040
H         -1.93580        5.94040       -2.20400
H         -2.69350        6.83540        0.00270
H         -4.37820        6.60280       -0.48150
H         -3.36750        7.75740       -1.34560
H          1.60710       -3.06780        2.14530
H          0.27050       -1.95220        1.89960
H          2.38270       -2.69800       -0.18420
H          0.70350       -3.24770       -0.17390
H          1.07960       -1.54110       -0.45630
H         -1.67580        0.89670        2.36430
H         -0.40200       -0.28810        2.64140
H         -1.22500       -1.39900        0.40160
H         -2.58080       -0.28020        0.47690
H         -2.36070       -1.46380        1.75770
H         -5.35680        4.74580       -1.80920
H         -7.67500       -0.95120       -0.63090
H        -10.28840        2.69020       -2.99150
H        -12.31470       -0.00750       -2.32870
H        -12.15470       -0.30430       -4.79540
H         -9.62420       -0.07950       -5.41310
H         -8.29010       -2.01250       -4.17340
H         -9.99940       -3.43000       -2.79100
H        -11.60270       -2.89430       -4.82890
H        -12.48150       -2.53390       -3.32180
H        -11.01680       -1.88540       -1.12220
