130

C          3.59880        2.49710       -7.73240
C          2.97620        1.63620       -8.59150
C          3.59910        1.34010       -9.90580
O          4.48670        1.95730      -10.44910
C          2.94050        0.09820      -10.37020
C          3.22380       -0.67260      -11.48150
C          2.48290       -1.82500      -11.69450
C          1.48730       -2.16670      -10.79140
F          0.79100       -3.29530      -11.00620
C          1.17390       -1.40320       -9.67490
C          1.91720       -0.25440       -9.47080
C          1.82170        0.78420       -8.44470
C          0.70430        1.05650       -7.69710
C         -0.41480        0.20730       -7.60960
N         -1.33530       -0.46540       -7.47370
C          0.52790        2.27840       -7.01600
N          0.33140        3.29250       -6.51470
C          3.49800        2.61150       -6.33490
C          4.11320        3.60870       -5.57560
C          4.85110        4.74480       -6.14160
C          6.21400        4.83070       -5.87150
C          6.96820        5.86930       -6.38170
C          6.35770        6.83940       -7.15780
C          4.99880        6.76960       -7.40530
C          4.22220        5.73050       -6.90910
C          2.73450        5.74820       -7.11120
C          2.03510        6.28520       -5.86080
C          3.95880        3.38370       -4.20630
S          4.47420        4.27330       -2.79070
C          3.68000        3.10090       -1.79720
C          3.44410        2.84150       -0.43800
C          3.93170        3.44720        0.74250
C          3.56240        2.89110        2.01480
N          4.13920        3.52010        3.02570
S          5.06190        4.71080        2.43370
N          4.76190        4.47060        0.86100
C          2.60340        1.85250        2.05700
C          1.88180        1.29310        3.12040
S          1.80570        1.39870        4.84660
C          0.39420        0.35980        4.81100
C         -0.45960       -0.09550        5.80760
C         -0.26950        0.16570        7.24320
C         -1.08540        1.05440        7.94650
C         -2.13690        1.87360        7.25250
C         -1.51290        3.14550        6.67350
C         -0.85250        1.23420        9.30300
C          0.15960        0.55460        9.95420
C          0.97500       -0.31170        9.24730
C          0.76170       -0.50190        7.89600
C         -1.51100       -0.86270        5.27970
S         -1.41380       -1.00850        3.52870
C          0.02090       -0.04920        3.51890
C          0.89240        0.47310        2.55850
N          1.00850        0.47210        1.19440
C          2.06160        1.29770        0.86150
C          2.60720        1.69150       -0.38460
N          2.40690        1.22060       -1.66970
C          3.04770        2.08140       -2.52330
C          3.21910        2.23120       -3.89840
S          2.73760        1.38580       -5.32000
C          2.15600       -0.13960       -2.09540
C          3.46360       -0.86890       -2.40420
C         -0.06400       -0.04030        0.36920
C         -0.07750       -1.56830        0.31980
C         -2.50590       -1.41060        6.10020
C         -3.64090       -2.10780        5.77660
C         -4.05840       -2.49420        4.42600
O         -3.45640       -2.30440        3.38090
C         -5.35820       -3.16830        4.56920
C         -6.15490       -3.67980        3.54770
C         -7.33330       -4.23660        3.98330
C         -7.69240       -4.28070        5.33690
C         -6.91460       -3.78030        6.35430
C         -5.71020       -3.20960        5.93390
C         -4.65110       -2.56520        6.71030
C         -4.64660       -2.41510        8.07340
C         -3.65080       -1.77040        8.83750
N         -2.90270       -1.26190        9.54630
C         -5.66140       -2.88910        8.93140
N         -6.44200       -3.24570        9.69440
C         -9.00180       -4.97120        5.04940
C         -9.09640       -6.49090        5.33130
C         -7.69590       -7.03790        5.20880
C         -7.35590       -6.99740        3.92750
C         -8.52030       -6.42180        3.16010
C         -9.69050       -6.96550        3.99540
C         -8.60150       -4.92280        3.54110
H          4.36390        3.12350       -8.18370
H          4.00570       -0.37510      -12.16250
H          2.66480       -2.46220      -12.54530
H          0.38850       -1.72130       -9.00890
H          6.68030        4.06520       -5.26830
H          8.02600        5.92060       -6.17350
H          6.93800        7.65460       -7.56310
H          4.52380        7.53910       -7.99670
H          2.49220        6.38780       -7.96160
H          2.35120        4.74990       -7.32300
H          2.26280        5.66100       -5.00010
H          2.36210        7.30030       -5.64560
H          0.95890        6.28220       -6.00850
H         -2.91440        2.14550        7.96870
H         -2.60450        1.30530        6.44650
H         -1.05610        3.73550        7.46450
H         -0.74200        2.89530        5.94800
H         -2.27050        3.75050        6.18060
H         -1.48310        1.91480        9.85570
H          0.31310        0.70190       11.01230
H          1.77230       -0.84200        9.74590
H          1.38630       -1.18190        7.33450
H          1.63880       -0.67630       -1.30890
H          1.52600       -0.10830       -2.98990
H          3.99470       -0.39100       -3.22290
H          4.10770       -0.87380       -1.52710
H          3.24900       -1.89580       -2.68650
H         -1.00960        0.29700        0.80770
H          0.01510        0.40010       -0.62540
H          0.90560       -1.97420        0.09000
H         -0.78220       -1.90260       -0.43600
H         -0.39110       -1.97120        1.27850
H         -2.33460       -1.21090        7.15160
H         -5.84160       -3.61890        2.51710
H         -7.21020       -3.81960        7.38910
H         -9.89830       -4.43620        5.35630
H         -9.63470       -6.74860        6.23940
H         -7.09420       -7.33530        6.04760
H         -6.41300       -7.25430        3.48140
H         -8.53500       -6.61740        2.09100
H        -10.64650       -6.50150        3.75660
H         -9.78250       -8.04890        3.93650
H         -9.23750       -4.35660        2.86320
