
  xtb     02022200323D
 energy: -222.804371275163 gnorm: 0.000261625558 xtb: 6.4.1 (unknown)
132144  0     0  0            999 V2000
    5.5481   -4.0120   -0.6352 C   0  0  0  0  0  0  0  0  0  0  0  0
    5.7675   -5.2851   -0.1699 C   0  0  0  0  0  0  0  0  0  0  0  0
    4.7826   -6.1334    0.5111 C   0  0  0  0  0  0  0  0  0  0  0  0
    3.6211   -5.8696    0.7658 O   0  0  0  0  0  0  0  0  0  0  0  0
    5.4813   -7.3909    0.8358 C   0  0  0  0  0  0  0  0  0  0  0  0
    4.9901   -8.5087    1.4828 C   0  0  0  0  0  0  0  0  0  0  0  0
    5.8420   -9.5831    1.6838 C   0  0  0  0  0  0  0  0  0  0  0  0
    7.1502   -9.4989    1.2311 C   0  0  0  0  0  0  0  0  0  0  0  0
    7.9636  -10.5472    1.4348 F   0  0  0  0  0  0  0  0  0  0  0  0
    7.6651   -8.3867    0.5778 C   0  0  0  0  0  0  0  0  0  0  0  0
    6.8090   -7.3165    0.3795 C   0  0  0  0  0  0  0  0  0  0  0  0
    7.0169   -6.0144   -0.2586 C   0  0  0  0  0  0  0  0  0  0  0  0
    8.1923   -5.5973   -0.8266 C   0  0  0  0  0  0  0  0  0  0  0  0
    8.4151   -4.3515   -1.4505 C   0  0  0  0  0  0  0  0  0  0  0  0
    8.6844   -3.3654   -1.9746 N   0  0  0  0  0  0  0  0  0  0  0  0
    9.3707   -6.3733   -0.8699 C   0  0  0  0  0  0  0  0  0  0  0  0
   10.3631   -6.9457   -0.9394 N   0  0  0  0  0  0  0  0  0  0  0  0
    4.4028   -3.2073   -0.5941 C   0  0  0  0  0  0  0  0  0  0  0  0
    2.8402   -3.6336    0.0910 S   0  0  0  0  0  0  0  0  0  0  0  0
    2.2404   -2.0895   -0.3253 C   0  0  0  0  0  0  0  0  0  0  0  0
    1.0052   -1.3884   -0.1791 C   0  0  0  0  0  0  0  0  0  0  0  0
    1.1752   -0.1069   -0.7585 C   0  0  0  0  0  0  0  0  0  0  0  0
    2.5816    0.0606   -1.3089 C   0  0  0  0  0  0  0  0  0  0  0  0
    2.6474    0.2197   -2.8170 C   0  0  0  0  0  0  0  0  0  0  0  0
    3.8478    0.6063   -3.4019 C   0  0  0  0  0  0  0  0  0  0  0  0
    3.9540    0.7236   -4.7735 C   0  0  0  0  0  0  0  0  0  0  0  0
    2.8681    0.4546   -5.5980 C   0  0  0  0  0  0  0  0  0  0  0  0
    2.9993    0.5468   -7.0907 C   0  0  0  0  0  0  0  0  0  0  0  0
    3.5066   -0.7773   -7.6657 C   0  0  0  0  0  0  0  0  0  0  0  0
    1.6774    0.0532   -5.0091 C   0  0  0  0  0  0  0  0  0  0  0  0
    1.5655   -0.0678   -3.6351 C   0  0  0  0  0  0  0  0  0  0  0  0
    3.2212    1.2354   -0.5905 C   0  0  0  0  0  0  0  0  0  0  0  0
    3.9209    1.0584    0.5946 C   0  0  0  0  0  0  0  0  0  0  0  0
    4.4531    2.1456    1.2633 C   0  0  0  0  0  0  0  0  0  0  0  0
    4.2937    3.4344    0.7727 C   0  0  0  0  0  0  0  0  0  0  0  0
    4.8320    4.6164    1.5255 C   0  0  0  0  0  0  0  0  0  0  0  0
    3.7978    5.1221    2.5336 C   0  0  0  0  0  0  0  0  0  0  0  0
    3.5802    3.6070   -0.4065 C   0  0  0  0  0  0  0  0  0  0  0  0
    3.0490    2.5241   -1.0802 C   0  0  0  0  0  0  0  0  0  0  0  0
    3.1850   -1.2752   -0.9567 C   0  0  0  0  0  0  0  0  0  0  0  0
    4.3988   -1.9041   -1.1165 C   0  0  0  0  0  0  0  0  0  0  0  0
    0.1582    0.8175   -0.7341 C   0  0  0  0  0  0  0  0  0  0  0  0
   -1.0356    0.4363   -0.1240 C   0  0  0  0  0  0  0  0  0  0  0  0
   -2.2522    1.1573    0.0686 C   0  0  0  0  0  0  0  0  0  0  0  0
   -3.1879    0.3563    0.7316 C   0  0  0  0  0  0  0  0  0  0  0  0
   -2.5953   -0.9919    1.0538 C   0  0  0  0  0  0  0  0  0  0  0  0
   -1.2074   -0.8463    0.4522 C   0  0  0  0  0  0  0  0  0  0  0  0
   -0.1921   -1.7730    0.4220 C   0  0  0  0  0  0  0  0  0  0  0  0
   -3.2986   -2.1545    0.3784 C   0  0  0  0  0  0  0  0  0  0  0  0
   -4.0875   -1.9631   -0.7468 C   0  0  0  0  0  0  0  0  0  0  0  0
   -4.6986   -3.0385   -1.3656 C   0  0  0  0  0  0  0  0  0  0  0  0
   -4.5319   -4.3294   -0.8837 C   0  0  0  0  0  0  0  0  0  0  0  0
   -5.1667   -5.4994   -1.5779 C   0  0  0  0  0  0  0  0  0  0  0  0
   -4.2199   -6.0722   -2.6346 C   0  0  0  0  0  0  0  0  0  0  0  0
   -3.7250   -4.5175    0.2314 C   0  0  0  0  0  0  0  0  0  0  0  0
   -3.1148   -3.4466    0.8553 C   0  0  0  0  0  0  0  0  0  0  0  0
   -2.5921   -1.1401    2.5666 C   0  0  0  0  0  0  0  0  0  0  0  0
   -3.7659   -1.5141    3.2102 C   0  0  0  0  0  0  0  0  0  0  0  0
   -3.7992   -1.6117    4.5883 C   0  0  0  0  0  0  0  0  0  0  0  0
   -2.6680   -1.3319    5.3351 C   0  0  0  0  0  0  0  0  0  0  0  0
   -1.4913   -0.9477    4.7083 C   0  0  0  0  0  0  0  0  0  0  0  0
   -0.2703   -0.5915    5.5069 C   0  0  0  0  0  0  0  0  0  0  0  0
   -0.2239    0.9156    5.7659 C   0  0  0  0  0  0  0  0  0  0  0  0
   -1.4684   -0.8479    3.3229 C   0  0  0  0  0  0  0  0  0  0  0  0
   -4.3760    1.0120    0.9562 C   0  0  0  0  0  0  0  0  0  0  0  0
   -4.3680    2.3272    0.4610 C   0  0  0  0  0  0  0  0  0  0  0  0
   -2.8263    2.7239   -0.2898 S   0  0  0  0  0  0  0  0  0  0  0  0
   -5.4800    3.1658    0.5829 C   0  0  0  0  0  0  0  0  0  0  0  0
   -5.6704    4.4699    0.1894 C   0  0  0  0  0  0  0  0  0  0  0  0
   -4.6788    5.3186   -0.4749 C   0  0  0  0  0  0  0  0  0  0  0  0
   -3.5459    5.0272   -0.8113 O   0  0  0  0  0  0  0  0  0  0  0  0
   -5.3289    6.6330   -0.6628 C   0  0  0  0  0  0  0  0  0  0  0  0
   -4.8042    7.7741   -1.2354 C   0  0  0  0  0  0  0  0  0  0  0  0
   -5.6167    8.8950   -1.2929 C   0  0  0  0  0  0  0  0  0  0  0  0
   -5.1505   10.0249   -1.8389 F   0  0  0  0  0  0  0  0  0  0  0  0
   -6.9156    8.8569   -0.7861 C   0  0  0  0  0  0  0  0  0  0  0  0
   -7.6778    9.9544   -0.8525 F   0  0  0  0  0  0  0  0  0  0  0  0
   -7.4420    7.7088   -0.2122 C   0  0  0  0  0  0  0  0  0  0  0  0
   -6.6361    6.5828   -0.1513 C   0  0  0  0  0  0  0  0  0  0  0  0
   -6.8827    5.2403    0.3802 C   0  0  0  0  0  0  0  0  0  0  0  0
   -8.0626    4.8234    0.9398 C   0  0  0  0  0  0  0  0  0  0  0  0
   -9.2023    5.6433    1.0848 C   0  0  0  0  0  0  0  0  0  0  0  0
  -10.1627    6.2536    1.2343 N   0  0  0  0  0  0  0  0  0  0  0  0
   -8.3298    3.5335    1.4456 C   0  0  0  0  0  0  0  0  0  0  0  0
   -8.6359    2.5132    1.8758 N   0  0  0  0  0  0  0  0  0  0  0  0
    6.3872   -3.5205   -1.1128 H   0  0  0  0  0  0  0  0  0  0  0  0
    3.9655   -8.5327    1.8196 H   0  0  0  0  0  0  0  0  0  0  0  0
    5.5120  -10.4801    2.1832 H   0  0  0  0  0  0  0  0  0  0  0  0
    8.6924   -8.3919    0.2538 H   0  0  0  0  0  0  0  0  0  0  0  0
    4.6993    0.8295   -2.7755 H   0  0  0  0  0  0  0  0  0  0  0  0
    4.8926    1.0317   -5.2113 H   0  0  0  0  0  0  0  0  0  0  0  0
    2.0303    0.7843   -7.5342 H   0  0  0  0  0  0  0  0  0  0  0  0
    3.6994    1.3429   -7.3516 H   0  0  0  0  0  0  0  0  0  0  0  0
    4.4781   -1.0256   -7.2443 H   0  0  0  0  0  0  0  0  0  0  0  0
    2.8151   -1.5827   -7.4280 H   0  0  0  0  0  0  0  0  0  0  0  0
    3.6037   -0.7100   -8.7467 H   0  0  0  0  0  0  0  0  0  0  0  0
    0.8220   -0.1665   -5.6321 H   0  0  0  0  0  0  0  0  0  0  0  0
    0.6277   -0.3845   -3.2020 H   0  0  0  0  0  0  0  0  0  0  0  0
    4.0566    0.0655    0.9986 H   0  0  0  0  0  0  0  0  0  0  0  0
    5.0028    1.9884    2.1805 H   0  0  0  0  0  0  0  0  0  0  0  0
    5.7436    4.3344    2.0559 H   0  0  0  0  0  0  0  0  0  0  0  0
    5.0765    5.4196    0.8278 H   0  0  0  0  0  0  0  0  0  0  0  0
    4.1852    5.9801    3.0778 H   0  0  0  0  0  0  0  0  0  0  0  0
    2.8843    5.4179    2.0224 H   0  0  0  0  0  0  0  0  0  0  0  0
    3.5511    4.3396    3.2479 H   0  0  0  0  0  0  0  0  0  0  0  0
    3.4408    4.6018   -0.8046 H   0  0  0  0  0  0  0  0  0  0  0  0
    2.5076    2.6800   -2.0021 H   0  0  0  0  0  0  0  0  0  0  0  0
    5.2697   -1.4737   -1.5775 H   0  0  0  0  0  0  0  0  0  0  0  0
    0.2676    1.8019   -1.1615 H   0  0  0  0  0  0  0  0  0  0  0  0
   -0.2991   -2.7552    0.8549 H   0  0  0  0  0  0  0  0  0  0  0  0
   -4.2335   -0.9681   -1.1415 H   0  0  0  0  0  0  0  0  0  0  0  0
   -5.3188   -2.8693   -2.2343 H   0  0  0  0  0  0  0  0  0  0  0  0
   -5.4047   -6.2769   -0.8493 H   0  0  0  0  0  0  0  0  0  0  0  0
   -6.0952   -5.1856   -2.0587 H   0  0  0  0  0  0  0  0  0  0  0  0
   -4.6791   -6.9206   -3.1365 H   0  0  0  0  0  0  0  0  0  0  0  0
   -3.2919   -6.4017   -2.1726 H   0  0  0  0  0  0  0  0  0  0  0  0
   -3.9811   -5.3155   -3.3786 H   0  0  0  0  0  0  0  0  0  0  0  0
   -3.5774   -5.5148    0.6203 H   0  0  0  0  0  0  0  0  0  0  0  0
   -2.5047   -3.6136    1.7311 H   0  0  0  0  0  0  0  0  0  0  0  0
   -4.6478   -1.7404    2.6294 H   0  0  0  0  0  0  0  0  0  0  0  0
   -4.7126   -1.9075    5.0826 H   0  0  0  0  0  0  0  0  0  0  0  0
   -2.6989   -1.4128    6.4120 H   0  0  0  0  0  0  0  0  0  0  0  0
   -0.2840   -1.1210    6.4613 H   0  0  0  0  0  0  0  0  0  0  0  0
    0.6279   -0.8902    4.9621 H   0  0  0  0  0  0  0  0  0  0  0  0
   -1.1077    1.2318    6.3156 H   0  0  0  0  0  0  0  0  0  0  0  0
   -0.1933    1.4609    4.8249 H   0  0  0  0  0  0  0  0  0  0  0  0
    0.6579    1.1752    6.3470 H   0  0  0  0  0  0  0  0  0  0  0  0
   -0.5540   -0.5414    2.8347 H   0  0  0  0  0  0  0  0  0  0  0  0
   -5.2359    0.5956    1.4498 H   0  0  0  0  0  0  0  0  0  0  0  0
   -6.3149    2.6855    1.0789 H   0  0  0  0  0  0  0  0  0  0  0  0
   -3.7991    7.7977   -1.6250 H   0  0  0  0  0  0  0  0  0  0  0  0
   -8.4513    7.7341    0.1642 H   0  0  0  0  0  0  0  0  0  0  0  0
  1  2  2  0  0  0  0
  2  3  1  0  0  0  0
  3  4  2  0  0  0  0
  3  5  1  0  0  0  0
  5  6  2  0  0  0  0
  6  7  1  0  0  0  0
  7  8  2  0  0  0  0
  8  9  1  0  0  0  0
  8 10  1  0  0  0  0
 10 11  2  0  0  0  0
 11 12  1  0  0  0  0
 12 13  2  0  0  0  0
 13 14  1  0  0  0  0
 14 15  3  0  0  0  0
 13 16  1  0  0  0  0
 16 17  3  0  0  0  0
  1 18  1  0  0  0  0
 18 19  1  0  0  0  0
 19 20  1  0  0  0  0
 20 21  1  0  0  0  0
 21 22  2  0  0  0  0
 22 23  1  0  0  0  0
 23 24  1  0  0  0  0
 24 25  2  0  0  0  0
 25 26  1  0  0  0  0
 26 27  2  0  0  0  0
 27 28  1  0  0  0  0
 28 29  1  0  0  0  0
 27 30  1  0  0  0  0
 30 31  2  0  0  0  0
 23 32  1  0  0  0  0
 32 33  2  0  0  0  0
 33 34  1  0  0  0  0
 34 35  2  0  0  0  0
 35 36  1  0  0  0  0
 36 37  1  0  0  0  0
 35 38  1  0  0  0  0
 38 39  2  0  0  0  0
 23 40  1  0  0  0  0
 40 41  1  0  0  0  0
 22 42  1  0  0  0  0
 42 43  2  0  0  0  0
 43 44  1  0  0  0  0
 44 45  2  0  0  0  0
 45 46  1  0  0  0  0
 46 47  1  0  0  0  0
 47 48  2  0  0  0  0
 46 49  1  0  0  0  0
 49 50  2  0  0  0  0
 50 51  1  0  0  0  0
 51 52  2  0  0  0  0
 52 53  1  0  0  0  0
 53 54  1  0  0  0  0
 52 55  1  0  0  0  0
 55 56  2  0  0  0  0
 46 57  1  0  0  0  0
 57 58  2  0  0  0  0
 58 59  1  0  0  0  0
 59 60  2  0  0  0  0
 60 61  1  0  0  0  0
 61 62  1  0  0  0  0
 62 63  1  0  0  0  0
 61 64  2  0  0  0  0
 45 65  1  0  0  0  0
 65 66  2  0  0  0  0
 66 67  1  0  0  0  0
 66 68  1  0  0  0  0
 68 69  2  0  0  0  0
 69 70  1  0  0  0  0
 70 71  2  0  0  0  0
 70 72  1  0  0  0  0
 72 73  2  0  0  0  0
 73 74  1  0  0  0  0
 74 75  1  0  0  0  0
 74 76  2  0  0  0  0
 76 77  1  0  0  0  0
 76 78  1  0  0  0  0
 78 79  2  0  0  0  0
 79 80  1  0  0  0  0
 80 81  2  0  0  0  0
 81 82  1  0  0  0  0
 82 83  3  0  0  0  0
 81 84  1  0  0  0  0
 84 85  3  0  0  0  0
 12  2  1  0  0  0  0
 41 18  2  0  0  0  0
 47 43  1  0  0  0  0
 56 49  1  0  0  0  0
 64 57  1  0  0  0  0
 80 69  1  0  0  0  0
 11  5  1  0  0  0  0
 40 20  2  0  0  0  0
 67 44  1  0  0  0  0
 79 72  1  0  0  0  0
 48 21  1  0  0  0  0
 31 24  1  0  0  0  0
 39 32  1  0  0  0  0
  1 86  1  0  0  0  0
  6 87  1  0  0  0  0
  7 88  1  0  0  0  0
 10 89  1  0  0  0  0
 25 90  1  0  0  0  0
 26 91  1  0  0  0  0
 28 92  1  0  0  0  0
 28 93  1  0  0  0  0
 29 94  1  0  0  0  0
 29 95  1  0  0  0  0
 29 96  1  0  0  0  0
 30 97  1  0  0  0  0
 31 98  1  0  0  0  0
 33 99  1  0  0  0  0
 34100  1  0  0  0  0
 36101  1  0  0  0  0
 36102  1  0  0  0  0
 37103  1  0  0  0  0
 37104  1  0  0  0  0
 37105  1  0  0  0  0
 38106  1  0  0  0  0
 39107  1  0  0  0  0
 41108  1  0  0  0  0
 42109  1  0  0  0  0
 48110  1  0  0  0  0
 50111  1  0  0  0  0
 51112  1  0  0  0  0
 53113  1  0  0  0  0
 53114  1  0  0  0  0
 54115  1  0  0  0  0
 54116  1  0  0  0  0
 54117  1  0  0  0  0
 55118  1  0  0  0  0
 56119  1  0  0  0  0
 58120  1  0  0  0  0
 59121  1  0  0  0  0
 60122  1  0  0  0  0
 62123  1  0  0  0  0
 62124  1  0  0  0  0
 63125  1  0  0  0  0
 63126  1  0  0  0  0
 63127  1  0  0  0  0
 64128  1  0  0  0  0
 65129  1  0  0  0  0
 68130  1  0  0  0  0
 73131  1  0  0  0  0
 78132  1  0  0  0  0
M  END
