173

C          6.95410        0.16180       -7.91250
C          7.79890        1.09150       -8.45600
C          8.90450        0.63940       -9.33730
O          9.05250       -0.46400       -9.81200
C          9.80410        1.80690       -9.46100
C         11.03650        1.89220      -10.08030
C         11.71730        3.09900      -10.03690
C         11.14450        4.17450       -9.37500
F         11.82530        5.33150       -9.32820
C          9.90360        4.11730       -8.75460
C          9.22800        2.91070       -8.80630
C          7.90910        2.52280       -8.29890
C          6.90260        3.40640       -7.99800
C          7.06670        4.80430       -7.94320
N          7.14620        5.94710       -7.86290
C          5.55560        3.04070       -7.79980
N          4.43500        2.81520       -7.69310
C          6.12050        0.31060       -6.79210
C          6.19880        1.25600       -5.77220
C          5.17830        1.12870       -4.85390
C          4.66690        1.95070       -3.69600
C          4.51210        3.35980       -4.23660
C          5.63380        4.17790       -4.29950
C          5.56240        5.41500       -4.90710
C          4.37480        5.86220       -5.47430
C          4.31230        7.21040       -6.12960
C          4.10150        8.30900       -5.08600
C          3.25570        5.04660       -5.39230
C          3.32140        3.80400       -4.78750
C          5.49690        1.89840       -2.42910
C          5.26670        2.83730       -1.43120
C          5.93790        2.75360       -0.22730
C          6.85300        1.73520        0.00960
C          7.52960        1.61070        1.34380
C          6.66540        0.78340        2.29810
C          7.08160        0.80420       -0.99440
C          6.40870        0.87900       -2.20080
C          3.38310        1.21820       -3.40030
C          3.21630        0.12130       -4.24460
C          4.29110        0.08720       -5.16120
S          4.76380       -0.78510       -6.55200
S          1.81190       -0.82500       -3.88680
C          1.44270        0.24540       -2.56920
C          2.37250        1.28090       -2.44690
S          2.03810        2.32810       -1.10820
C          0.67260        1.32480       -0.65770
C         -0.11130        1.54560        0.46620
C          0.09330        2.69840        1.32480
C         -0.83430        3.61170        1.73510
C         -0.28750        4.63600        2.53400
C          1.04990        4.50270        2.74340
C          1.96820        5.40060        3.49780
C          2.87460        6.18570        2.54730
S          1.67090        3.10000        1.93680
C         -1.11170        0.59600        0.73610
C         -1.32490       -0.48640       -0.15550
C         -0.58840       -0.66540       -1.31850
C         -0.87350       -1.74620       -2.24500
C         -1.08080       -1.66340       -3.59150
C         -1.36990       -2.90870       -4.18480
C         -1.37400       -3.94140       -3.29930
C         -1.66390       -5.38110       -3.54830
C         -3.00310       -5.78960       -2.93160
S         -1.03080       -3.38810       -1.69300
C          0.45490        0.24690       -1.55370
S         -2.59470       -1.57320        0.37620
C         -2.79780       -0.63850        1.82100
C         -3.57370       -0.77770        2.96780
C         -3.31770        0.24460        3.87890
S         -2.14360        1.39170        3.32980
C         -1.96770        0.48420        1.85900
C         -4.08380        0.01560        5.04290
S         -4.39360        0.78340        6.53420
C         -5.46150       -0.53350        7.00670
C         -5.56000       -1.49470        6.00090
C         -4.79130       -1.18710        4.89620
C         -4.53010       -1.79490        3.53600
C         -5.84890       -1.91340        2.79820
C         -6.70200       -2.96510        3.10990
C         -7.92430       -3.08500        2.47900
C         -8.32770       -2.15880        1.52460
C         -9.63360       -2.32400        0.80260
C         -9.45280       -3.21690       -0.42680
C         -7.47270       -1.10890        1.22110
C         -6.24870       -0.98100        1.85350
C         -3.78590       -3.12040        3.56070
C         -3.76030       -3.90350        2.41310
C         -3.03310       -5.07770        2.38660
C         -2.31420       -5.49650        3.49910
C         -1.56770       -6.79880        3.48860
C         -2.46370       -7.92750        4.00270
C         -2.33980       -4.70400        4.63870
C         -3.05690       -3.52200        4.66960
C         -6.13250       -0.44390        8.23850
C         -6.80660       -1.40830        8.93630
C         -7.82400       -0.99870        9.93790
O         -8.00900        0.11500       10.37440
C         -8.58550       -2.22970       10.24160
C         -9.70350       -2.38340       11.03720
C        -10.27840       -3.64260       11.17390
C        -11.48520       -3.88220       12.02090
C         -9.68410       -4.70270       10.48680
F        -10.24260       -5.92260       10.60340
C         -8.55680       -4.57920        9.69070
C         -8.00050       -3.31710        9.56940
C         -6.80960       -2.84840        8.86360
C         -5.76760       -3.64560        8.45910
C         -5.80090       -5.05330        8.45610
N         -5.78440       -6.20010        8.40190
C         -4.51020       -3.13370        8.08990
N         -3.45570       -2.75930        7.83170
H          6.98190       -0.81690       -8.38060
H         11.45040        1.03260      -10.58360
H         12.68220        3.21900      -10.50340
H          9.51530        4.98910       -8.25420
H          6.99470        1.97530       -5.70390
H          6.56650        3.83870       -3.87020
H          6.44410        6.03710       -4.96190
H          5.24480        7.39340       -6.66670
H          3.49230        7.23280       -6.84960
H          4.05890        9.28420       -5.56510
H          4.91760        8.31080       -4.36700
H          3.17080        8.14540       -4.54640
H          2.32250        5.37650       -5.82510
H          2.44390        3.17520       -4.75670
H          4.55950        3.63570       -1.60270
H          5.74510        3.48730        0.54180
H          7.69010        2.60210        1.77200
H          8.50120        1.12710        1.22540
H          6.50750       -0.21480        1.89560
H          5.69400        1.25400        2.43280
H          7.14780        0.69440        3.26860
H          7.79070        0.00520       -0.83040
H          6.59280        0.13840       -2.96620
H         -1.86790        3.57190        1.44100
H         -0.87070        5.44320        2.93990
H          1.37150        6.09260        4.09540
H          2.58750        4.80820        4.17580
H          3.54250        6.83250        3.11050
H          3.47200        5.50250        1.94770
H          2.27820        6.79990        1.87660
H         -1.06530       -0.73420       -4.13270
H         -1.56570       -3.03090       -5.23510
H         -1.68410       -5.55420       -4.62610
H         -0.86950       -5.99600       -3.11770
H         -2.98860       -5.62080       -1.85710
H         -3.19930       -6.84240       -3.11770
H         -3.81210       -5.20300       -3.36110
H         -6.20610       -2.35060        6.07550
H         -6.39630       -3.70010        3.84080
H         -8.57600       -3.90950        2.73060
H        -10.00970       -1.34880        0.48750
H        -10.37060       -2.77590        1.46960
H        -10.39830       -3.34120       -0.94920
H         -9.08690       -4.19760       -0.13130
H         -8.73210       -2.77560       -1.11160
H         -7.76730       -0.37770        0.48190
H         -5.60290       -0.15180        1.60440
H         -4.31470       -3.59350        1.53890
H         -3.02040       -5.67450        1.48590
H         -0.68430       -6.72330        4.12560
H         -1.23990       -7.03060        2.47320
H         -2.79830       -7.71300        5.01500
H         -3.34110       -8.03250        3.36820
H         -1.92300       -8.87100        4.00760
H         -1.78670       -5.00680        5.51570
H         -3.04820       -2.92060        5.56630
H         -6.19920        0.55070        8.66960
H        -10.12110       -1.52900       11.54770
H        -11.85250       -2.95130       12.44240
H        -11.24320       -4.56890       12.83180
H        -12.27470       -4.34500       11.43000
H         -8.15870       -5.44850        9.19290
