
  xtb     02012223013D
 energy: -166.308368412135 gnorm: 0.000402562799 xtb: 6.4.1 (unknown)
101109  0     0  0            999 V2000
   -0.0288   -6.2251    1.1251 C   0  0  0  0  0  0  0  0  0  0  0  0
    0.5389   -6.8990    0.0865 C   0  0  0  0  0  0  0  0  0  0  0  0
    0.5484   -6.5534   -1.3606 C   0  0  0  0  0  0  0  0  0  0  0  0
    0.2230   -5.5214   -1.9051 O   0  0  0  0  0  0  0  0  0  0  0  0
    1.0107   -7.7719   -2.0556 C   0  0  0  0  0  0  0  0  0  0  0  0
    1.1357   -7.9783   -3.4173 C   0  0  0  0  0  0  0  0  0  0  0  0
    1.5890   -9.2098   -3.8596 C   0  0  0  0  0  0  0  0  0  0  0  0
    1.8974  -10.1896   -2.9261 C   0  0  0  0  0  0  0  0  0  0  0  0
    2.3294  -11.3794   -3.3720 F   0  0  0  0  0  0  0  0  0  0  0  0
    1.7809  -10.0051   -1.5558 C   0  0  0  0  0  0  0  0  0  0  0  0
    1.3297   -8.7690   -1.1199 C   0  0  0  0  0  0  0  0  0  0  0  0
    1.0993   -8.2407    0.2219 C   0  0  0  0  0  0  0  0  0  0  0  0
    1.4314   -8.8808    1.3839 C   0  0  0  0  0  0  0  0  0  0  0  0
    1.3029   -8.3575    2.6902 C   0  0  0  0  0  0  0  0  0  0  0  0
    1.2546   -8.0161    3.7854 N   0  0  0  0  0  0  0  0  0  0  0  0
    1.9929  -10.1760    1.4406 C   0  0  0  0  0  0  0  0  0  0  0  0
    2.4443  -11.2238    1.5623 N   0  0  0  0  0  0  0  0  0  0  0  0
   -0.5902   -4.9079    1.2302 C   0  0  0  0  0  0  0  0  0  0  0  0
   -1.4505   -4.6685    2.3196 C   0  0  0  0  0  0  0  0  0  0  0  0
   -2.0427   -3.4375    2.5225 C   0  0  0  0  0  0  0  0  0  0  0  0
   -1.7637   -2.4078    1.6424 C   0  0  0  0  0  0  0  0  0  0  0  0
   -2.2768   -0.9827    1.6480 C   0  0  0  0  0  0  0  0  0  0  0  0
   -3.8233   -1.0316    1.5756 C   0  0  0  0  0  0  0  0  0  0  0  0
   -4.5179    0.1209    0.8606 C   0  0  0  0  0  0  0  0  0  0  0  0
   -1.7504   -0.3255    2.9464 C   0  0  0  0  0  0  0  0  0  0  0  0
   -2.1350    1.1270    3.1893 C   0  0  0  0  0  0  0  0  0  0  0  0
   -1.5992   -0.4187    0.4144 C   0  0  0  0  0  0  0  0  0  0  0  0
   -0.7810   -1.3914   -0.1881 C   0  0  0  0  0  0  0  0  0  0  0  0
   -0.8890   -2.6245    0.5683 C   0  0  0  0  0  0  0  0  0  0  0  0
   -0.2964   -3.8529    0.3570 C   0  0  0  0  0  0  0  0  0  0  0  0
   -0.0199   -1.1328   -1.3203 C   0  0  0  0  0  0  0  0  0  0  0  0
   -0.0937    0.1306   -1.8686 C   0  0  0  0  0  0  0  0  0  0  0  0
   -0.8898    1.1108   -1.2559 C   0  0  0  0  0  0  0  0  0  0  0  0
   -1.6477    0.8528   -0.1205 C   0  0  0  0  0  0  0  0  0  0  0  0
   -0.7127    2.3579   -1.9730 C   0  0  0  0  0  0  0  0  0  0  0  0
   -1.2420    3.6060   -1.7236 C   0  0  0  0  0  0  0  0  0  0  0  0
   -0.8643    4.6807   -2.5358 C   0  0  0  0  0  0  0  0  0  0  0  0
   -0.0449    4.4422   -3.6443 C   0  0  0  0  0  0  0  0  0  0  0  0
    0.4784    3.1853   -3.8955 C   0  0  0  0  0  0  0  0  0  0  0  0
    0.1848    2.1462   -3.0342 C   0  0  0  0  0  0  0  0  0  0  0  0
    0.6539    0.7082   -3.0549 C   0  0  0  0  0  0  0  0  0  0  0  0
    0.2285    0.0774   -4.3974 C   0  0  0  0  0  0  0  0  0  0  0  0
    0.5804   -1.3927   -4.5854 C   0  0  0  0  0  0  0  0  0  0  0  0
    2.1644    0.5921   -2.7545 C   0  0  0  0  0  0  0  0  0  0  0  0
    3.1049    1.1730   -3.8018 C   0  0  0  0  0  0  0  0  0  0  0  0
   -1.3126    6.0230   -2.2614 C   0  0  0  0  0  0  0  0  0  0  0  0
   -1.5924    6.5752   -1.0586 C   0  0  0  0  0  0  0  0  0  0  0  0
   -2.3666    7.8469   -0.9851 C   0  0  0  0  0  0  0  0  0  0  0  0
   -2.5837    8.6173   -1.8905 O   0  0  0  0  0  0  0  0  0  0  0  0
   -2.8527    7.9199    0.4079 C   0  0  0  0  0  0  0  0  0  0  0  0
   -3.7088    8.8439    0.9759 C   0  0  0  0  0  0  0  0  0  0  0  0
   -4.0635    8.7173    2.3140 C   0  0  0  0  0  0  0  0  0  0  0  0
   -4.9732    9.6862    2.9942 C   0  0  0  0  0  0  0  0  0  0  0  0
   -3.5300    7.6389    3.0246 C   0  0  0  0  0  0  0  0  0  0  0  0
   -3.8827    7.4981    4.3155 F   0  0  0  0  0  0  0  0  0  0  0  0
   -2.6628    6.7041    2.4847 C   0  0  0  0  0  0  0  0  0  0  0  0
   -2.3154    6.8528    1.1510 C   0  0  0  0  0  0  0  0  0  0  0  0
   -1.4008    6.0962    0.3017 C   0  0  0  0  0  0  0  0  0  0  0  0
   -0.4011    5.2767    0.7484 C   0  0  0  0  0  0  0  0  0  0  0  0
   -0.2765    4.8516    2.0872 C   0  0  0  0  0  0  0  0  0  0  0  0
   -0.1627    4.4390    3.1522 N   0  0  0  0  0  0  0  0  0  0  0  0
    0.6593    4.8048   -0.0568 C   0  0  0  0  0  0  0  0  0  0  0  0
    1.5941    4.4568   -0.6239 N   0  0  0  0  0  0  0  0  0  0  0  0
   -0.1100   -6.7858    2.0502 H   0  0  0  0  0  0  0  0  0  0  0  0
    0.8827   -7.1897   -4.1087 H   0  0  0  0  0  0  0  0  0  0  0  0
    1.7066   -9.4252   -4.9098 H   0  0  0  0  0  0  0  0  0  0  0  0
    2.0342  -10.8120   -0.8885 H   0  0  0  0  0  0  0  0  0  0  0  0
   -1.6615   -5.4769    3.0047 H   0  0  0  0  0  0  0  0  0  0  0  0
   -2.7095   -3.2908    3.3591 H   0  0  0  0  0  0  0  0  0  0  0  0
   -4.1011   -1.9530    1.0560 H   0  0  0  0  0  0  0  0  0  0  0  0
   -4.2060   -1.1056    2.5957 H   0  0  0  0  0  0  0  0  0  0  0  0
   -4.3107    1.0762    1.3327 H   0  0  0  0  0  0  0  0  0  0  0  0
   -4.2108    0.1702   -0.1810 H   0  0  0  0  0  0  0  0  0  0  0  0
   -5.5938   -0.0424    0.8890 H   0  0  0  0  0  0  0  0  0  0  0  0
   -0.6596   -0.4005    2.9335 H   0  0  0  0  0  0  0  0  0  0  0  0
   -2.1097   -0.9249    3.7865 H   0  0  0  0  0  0  0  0  0  0  0  0
   -1.7274    1.7774    2.4214 H   0  0  0  0  0  0  0  0  0  0  0  0
   -3.2137    1.2497    3.2326 H   0  0  0  0  0  0  0  0  0  0  0  0
   -1.7216    1.4492    4.1425 H   0  0  0  0  0  0  0  0  0  0  0  0
    0.3849   -3.9931   -0.4628 H   0  0  0  0  0  0  0  0  0  0  0  0
    0.6098   -1.9049   -1.7320 H   0  0  0  0  0  0  0  0  0  0  0  0
   -2.2444    1.6381    0.3133 H   0  0  0  0  0  0  0  0  0  0  0  0
   -1.9562    3.7526   -0.9262 H   0  0  0  0  0  0  0  0  0  0  0  0
    0.2136    5.2691   -4.2892 H   0  0  0  0  0  0  0  0  0  0  0  0
    1.1094    3.0383   -4.7580 H   0  0  0  0  0  0  0  0  0  0  0  0
   -0.8553    0.1945   -4.4859 H   0  0  0  0  0  0  0  0  0  0  0  0
    0.6828    0.6577   -5.2024 H   0  0  0  0  0  0  0  0  0  0  0  0
    0.2927   -1.7039   -5.5878 H   0  0  0  0  0  0  0  0  0  0  0  0
    0.0470   -2.0184   -3.8761 H   0  0  0  0  0  0  0  0  0  0  0  0
    1.6479   -1.5625   -4.4744 H   0  0  0  0  0  0  0  0  0  0  0  0
    2.3457    1.0985   -1.8029 H   0  0  0  0  0  0  0  0  0  0  0  0
    2.3964   -0.4644   -2.6111 H   0  0  0  0  0  0  0  0  0  0  0  0
    2.9254    0.7436   -4.7841 H   0  0  0  0  0  0  0  0  0  0  0  0
    3.0024    2.2525   -3.8594 H   0  0  0  0  0  0  0  0  0  0  0  0
    4.1323    0.9512   -3.5202 H   0  0  0  0  0  0  0  0  0  0  0  0
   -1.4832    6.6663   -3.1188 H   0  0  0  0  0  0  0  0  0  0  0  0
   -4.0928    9.6566    0.3785 H   0  0  0  0  0  0  0  0  0  0  0  0
   -5.7836    9.1577    3.4944 H   0  0  0  0  0  0  0  0  0  0  0  0
   -5.3894   10.3917    2.2814 H   0  0  0  0  0  0  0  0  0  0  0  0
   -4.4259   10.2373    3.7589 H   0  0  0  0  0  0  0  0  0  0  0  0
   -2.2969    5.8997    3.1018 H   0  0  0  0  0  0  0  0  0  0  0  0
  1  2  2  0  0  0  0
  2  3  1  0  0  0  0
  3  4  2  0  0  0  0
  3  5  1  0  0  0  0
  5  6  2  0  0  0  0
  6  7  1  0  0  0  0
  7  8  2  0  0  0  0
  8  9  1  0  0  0  0
  8 10  1  0  0  0  0
 10 11  2  0  0  0  0
 11 12  1  0  0  0  0
 12 13  2  0  0  0  0
 13 14  1  0  0  0  0
 14 15  3  0  0  0  0
 13 16  1  0  0  0  0
 16 17  3  0  0  0  0
  1 18  1  0  0  0  0
 18 19  2  0  0  0  0
 19 20  1  0  0  0  0
 20 21  2  0  0  0  0
 21 22  1  0  0  0  0
 22 23  1  0  0  0  0
 23 24  1  0  0  0  0
 22 25  1  0  0  0  0
 25 26  1  0  0  0  0
 22 27  1  0  0  0  0
 27 28  2  0  0  0  0
 28 29  1  0  0  0  0
 29 30  2  0  0  0  0
 28 31  1  0  0  0  0
 31 32  2  0  0  0  0
 32 33  1  0  0  0  0
 33 34  2  0  0  0  0
 33 35  1  0  0  0  0
 35 36  2  0  0  0  0
 36 37  1  0  0  0  0
 37 38  2  0  0  0  0
 38 39  1  0  0  0  0
 39 40  2  0  0  0  0
 40 41  1  0  0  0  0
 41 42  1  0  0  0  0
 42 43  1  0  0  0  0
 41 44  1  0  0  0  0
 44 45  1  0  0  0  0
 37 46  1  0  0  0  0
 46 47  2  0  0  0  0
 47 48  1  0  0  0  0
 48 49  2  0  0  0  0
 48 50  1  0  0  0  0
 50 51  2  0  0  0  0
 51 52  1  0  0  0  0
 52 53  1  0  0  0  0
 52 54  2  0  0  0  0
 54 55  1  0  0  0  0
 54 56  1  0  0  0  0
 56 57  2  0  0  0  0
 57 58  1  0  0  0  0
 58 59  2  0  0  0  0
 59 60  1  0  0  0  0
 60 61  3  0  0  0  0
 59 62  1  0  0  0  0
 62 63  3  0  0  0  0
 12  2  1  0  0  0  0
 30 18  1  0  0  0  0
 41 32  1  0  0  0  0
 58 47  1  0  0  0  0
 11  5  1  0  0  0  0
 29 21  1  0  0  0  0
 40 35  1  0  0  0  0
 57 50  1  0  0  0  0
 34 27  1  0  0  0  0
  1 64  1  0  0  0  0
  6 65  1  0  0  0  0
  7 66  1  0  0  0  0
 10 67  1  0  0  0  0
 19 68  1  0  0  0  0
 20 69  1  0  0  0  0
 23 70  1  0  0  0  0
 23 71  1  0  0  0  0
 24 72  1  0  0  0  0
 24 73  1  0  0  0  0
 24 74  1  0  0  0  0
 25 75  1  0  0  0  0
 25 76  1  0  0  0  0
 26 77  1  0  0  0  0
 26 78  1  0  0  0  0
 26 79  1  0  0  0  0
 30 80  1  0  0  0  0
 31 81  1  0  0  0  0
 34 82  1  0  0  0  0
 36 83  1  0  0  0  0
 38 84  1  0  0  0  0
 39 85  1  0  0  0  0
 42 86  1  0  0  0  0
 42 87  1  0  0  0  0
 43 88  1  0  0  0  0
 43 89  1  0  0  0  0
 43 90  1  0  0  0  0
 44 91  1  0  0  0  0
 44 92  1  0  0  0  0
 45 93  1  0  0  0  0
 45 94  1  0  0  0  0
 45 95  1  0  0  0  0
 46 96  1  0  0  0  0
 51 97  1  0  0  0  0
 53 98  1  0  0  0  0
 53 99  1  0  0  0  0
 53100  1  0  0  0  0
 56101  1  0  0  0  0
M  END
