93

C          3.04200       -4.78580        4.13630
C          3.64090       -5.08840        5.32880
C          4.00870       -4.07260        6.34290
O          3.96070       -2.86640        6.23680
C          4.29800       -4.83880        7.57310
C          4.65430       -4.35970        8.81940
C          4.85450       -5.26980        9.84530
C          4.68280       -6.62260        9.59130
F          4.87080       -7.48890       10.59980
C          4.32200       -7.12790        8.34950
C          4.12980       -6.21320        7.32790
C          3.75160       -6.39790        5.92820
C          3.62610       -7.59650        5.27520
C          3.77690       -8.85420        5.89390
N          3.88350       -9.90280        6.34850
C          3.36870       -7.71820        3.89340
N          3.18650       -7.88090        2.77150
C          3.10780       -3.54630        3.46190
C          4.17590       -2.68270        3.24770
C          5.59250       -2.92510        3.65760
C          6.15770       -1.78400        4.50320
C          3.79740       -1.60980        2.43020
S          4.68190       -0.23810        1.79840
C          3.23710        0.31350        1.02880
C          2.80440        1.36810        0.21400
C          3.52550        2.41850       -0.39530
C          2.83350        3.31040       -1.27790
N          3.63780        4.21130       -1.81940
S          5.13710        3.96110       -1.26240
N          4.81760        2.69210       -0.30870
C          1.43440        3.17860       -1.41940
C          0.50240        3.98700       -2.08280
S          0.47120        5.39720       -3.08390
C         -1.28120        5.32470       -3.07410
C         -2.25490        6.14080       -3.64090
C         -1.93040        7.31700       -4.50310
C         -1.98920        6.93800       -5.98520
C         -3.54320        5.68620       -3.33480
S         -3.51990        4.23470       -2.33280
C         -1.79650        4.24940       -2.33340
C         -0.76600        3.48340       -1.77560
N         -0.65000        2.37610       -0.98020
C          0.69670        2.15920       -0.74690
C          1.41000        1.17500       -0.01130
N          1.02810        0.00070        0.61730
C          2.13130       -0.51700        1.24190
C          2.45450       -1.62770        2.02550
S          1.65050       -3.03550        2.60590
C         -0.12620       -0.84250        0.39650
C         -0.26250       -1.23240       -1.07290
C         -1.81460        1.87570       -0.28440
C         -1.75600        2.19700        1.20680
C         -4.72520        6.30790       -3.76270
C         -6.03060        5.97620       -3.53570
C         -6.59110        4.87100       -2.76570
O         -5.98980        3.99910       -2.16130
C         -8.06410        5.01720       -2.85480
C         -9.05780        4.23410       -2.29940
C        -10.38010        4.59000       -2.53490
C        -10.69500        5.70020       -3.30540
C         -9.69730        6.48980       -3.86450
C         -8.38170        6.13870       -3.63220
C         -7.12970        6.78850       -4.09320
O         -7.02370        7.77940       -4.78390
H          2.40390       -5.53200        3.67580
H          4.77310       -3.29930        8.97860
H          5.13720       -4.95000       10.83570
H          4.19710       -8.19040        8.22090
H          5.66290       -3.86490        4.20600
H          6.18970       -3.01800        2.74440
H          7.17380       -2.02180        4.80720
H          5.54800       -1.64190        5.39060
H          6.17230       -0.85730        3.93610
H         -0.92010        7.65160       -4.25910
H         -2.62070        8.13860       -4.30620
H         -1.28890        6.13320       -6.19580
H         -1.72650        7.79560       -6.59880
H         -2.98850        6.60740       -6.25870
H         -1.03110       -0.36370        0.77140
H          0.03020       -1.74380        0.99440
H          0.61210       -1.79530       -1.39050
H         -1.14240       -1.85510       -1.20980
H         -0.34990       -0.35440       -1.70840
H         -1.93870        0.80750       -0.46310
H         -2.67950        2.37690       -0.72540
H         -2.63250        1.79360        1.70620
H         -1.74170        3.27450        1.35260
H         -0.86320        1.78080        1.66820
H         -4.59140        7.19710       -4.37160
H         -8.80420        3.37220       -1.70120
H        -11.17550        3.99410       -2.11200
H        -11.73150        5.95380       -3.47240
H         -9.93360        7.35510       -4.46460
