
  xtb     02012223333D
 energy: -255.696419967115 gnorm: 0.000187008294 xtb: 6.4.1 (unknown)
140155  0     0  0            999 V2000
    0.1598    3.1065    8.8393 C   0  0  0  0  0  0  0  0  0  0  0  0
   -0.8213    3.4183    9.7426 C   0  0  0  0  0  0  0  0  0  0  0  0
   -2.2246    2.9445    9.7835 C   0  0  0  0  0  0  0  0  0  0  0  0
   -2.7424    2.0369    9.1668 O   0  0  0  0  0  0  0  0  0  0  0  0
   -2.9117    3.8237   10.7506 C   0  0  0  0  0  0  0  0  0  0  0  0
   -4.2520    3.8394   11.0892 C   0  0  0  0  0  0  0  0  0  0  0  0
   -4.6880    4.7715   12.0168 C   0  0  0  0  0  0  0  0  0  0  0  0
   -3.7695    5.6516   12.5707 C   0  0  0  0  0  0  0  0  0  0  0  0
   -4.2096    6.5542   13.4612 F   0  0  0  0  0  0  0  0  0  0  0  0
   -2.4185    5.6503   12.2509 C   0  0  0  0  0  0  0  0  0  0  0  0
   -1.9894    4.7146   11.3239 C   0  0  0  0  0  0  0  0  0  0  0  0
   -0.6655    4.4374   10.7685 C   0  0  0  0  0  0  0  0  0  0  0  0
    0.5020    5.0065   11.2024 C   0  0  0  0  0  0  0  0  0  0  0  0
    1.8008    4.6811   10.7538 C   0  0  0  0  0  0  0  0  0  0  0  0
    2.8923    4.4668   10.4684 N   0  0  0  0  0  0  0  0  0  0  0  0
    0.5726    5.9910   12.2122 C   0  0  0  0  0  0  0  0  0  0  0  0
    0.7022    6.7967   13.0190 N   0  0  0  0  0  0  0  0  0  0  0  0
    0.1845    2.2011    7.7615 C   0  0  0  0  0  0  0  0  0  0  0  0
   -0.6931    1.2099    7.3457 C   0  0  0  0  0  0  0  0  0  0  0  0
   -0.2714    0.6059    6.1710 C   0  0  0  0  0  0  0  0  0  0  0  0
   -0.9432   -0.6144    5.1357 S   0  0  0  0  0  0  0  0  0  0  0  0
    0.3748   -0.3989    4.0193 C   0  0  0  0  0  0  0  0  0  0  0  0
    0.4874   -0.8760    2.6946 C   0  0  0  0  0  0  0  0  0  0  0  0
    1.6363   -0.5680    1.9810 C   0  0  0  0  0  0  0  0  0  0  0  0
    2.8316   -0.0236    2.7226 C   0  0  0  0  0  0  0  0  0  0  0  0
    2.3807    0.9166    3.7225 O   0  0  0  0  0  0  0  0  0  0  0  0
    1.3165    0.5373    4.4476 C   0  0  0  0  0  0  0  0  0  0  0  0
    0.9414    1.1095    5.6669 C   0  0  0  0  0  0  0  0  0  0  0  0
    1.5815    2.3375    6.6819 S   0  0  0  0  0  0  0  0  0  0  0  0
    3.7306    0.7319    1.7634 C   0  0  0  0  0  0  0  0  0  0  0  0
    4.8278    0.1160    1.1765 C   0  0  0  0  0  0  0  0  0  0  0  0
    5.5945    0.7998    0.2517 C   0  0  0  0  0  0  0  0  0  0  0  0
    5.2863    2.1051   -0.1081 C   0  0  0  0  0  0  0  0  0  0  0  0
    6.1477    2.8518   -1.0841 C   0  0  0  0  0  0  0  0  0  0  0  0
    7.3177    3.5199   -0.3589 C   0  0  0  0  0  0  0  0  0  0  0  0
    4.1917    2.7156    0.4904 C   0  0  0  0  0  0  0  0  0  0  0  0
    3.4166    2.0373    1.4115 C   0  0  0  0  0  0  0  0  0  0  0  0
    3.5788   -1.1461    3.4324 C   0  0  0  0  0  0  0  0  0  0  0  0
    4.4004   -0.8223    4.5042 C   0  0  0  0  0  0  0  0  0  0  0  0
    5.0917   -1.8103    5.1778 C   0  0  0  0  0  0  0  0  0  0  0  0
    4.9885   -3.1412    4.7923 C   0  0  0  0  0  0  0  0  0  0  0  0
    5.7063   -4.2178    5.5530 C   0  0  0  0  0  0  0  0  0  0  0  0
    4.8411   -4.7203    6.7109 C   0  0  0  0  0  0  0  0  0  0  0  0
    4.1709   -3.4563    3.7152 C   0  0  0  0  0  0  0  0  0  0  0  0
    3.4711   -2.4726    3.0405 C   0  0  0  0  0  0  0  0  0  0  0  0
    1.4769   -0.8414    0.6229 C   0  0  0  0  0  0  0  0  0  0  0  0
    2.4344   -0.5601   -0.7917 S   0  0  0  0  0  0  0  0  0  0  0  0
    1.1275   -1.1584   -1.7839 C   0  0  0  0  0  0  0  0  0  0  0  0
    0.9887   -1.0312   -3.1827 C   0  0  0  0  0  0  0  0  0  0  0  0
   -0.2964   -1.1510   -3.7166 C   0  0  0  0  0  0  0  0  0  0  0  0
   -1.3787   -1.4840   -2.9942 O   0  0  0  0  0  0  0  0  0  0  0  0
   -1.1232   -2.2338   -1.7862 C   0  0  0  0  0  0  0  0  0  0  0  0
   -0.7943   -3.6683   -2.1820 C   0  0  0  0  0  0  0  0  0  0  0  0
    0.1816   -4.4117   -1.5339 C   0  0  0  0  0  0  0  0  0  0  0  0
    0.4460   -5.7094   -1.9320 C   0  0  0  0  0  0  0  0  0  0  0  0
   -0.2518   -6.2917   -2.9819 C   0  0  0  0  0  0  0  0  0  0  0  0
    0.0762   -7.6813   -3.4448 C   0  0  0  0  0  0  0  0  0  0  0  0
    1.1542   -7.6405   -4.5302 C   0  0  0  0  0  0  0  0  0  0  0  0
   -1.2291   -5.5413   -3.6238 C   0  0  0  0  0  0  0  0  0  0  0  0
   -1.5027   -4.2469   -3.2270 C   0  0  0  0  0  0  0  0  0  0  0  0
   -2.3734   -2.1575   -0.9321 C   0  0  0  0  0  0  0  0  0  0  0  0
   -2.7615   -3.2274   -0.1369 C   0  0  0  0  0  0  0  0  0  0  0  0
   -3.8652   -3.1144    0.6873 C   0  0  0  0  0  0  0  0  0  0  0  0
   -4.6024   -1.9388    0.7385 C   0  0  0  0  0  0  0  0  0  0  0  0
   -5.8219   -1.8395    1.6076 C   0  0  0  0  0  0  0  0  0  0  0  0
   -7.0513   -2.3632    0.8621 C   0  0  0  0  0  0  0  0  0  0  0  0
   -4.2113   -0.8767   -0.0665 C   0  0  0  0  0  0  0  0  0  0  0  0
   -3.1057   -0.9793   -0.8889 C   0  0  0  0  0  0  0  0  0  0  0  0
    0.0372   -1.6086   -1.0528 C   0  0  0  0  0  0  0  0  0  0  0  0
    0.2249   -1.4032    0.3131 C   0  0  0  0  0  0  0  0  0  0  0  0
   -0.7709   -1.5910    1.7179 S   0  0  0  0  0  0  0  0  0  0  0  0
   -0.3230   -0.7653   -5.0584 C   0  0  0  0  0  0  0  0  0  0  0  0
    0.9344   -0.3625   -5.5497 C   0  0  0  0  0  0  0  0  0  0  0  0
    2.1720   -0.4940   -4.3390 S   0  0  0  0  0  0  0  0  0  0  0  0
    0.9165    0.0881   -6.8580 C   0  0  0  0  0  0  0  0  0  0  0  0
   -0.3627    0.0513   -7.4025 C   0  0  0  0  0  0  0  0  0  0  0  0
   -1.5437   -0.6066   -6.2551 S   0  0  0  0  0  0  0  0  0  0  0  0
   -0.8809    0.4430   -8.6464 C   0  0  0  0  0  0  0  0  0  0  0  0
   -0.3281    1.1508   -9.6865 C   0  0  0  0  0  0  0  0  0  0  0  0
    0.9904    1.8150   -9.7382 C   0  0  0  0  0  0  0  0  0  0  0  0
    1.9281    1.7107   -8.9806 O   0  0  0  0  0  0  0  0  0  0  0  0
    0.9441    2.6779  -10.9462 C   0  0  0  0  0  0  0  0  0  0  0  0
   -0.2728    2.4898  -11.6219 C   0  0  0  0  0  0  0  0  0  0  0  0
   -0.5565    3.2049  -12.7732 C   0  0  0  0  0  0  0  0  0  0  0  0
    0.3943    4.1047  -13.2334 C   0  0  0  0  0  0  0  0  0  0  0  0
    0.1384    4.8111  -14.3370 F   0  0  0  0  0  0  0  0  0  0  0  0
    1.6083    4.2986  -12.5783 C   0  0  0  0  0  0  0  0  0  0  0  0
    2.4973    5.1746  -13.0540 F   0  0  0  0  0  0  0  0  0  0  0  0
    1.8875    3.5734  -11.4178 C   0  0  0  0  0  0  0  0  0  0  0  0
    3.0447    3.7645  -10.7921 F   0  0  0  0  0  0  0  0  0  0  0  0
   -1.0559    1.4908  -10.8934 C   0  0  0  0  0  0  0  0  0  0  0  0
   -2.2350    0.9486  -11.3358 C   0  0  0  0  0  0  0  0  0  0  0  0
   -2.9578   -0.0874  -10.7048 C   0  0  0  0  0  0  0  0  0  0  0  0
   -3.5995   -0.9391  -10.2787 N   0  0  0  0  0  0  0  0  0  0  0  0
   -2.8819    1.3286  -12.5312 C   0  0  0  0  0  0  0  0  0  0  0  0
   -3.4622    1.5945  -13.4850 N   0  0  0  0  0  0  0  0  0  0  0  0
    1.0731    3.6854    8.9162 H   0  0  0  0  0  0  0  0  0  0  0  0
   -4.9333    3.1387   10.6326 H   0  0  0  0  0  0  0  0  0  0  0  0
   -5.7226    4.8303   12.3154 H   0  0  0  0  0  0  0  0  0  0  0  0
   -1.7622    6.3652   12.7182 H   0  0  0  0  0  0  0  0  0  0  0  0
   -1.5986    0.9712    7.8717 H   0  0  0  0  0  0  0  0  0  0  0  0
    5.0820   -0.8999    1.4398 H   0  0  0  0  0  0  0  0  0  0  0  0
    6.4428    0.3080   -0.2015 H   0  0  0  0  0  0  0  0  0  0  0  0
    5.5561    3.6147   -1.5932 H   0  0  0  0  0  0  0  0  0  0  0  0
    6.5365    2.1621   -1.8357 H   0  0  0  0  0  0  0  0  0  0  0  0
    6.9500    4.2205    0.3873 H   0  0  0  0  0  0  0  0  0  0  0  0
    7.9432    4.0604   -1.0652 H   0  0  0  0  0  0  0  0  0  0  0  0
    7.9270    2.7730    0.1449 H   0  0  0  0  0  0  0  0  0  0  0  0
    3.9369    3.7317    0.2259 H   0  0  0  0  0  0  0  0  0  0  0  0
    2.5650    2.5204    1.8665 H   0  0  0  0  0  0  0  0  0  0  0  0
    4.4916    0.2107    4.8061 H   0  0  0  0  0  0  0  0  0  0  0  0
    5.7254   -1.5433    6.0109 H   0  0  0  0  0  0  0  0  0  0  0  0
    5.9362   -5.0520    4.8873 H   0  0  0  0  0  0  0  0  0  0  0  0
    6.6452   -3.8270    5.9495 H   0  0  0  0  0  0  0  0  0  0  0  0
    4.6120   -3.9053    7.3938 H   0  0  0  0  0  0  0  0  0  0  0  0
    3.9040   -5.1255    6.3356 H   0  0  0  0  0  0  0  0  0  0  0  0
    5.3608   -5.4999    7.2625 H   0  0  0  0  0  0  0  0  0  0  0  0
    4.0798   -4.4851    3.3976 H   0  0  0  0  0  0  0  0  0  0  0  0
    2.8454   -2.7431    2.2021 H   0  0  0  0  0  0  0  0  0  0  0  0
    0.7354   -3.9829   -0.7113 H   0  0  0  0  0  0  0  0  0  0  0  0
    1.2072   -6.2778   -1.4172 H   0  0  0  0  0  0  0  0  0  0  0  0
    0.4349   -8.2776   -2.6036 H   0  0  0  0  0  0  0  0  0  0  0  0
   -0.8198   -8.1586   -3.8460 H   0  0  0  0  0  0  0  0  0  0  0  0
    2.0609   -7.1781   -4.1465 H   0  0  0  0  0  0  0  0  0  0  0  0
    1.3926   -8.6467   -4.8664 H   0  0  0  0  0  0  0  0  0  0  0  0
    0.8100   -7.0614   -5.3841 H   0  0  0  0  0  0  0  0  0  0  0  0
   -1.7865   -5.9769   -4.4403 H   0  0  0  0  0  0  0  0  0  0  0  0
   -2.2684   -3.6726   -3.7275 H   0  0  0  0  0  0  0  0  0  0  0  0
   -2.1992   -4.1489   -0.1593 H   0  0  0  0  0  0  0  0  0  0  0  0
   -4.1542   -3.9523    1.3049 H   0  0  0  0  0  0  0  0  0  0  0  0
   -5.6754   -2.4258    2.5168 H   0  0  0  0  0  0  0  0  0  0  0  0
   -5.9898   -0.7998    1.8941 H   0  0  0  0  0  0  0  0  0  0  0  0
   -6.9072   -3.4032    0.5784 H   0  0  0  0  0  0  0  0  0  0  0  0
   -7.2210   -1.7831   -0.0421 H   0  0  0  0  0  0  0  0  0  0  0  0
   -7.9354   -2.2935    1.4912 H   0  0  0  0  0  0  0  0  0  0  0  0
   -4.7734    0.0458   -0.0429 H   0  0  0  0  0  0  0  0  0  0  0  0
   -2.8080   -0.1454   -1.5065 H   0  0  0  0  0  0  0  0  0  0  0  0
    1.7727    0.4484   -7.3970 H   0  0  0  0  0  0  0  0  0  0  0  0
   -1.9238    0.1736   -8.7673 H   0  0  0  0  0  0  0  0  0  0  0  0
   -1.4784    3.1003  -13.3204 H   0  0  0  0  0  0  0  0  0  0  0  0
  1  2  2  0  0  0  0
  2  3  1  0  0  0  0
  3  4  2  0  0  0  0
  3  5  1  0  0  0  0
  5  6  2  0  0  0  0
  6  7  1  0  0  0  0
  7  8  2  0  0  0  0
  8  9  1  0  0  0  0
  8 10  1  0  0  0  0
 10 11  2  0  0  0  0
 11 12  1  0  0  0  0
 12 13  2  0  0  0  0
 13 14  1  0  0  0  0
 14 15  3  0  0  0  0
 13 16  1  0  0  0  0
 16 17  3  0  0  0  0
  1 18  1  0  0  0  0
 18 19  2  0  0  0  0
 19 20  1  0  0  0  0
 20 21  1  0  0  0  0
 21 22  1  0  0  0  0
 22 23  1  0  0  0  0
 23 24  2  0  0  0  0
 24 25  1  0  0  0  0
 25 26  1  0  0  0  0
 26 27  1  0  0  0  0
 27 28  1  0  0  0  0
 28 29  1  0  0  0  0
 25 30  1  0  0  0  0
 30 31  2  0  0  0  0
 31 32  1  0  0  0  0
 32 33  2  0  0  0  0
 33 34  1  0  0  0  0
 34 35  1  0  0  0  0
 33 36  1  0  0  0  0
 36 37  2  0  0  0  0
 25 38  1  0  0  0  0
 38 39  2  0  0  0  0
 39 40  1  0  0  0  0
 40 41  2  0  0  0  0
 41 42  1  0  0  0  0
 42 43  1  0  0  0  0
 41 44  1  0  0  0  0
 44 45  2  0  0  0  0
 24 46  1  0  0  0  0
 46 47  1  0  0  0  0
 47 48  1  0  0  0  0
 48 49  1  0  0  0  0
 49 50  2  0  0  0  0
 50 51  1  0  0  0  0
 51 52  1  0  0  0  0
 52 53  1  0  0  0  0
 53 54  2  0  0  0  0
 54 55  1  0  0  0  0
 55 56  2  0  0  0  0
 56 57  1  0  0  0  0
 57 58  1  0  0  0  0
 56 59  1  0  0  0  0
 59 60  2  0  0  0  0
 52 61  1  0  0  0  0
 61 62  2  0  0  0  0
 62 63  1  0  0  0  0
 63 64  2  0  0  0  0
 64 65  1  0  0  0  0
 65 66  1  0  0  0  0
 64 67  1  0  0  0  0
 67 68  2  0  0  0  0
 52 69  1  0  0  0  0
 69 70  1  0  0  0  0
 70 71  1  0  0  0  0
 50 72  1  0  0  0  0
 72 73  2  0  0  0  0
 73 74  1  0  0  0  0
 73 75  1  0  0  0  0
 75 76  2  0  0  0  0
 76 77  1  0  0  0  0
 76 78  1  0  0  0  0
 78 79  2  0  0  0  0
 79 80  1  0  0  0  0
 80 81  2  0  0  0  0
 80 82  1  0  0  0  0
 82 83  2  0  0  0  0
 83 84  1  0  0  0  0
 84 85  2  0  0  0  0
 85 86  1  0  0  0  0
 85 87  1  0  0  0  0
 87 88  1  0  0  0  0
 87 89  2  0  0  0  0
 89 90  1  0  0  0  0
 83 91  1  0  0  0  0
 91 92  2  0  0  0  0
 92 93  1  0  0  0  0
 93 94  3  0  0  0  0
 92 95  1  0  0  0  0
 95 96  3  0  0  0  0
 12  2  1  0  0  0  0
 29 18  1  0  0  0  0
 37 30  1  0  0  0  0
 45 38  1  0  0  0  0
 70 46  2  0  0  0  0
 77 72  1  0  0  0  0
 91 79  1  0  0  0  0
 11  5  1  0  0  0  0
 28 20  2  0  0  0  0
 69 48  2  0  0  0  0
 89 82  1  0  0  0  0
 27 22  2  0  0  0  0
 74 49  1  0  0  0  0
 71 23  1  0  0  0  0
 60 53  1  0  0  0  0
 68 61  1  0  0  0  0
  1 97  1  0  0  0  0
  6 98  1  0  0  0  0
  7 99  1  0  0  0  0
 10100  1  0  0  0  0
 19101  1  0  0  0  0
 31102  1  0  0  0  0
 32103  1  0  0  0  0
 34104  1  0  0  0  0
 34105  1  0  0  0  0
 35106  1  0  0  0  0
 35107  1  0  0  0  0
 35108  1  0  0  0  0
 36109  1  0  0  0  0
 37110  1  0  0  0  0
 39111  1  0  0  0  0
 40112  1  0  0  0  0
 42113  1  0  0  0  0
 42114  1  0  0  0  0
 43115  1  0  0  0  0
 43116  1  0  0  0  0
 43117  1  0  0  0  0
 44118  1  0  0  0  0
 45119  1  0  0  0  0
 54120  1  0  0  0  0
 55121  1  0  0  0  0
 57122  1  0  0  0  0
 57123  1  0  0  0  0
 58124  1  0  0  0  0
 58125  1  0  0  0  0
 58126  1  0  0  0  0
 59127  1  0  0  0  0
 60128  1  0  0  0  0
 62129  1  0  0  0  0
 63130  1  0  0  0  0
 65131  1  0  0  0  0
 65132  1  0  0  0  0
 66133  1  0  0  0  0
 66134  1  0  0  0  0
 66135  1  0  0  0  0
 67136  1  0  0  0  0
 68137  1  0  0  0  0
 75138  1  0  0  0  0
 78139  1  0  0  0  0
 84140  1  0  0  0  0
M  END
