97

C          2.60010       -7.38600        1.29910
C          3.48280       -8.36330        0.92970
C          4.59590       -8.15380       -0.02630
O          4.93820       -7.11500       -0.54810
C          5.10280       -9.50630       -0.33750
C          6.13090       -9.86370       -1.18930
C          6.42570      -11.20920       -1.34210
C          5.67710      -12.14770       -0.64710
F          5.97160      -13.44690       -0.81280
C          4.63620      -11.81410        0.20900
C          4.35160      -10.46750        0.36200
C          3.34600       -9.78170        1.17170
C          2.49450      -10.37180        2.06900
C          2.41720      -11.76230        2.29090
N          2.30600      -12.88350        2.50920
C          1.60830       -9.66430        2.90840
N          0.88320       -9.14930        3.63460
C          2.82390       -5.99110        1.26710
C          3.94240       -5.23940        1.61110
C          5.22420       -5.76930        2.16740
C          6.43620       -5.34630        1.33740
C          3.66350       -3.86800        1.54140
S          4.63010       -2.44800        1.87450
C          3.28270       -1.45200        1.45430
C          2.94950       -0.08910        1.38270
C          3.61830        1.09230        1.78040
C          2.91980        2.34970        1.71680
N          3.64160        3.34950        2.19620
S          5.07400        2.77040        2.67680
N          4.83070        1.21670        2.29540
C          1.64190        2.39950        1.11190
C          0.78740        3.45570        0.75880
S          0.67600        5.17020        0.95570
C         -0.80070        5.15380        0.00830
C         -1.67230        6.15890       -0.38430
C         -1.44970        7.59870       -0.05510
C         -0.73860        8.31770       -1.20500
C         -2.72880        5.64550       -1.16110
S         -2.61130        3.89650       -1.37510
C         -1.16960        3.87060       -0.43410
C         -0.26170        2.90590        0.00590
N         -0.10550        1.54570       -0.09560
C          1.03700        1.21700        0.60450
C          1.61550       -0.03540        0.89950
N          1.12230       -1.31840        0.75350
C          2.14250       -2.17780        1.08040
C          2.35480       -3.55630        1.14530
S          1.42260       -4.98160        0.89810
C         -0.26060       -1.72770        0.90550
C         -0.54900       -2.18150        2.33610
C         -0.67140        0.82640       -1.22020
C         -0.16010        1.38730       -2.54650
C         -3.74500        6.45080       -1.68060
C         -4.82650        6.14480       -2.47330
C         -5.15770        4.82120       -3.00560
O         -4.56410        3.77560       -2.80830
C         -6.36310        5.00520       -3.83530
C         -7.07690        4.08180       -4.58050
Cl        -6.60460        2.43270       -4.63440
C         -8.19300        4.51410       -5.29380
C         -8.57120        5.84380       -5.25060
C         -7.86380        6.78060       -4.50500
C         -6.75480        6.35700       -3.79380
C         -5.81870        7.08920       -2.93720
C         -5.90800        8.42510       -2.63670
C         -6.92400        9.28170       -3.11020
N         -7.71650       10.03800       -3.45380
C         -5.02000        9.14620       -1.81180
N         -4.34610        9.80640       -1.15510
H          1.60470       -7.68400        1.60950
H          6.68710       -9.10400       -1.71580
H          7.22110      -11.54240       -1.98960
H          4.08940      -12.59390        0.71290
H          5.33400       -5.37070        3.18130
H          5.17900       -6.85670        2.23320
H          6.32690       -5.69570        0.31490
H          7.33950       -5.77610        1.76260
H          6.53640       -4.26430        1.32930
H         -2.39280        8.10350        0.15930
H         -0.82360        7.65080        0.83780
H          0.22450        7.85330       -1.40370
H         -0.57700        9.35920       -0.94270
H         -1.33670        8.27960       -2.11250
H         -0.46110       -2.54660        0.20770
H         -0.90960       -0.88460        0.67700
H          0.03830       -3.05720        2.59660
H         -0.31710       -1.38270        3.03750
H         -1.60130       -2.43380        2.42980
H         -1.76110        0.91480       -1.17770
H         -0.38360       -0.22120       -1.15760
H         -0.47760        2.41680       -2.68290
H         -0.55800        0.79500       -3.36550
H          0.92680        1.34590       -2.57940
H         -3.64360        7.49220       -1.40810
H         -8.75500        3.80310       -5.87810
H         -9.43690        6.16360       -5.81000
H         -8.18430        7.80870       -4.49400
