
  xtb     02012222363D
 energy: -191.224316975047 gnorm: 0.000519094200 xtb: 6.4.1 (unknown)
 97108  0     0  0            999 V2000
   -7.9832    1.8246   -1.2805 C   0  0  0  0  0  0  0  0  0  0  0  0
   -8.0421    3.1270   -0.8432 C   0  0  0  0  0  0  0  0  0  0  0  0
   -6.9150    3.9339   -0.3708 C   0  0  0  0  0  0  0  0  0  0  0  0
   -5.7491    3.5943   -0.2574 O   0  0  0  0  0  0  0  0  0  0  0  0
   -7.4656    5.2655   -0.0595 C   0  0  0  0  0  0  0  0  0  0  0  0
   -6.8053    6.3859    0.4075 C   0  0  0  0  0  0  0  0  0  0  0  0
   -7.5385    7.5419    0.6239 C   0  0  0  0  0  0  0  0  0  0  0  0
   -8.9010    7.5336    0.3656 C   0  0  0  0  0  0  0  0  0  0  0  0
   -9.5966    8.6617    0.5785 F   0  0  0  0  0  0  0  0  0  0  0  0
   -9.5854    6.4196   -0.1031 C   0  0  0  0  0  0  0  0  0  0  0  0
   -8.8478    5.2677   -0.3172 C   0  0  0  0  0  0  0  0  0  0  0  0
   -9.2396    3.9407   -0.7984 C   0  0  0  0  0  0  0  0  0  0  0  0
  -10.5185    3.5700   -1.1256 C   0  0  0  0  0  0  0  0  0  0  0  0
  -10.9200    2.2945   -1.5746 C   0  0  0  0  0  0  0  0  0  0  0  0
  -11.3280    1.2849   -1.9419 N   0  0  0  0  0  0  0  0  0  0  0  0
  -11.6362    4.4286   -1.0504 C   0  0  0  0  0  0  0  0  0  0  0  0
  -12.5883    5.0685   -1.0145 N   0  0  0  0  0  0  0  0  0  0  0  0
   -6.9093    0.9358   -1.3740 C   0  0  0  0  0  0  0  0  0  0  0  0
   -7.0444   -0.3785   -1.8599 C   0  0  0  0  0  0  0  0  0  0  0  0
   -8.3196   -1.0244   -2.2920 C   0  0  0  0  0  0  0  0  0  0  0  0
   -9.0843   -1.5781   -1.0862 C   0  0  0  0  0  0  0  0  0  0  0  0
   -5.8317   -1.0523   -1.8377 C   0  0  0  0  0  0  0  0  0  0  0  0
   -5.3773   -2.6815   -2.3060 S   0  0  0  0  0  0  0  0  0  0  0  0
   -3.7504   -2.3250   -1.8406 C   0  0  0  0  0  0  0  0  0  0  0  0
   -2.5083   -2.9615   -1.7543 C   0  0  0  0  0  0  0  0  0  0  0  0
   -2.1535   -4.2992   -2.0357 C   0  0  0  0  0  0  0  0  0  0  0  0
   -0.8159   -4.7270   -1.7674 C   0  0  0  0  0  0  0  0  0  0  0  0
   -0.6277   -6.0084   -2.0410 N   0  0  0  0  0  0  0  0  0  0  0  0
   -2.0204   -6.6225   -2.5932 S   0  0  0  0  0  0  0  0  0  0  0  0
   -2.9148   -5.2765   -2.5022 N   0  0  0  0  0  0  0  0  0  0  0  0
    0.1186   -3.7793   -1.2951 C   0  0  0  0  0  0  0  0  0  0  0  0
    1.4818   -3.9219   -1.0218 C   0  0  0  0  0  0  0  0  0  0  0  0
    2.6968   -5.1518   -1.0248 S   0  0  0  0  0  0  0  0  0  0  0  0
    3.8715   -3.9439   -0.5326 C   0  0  0  0  0  0  0  0  0  0  0  0
    5.2247   -4.0209   -0.2501 C   0  0  0  0  0  0  0  0  0  0  0  0
    6.0121   -5.2823   -0.3836 C   0  0  0  0  0  0  0  0  0  0  0  0
    6.7206   -5.3401   -1.7402 C   0  0  0  0  0  0  0  0  0  0  0  0
    5.7462   -2.7610    0.1155 C   0  0  0  0  0  0  0  0  0  0  0  0
    4.5097   -1.4995    0.0931 S   0  0  0  0  0  0  0  0  0  0  0  0
    3.3251   -2.6530   -0.3852 C   0  0  0  0  0  0  0  0  0  0  0  0
    1.9573   -2.6547   -0.6612 C   0  0  0  0  0  0  0  0  0  0  0  0
    0.9364   -1.7454   -0.7018 N   0  0  0  0  0  0  0  0  0  0  0  0
   -0.2203   -2.4075   -1.0643 C   0  0  0  0  0  0  0  0  0  0  0  0
   -1.5767   -2.0078   -1.2337 C   0  0  0  0  0  0  0  0  0  0  0  0
   -2.2700   -0.8383   -0.9854 N   0  0  0  0  0  0  0  0  0  0  0  0
   -3.5716   -1.0231   -1.3587 C   0  0  0  0  0  0  0  0  0  0  0  0
   -4.7586   -0.2859   -1.3484 C   0  0  0  0  0  0  0  0  0  0  0  0
   -5.2486    1.3044   -0.9041 S   0  0  0  0  0  0  0  0  0  0  0  0
   -1.9114    0.4119   -0.3559 C   0  0  0  0  0  0  0  0  0  0  0  0
   -1.6727    1.5169   -1.3849 C   0  0  0  0  0  0  0  0  0  0  0  0
    1.2526   -0.3530   -0.4776 C   0  0  0  0  0  0  0  0  0  0  0  0
    1.3659   -0.0291    1.0120 C   0  0  0  0  0  0  0  0  0  0  0  0
    7.0798   -2.5688    0.4660 C   0  0  0  0  0  0  0  0  0  0  0  0
    7.7677   -1.4319    0.8386 C   0  0  0  0  0  0  0  0  0  0  0  0
    7.2112   -0.0843    0.9261 C   0  0  0  0  0  0  0  0  0  0  0  0
    6.0657    0.2676    0.7177 O   0  0  0  0  0  0  0  0  0  0  0  0
    8.3375    0.7900    1.3307 C   0  0  0  0  0  0  0  0  0  0  0  0
    9.4979    0.0124    1.4907 C   0  0  0  0  0  0  0  0  0  0  0  0
   10.6914    0.6034    1.8673 C   0  0  0  0  0  0  0  0  0  0  0  0
   10.7035    1.9753    2.0789 C   0  0  0  0  0  0  0  0  0  0  0  0
   11.8450    2.5652    2.4416 F   0  0  0  0  0  0  0  0  0  0  0  0
    9.5624    2.7585    1.9247 C   0  0  0  0  0  0  0  0  0  0  0  0
    9.6152    4.0763    2.1375 F   0  0  0  0  0  0  0  0  0  0  0  0
    8.3610    2.1558    1.5451 C   0  0  0  0  0  0  0  0  0  0  0  0
    7.2714    2.9050    1.3979 F   0  0  0  0  0  0  0  0  0  0  0  0
    9.1659   -1.3850    1.1971 C   0  0  0  0  0  0  0  0  0  0  0  0
   10.0505   -2.4321    1.2762 C   0  0  0  0  0  0  0  0  0  0  0  0
    9.7519   -3.7850    1.0116 C   0  0  0  0  0  0  0  0  0  0  0  0
    9.5919   -4.9057    0.8146 N   0  0  0  0  0  0  0  0  0  0  0  0
   11.4049   -2.3009    1.6484 C   0  0  0  0  0  0  0  0  0  0  0  0
   12.5140   -2.2668    1.9416 N   0  0  0  0  0  0  0  0  0  0  0  0
   -8.9185    1.3986   -1.6164 H   0  0  0  0  0  0  0  0  0  0  0  0
   -5.7436    6.3505    0.5951 H   0  0  0  0  0  0  0  0  0  0  0  0
   -7.0745    8.4452    0.9869 H   0  0  0  0  0  0  0  0  0  0  0  0
  -10.6455    6.4863   -0.2827 H   0  0  0  0  0  0  0  0  0  0  0  0
   -8.9551   -0.3206   -2.8311 H   0  0  0  0  0  0  0  0  0  0  0  0
   -8.0728   -1.8478   -2.9652 H   0  0  0  0  0  0  0  0  0  0  0  0
   -8.4785   -2.3105   -0.5578 H   0  0  0  0  0  0  0  0  0  0  0  0
   -9.3472   -0.7798   -0.3964 H   0  0  0  0  0  0  0  0  0  0  0  0
   -9.9997   -2.0570   -1.4211 H   0  0  0  0  0  0  0  0  0  0  0  0
    6.7505   -5.3716    0.4146 H   0  0  0  0  0  0  0  0  0  0  0  0
    5.3218   -6.1245   -0.3070 H   0  0  0  0  0  0  0  0  0  0  0  0
    7.2809   -6.2668   -1.8220 H   0  0  0  0  0  0  0  0  0  0  0  0
    5.9942   -5.2976   -2.5483 H   0  0  0  0  0  0  0  0  0  0  0  0
    7.4124   -4.5083   -1.8506 H   0  0  0  0  0  0  0  0  0  0  0  0
   -2.7560    0.7069    0.2752 H   0  0  0  0  0  0  0  0  0  0  0  0
   -1.0529    0.2647    0.2920 H   0  0  0  0  0  0  0  0  0  0  0  0
   -1.3019    2.4081   -0.8871 H   0  0  0  0  0  0  0  0  0  0  0  0
   -0.9562    1.2099   -2.1445 H   0  0  0  0  0  0  0  0  0  0  0  0
   -2.6051    1.7684   -1.8829 H   0  0  0  0  0  0  0  0  0  0  0  0
    0.5215    0.2747   -0.9782 H   0  0  0  0  0  0  0  0  0  0  0  0
    2.2249   -0.1651   -0.9447 H   0  0  0  0  0  0  0  0  0  0  0  0
    1.4958    1.0409    1.1458 H   0  0  0  0  0  0  0  0  0  0  0  0
    2.2302   -0.5315    1.4375 H   0  0  0  0  0  0  0  0  0  0  0  0
    0.4838   -0.3522    1.5617 H   0  0  0  0  0  0  0  0  0  0  0  0
    7.6645   -3.4776    0.4362 H   0  0  0  0  0  0  0  0  0  0  0  0
   11.6064    0.0512    2.0021 H   0  0  0  0  0  0  0  0  0  0  0  0
  1  2  2  0  0  0  0
  2  3  1  0  0  0  0
  3  4  2  0  0  0  0
  3  5  1  0  0  0  0
  5  6  2  0  0  0  0
  6  7  1  0  0  0  0
  7  8  2  0  0  0  0
  8  9  1  0  0  0  0
  8 10  1  0  0  0  0
 10 11  2  0  0  0  0
 11 12  1  0  0  0  0
 12 13  2  0  0  0  0
 13 14  1  0  0  0  0
 14 15  3  0  0  0  0
 13 16  1  0  0  0  0
 16 17  3  0  0  0  0
  1 18  1  0  0  0  0
 18 19  2  0  0  0  0
 19 20  1  0  0  0  0
 20 21  1  0  0  0  0
 19 22  1  0  0  0  0
 22 23  1  0  0  0  0
 23 24  1  0  0  0  0
 24 25  1  0  0  0  0
 25 26  1  0  0  0  0
 26 27  1  0  0  0  0
 27 28  2  0  0  0  0
 28 29  1  0  0  0  0
 29 30  1  0  0  0  0
 27 31  1  0  0  0  0
 31 32  1  0  0  0  0
 32 33  1  0  0  0  0
 33 34  1  0  0  0  0
 34 35  1  0  0  0  0
 35 36  1  0  0  0  0
 36 37  1  0  0  0  0
 35 38  2  0  0  0  0
 38 39  1  0  0  0  0
 39 40  1  0  0  0  0
 40 41  1  0  0  0  0
 41 42  1  0  0  0  0
 42 43  1  0  0  0  0
 43 44  1  0  0  0  0
 44 45  1  0  0  0  0
 45 46  1  0  0  0  0
 46 47  1  0  0  0  0
 47 48  1  0  0  0  0
 45 49  1  0  0  0  0
 49 50  1  0  0  0  0
 42 51  1  0  0  0  0
 51 52  1  0  0  0  0
 38 53  1  0  0  0  0
 53 54  2  0  0  0  0
 54 55  1  0  0  0  0
 55 56  2  0  0  0  0
 55 57  1  0  0  0  0
 57 58  2  0  0  0  0
 58 59  1  0  0  0  0
 59 60  2  0  0  0  0
 60 61  1  0  0  0  0
 60 62  1  0  0  0  0
 62 63  1  0  0  0  0
 62 64  2  0  0  0  0
 64 65  1  0  0  0  0
 58 66  1  0  0  0  0
 66 67  2  0  0  0  0
 67 68  1  0  0  0  0
 68 69  3  0  0  0  0
 67 70  1  0  0  0  0
 70 71  3  0  0  0  0
 12  2  1  0  0  0  0
 48 18  1  0  0  0  0
 66 54  1  0  0  0  0
 11  5  1  0  0  0  0
 47 22  2  0  0  0  0
 64 57  1  0  0  0  0
 46 24  2  0  0  0  0
 44 25  2  0  0  0  0
 30 26  2  0  0  0  0
 43 31  2  0  0  0  0
 41 32  2  0  0  0  0
 40 34  2  0  0  0  0
  1 72  1  0  0  0  0
  6 73  1  0  0  0  0
  7 74  1  0  0  0  0
 10 75  1  0  0  0  0
 20 76  1  0  0  0  0
 20 77  1  0  0  0  0
 21 78  1  0  0  0  0
 21 79  1  0  0  0  0
 21 80  1  0  0  0  0
 36 81  1  0  0  0  0
 36 82  1  0  0  0  0
 37 83  1  0  0  0  0
 37 84  1  0  0  0  0
 37 85  1  0  0  0  0
 49 86  1  0  0  0  0
 49 87  1  0  0  0  0
 50 88  1  0  0  0  0
 50 89  1  0  0  0  0
 50 90  1  0  0  0  0
 51 91  1  0  0  0  0
 51 92  1  0  0  0  0
 52 93  1  0  0  0  0
 52 94  1  0  0  0  0
 52 95  1  0  0  0  0
 53 96  1  0  0  0  0
 59 97  1  0  0  0  0
M  END
