
  xtb     02012221443D
 energy: -170.424601444095 gnorm: 0.000214438111 xtb: 6.4.1 (unknown)
 93104  0     0  0            999 V2000
    3.0420   -4.7858    4.1363 C   0  0  0  0  0  0  0  0  0  0  0  0
    3.6409   -5.0884    5.3288 C   0  0  0  0  0  0  0  0  0  0  0  0
    4.0087   -4.0726    6.3429 C   0  0  0  0  0  0  0  0  0  0  0  0
    3.9607   -2.8664    6.2368 O   0  0  0  0  0  0  0  0  0  0  0  0
    4.2980   -4.8388    7.5731 C   0  0  0  0  0  0  0  0  0  0  0  0
    4.6543   -4.3597    8.8194 C   0  0  0  0  0  0  0  0  0  0  0  0
    4.8545   -5.2698    9.8453 C   0  0  0  0  0  0  0  0  0  0  0  0
    4.6828   -6.6226    9.5913 C   0  0  0  0  0  0  0  0  0  0  0  0
    4.8708   -7.4889   10.5998 F   0  0  0  0  0  0  0  0  0  0  0  0
    4.3220   -7.1279    8.3495 C   0  0  0  0  0  0  0  0  0  0  0  0
    4.1298   -6.2132    7.3279 C   0  0  0  0  0  0  0  0  0  0  0  0
    3.7516   -6.3979    5.9282 C   0  0  0  0  0  0  0  0  0  0  0  0
    3.6261   -7.5965    5.2752 C   0  0  0  0  0  0  0  0  0  0  0  0
    3.7769   -8.8542    5.8939 C   0  0  0  0  0  0  0  0  0  0  0  0
    3.8835   -9.9028    6.3485 N   0  0  0  0  0  0  0  0  0  0  0  0
    3.3687   -7.7182    3.8934 C   0  0  0  0  0  0  0  0  0  0  0  0
    3.1865   -7.8809    2.7715 N   0  0  0  0  0  0  0  0  0  0  0  0
    3.1078   -3.5463    3.4619 C   0  0  0  0  0  0  0  0  0  0  0  0
    4.1759   -2.6827    3.2477 C   0  0  0  0  0  0  0  0  0  0  0  0
    5.5925   -2.9251    3.6576 C   0  0  0  0  0  0  0  0  0  0  0  0
    6.1577   -1.7840    4.5032 C   0  0  0  0  0  0  0  0  0  0  0  0
    3.7974   -1.6098    2.4302 C   0  0  0  0  0  0  0  0  0  0  0  0
    4.6819   -0.2381    1.7984 S   0  0  0  0  0  0  0  0  0  0  0  0
    3.2371    0.3135    1.0288 C   0  0  0  0  0  0  0  0  0  0  0  0
    2.8044    1.3681    0.2140 C   0  0  0  0  0  0  0  0  0  0  0  0
    3.5255    2.4185   -0.3953 C   0  0  0  0  0  0  0  0  0  0  0  0
    2.8335    3.3104   -1.2779 C   0  0  0  0  0  0  0  0  0  0  0  0
    3.6378    4.2113   -1.8194 N   0  0  0  0  0  0  0  0  0  0  0  0
    5.1371    3.9611   -1.2624 S   0  0  0  0  0  0  0  0  0  0  0  0
    4.8176    2.6921   -0.3087 N   0  0  0  0  0  0  0  0  0  0  0  0
    1.4344    3.1786   -1.4194 C   0  0  0  0  0  0  0  0  0  0  0  0
    0.5024    3.9870   -2.0828 C   0  0  0  0  0  0  0  0  0  0  0  0
    0.4712    5.3972   -3.0839 S   0  0  0  0  0  0  0  0  0  0  0  0
   -1.2812    5.3247   -3.0741 C   0  0  0  0  0  0  0  0  0  0  0  0
   -2.2549    6.1408   -3.6409 C   0  0  0  0  0  0  0  0  0  0  0  0
   -1.9304    7.3170   -4.5031 C   0  0  0  0  0  0  0  0  0  0  0  0
   -1.9892    6.9380   -5.9852 C   0  0  0  0  0  0  0  0  0  0  0  0
   -3.5432    5.6862   -3.3348 C   0  0  0  0  0  0  0  0  0  0  0  0
   -3.5199    4.2347   -2.3328 S   0  0  0  0  0  0  0  0  0  0  0  0
   -1.7965    4.2494   -2.3334 C   0  0  0  0  0  0  0  0  0  0  0  0
   -0.7660    3.4834   -1.7756 C   0  0  0  0  0  0  0  0  0  0  0  0
   -0.6500    2.3761   -0.9802 N   0  0  0  0  0  0  0  0  0  0  0  0
    0.6967    2.1592   -0.7469 C   0  0  0  0  0  0  0  0  0  0  0  0
    1.4100    1.1750   -0.0113 C   0  0  0  0  0  0  0  0  0  0  0  0
    1.0281    0.0007    0.6173 N   0  0  0  0  0  0  0  0  0  0  0  0
    2.1313   -0.5170    1.2419 C   0  0  0  0  0  0  0  0  0  0  0  0
    2.4545   -1.6277    2.0255 C   0  0  0  0  0  0  0  0  0  0  0  0
    1.6505   -3.0355    2.6059 S   0  0  0  0  0  0  0  0  0  0  0  0
   -0.1262   -0.8425    0.3965 C   0  0  0  0  0  0  0  0  0  0  0  0
   -0.2625   -1.2324   -1.0729 C   0  0  0  0  0  0  0  0  0  0  0  0
   -1.8146    1.8757   -0.2844 C   0  0  0  0  0  0  0  0  0  0  0  0
   -1.7560    2.1970    1.2068 C   0  0  0  0  0  0  0  0  0  0  0  0
   -4.7252    6.3079   -3.7627 C   0  0  0  0  0  0  0  0  0  0  0  0
   -6.0306    5.9762   -3.5357 C   0  0  0  0  0  0  0  0  0  0  0  0
   -6.5911    4.8710   -2.7657 C   0  0  0  0  0  0  0  0  0  0  0  0
   -5.9898    3.9991   -2.1613 O   0  0  0  0  0  0  0  0  0  0  0  0
   -8.0641    5.0172   -2.8548 C   0  0  0  0  0  0  0  0  0  0  0  0
   -9.0578    4.2341   -2.2994 C   0  0  0  0  0  0  0  0  0  0  0  0
  -10.3801    4.5900   -2.5349 C   0  0  0  0  0  0  0  0  0  0  0  0
  -10.6950    5.7002   -3.3054 C   0  0  0  0  0  0  0  0  0  0  0  0
   -9.6973    6.4898   -3.8645 C   0  0  0  0  0  0  0  0  0  0  0  0
   -8.3817    6.1387   -3.6322 C   0  0  0  0  0  0  0  0  0  0  0  0
   -7.1297    6.7885   -4.0932 C   0  0  0  0  0  0  0  0  0  0  0  0
   -7.0237    7.7794   -4.7839 O   0  0  0  0  0  0  0  0  0  0  0  0
    2.4039   -5.5320    3.6758 H   0  0  0  0  0  0  0  0  0  0  0  0
    4.7731   -3.2993    8.9786 H   0  0  0  0  0  0  0  0  0  0  0  0
    5.1372   -4.9500   10.8357 H   0  0  0  0  0  0  0  0  0  0  0  0
    4.1971   -8.1904    8.2209 H   0  0  0  0  0  0  0  0  0  0  0  0
    5.6629   -3.8649    4.2060 H   0  0  0  0  0  0  0  0  0  0  0  0
    6.1897   -3.0180    2.7444 H   0  0  0  0  0  0  0  0  0  0  0  0
    7.1738   -2.0218    4.8072 H   0  0  0  0  0  0  0  0  0  0  0  0
    5.5480   -1.6419    5.3906 H   0  0  0  0  0  0  0  0  0  0  0  0
    6.1723   -0.8573    3.9361 H   0  0  0  0  0  0  0  0  0  0  0  0
   -0.9201    7.6516   -4.2591 H   0  0  0  0  0  0  0  0  0  0  0  0
   -2.6207    8.1386   -4.3062 H   0  0  0  0  0  0  0  0  0  0  0  0
   -1.2889    6.1332   -6.1958 H   0  0  0  0  0  0  0  0  0  0  0  0
   -1.7265    7.7956   -6.5988 H   0  0  0  0  0  0  0  0  0  0  0  0
   -2.9885    6.6074   -6.2587 H   0  0  0  0  0  0  0  0  0  0  0  0
   -1.0311   -0.3637    0.7714 H   0  0  0  0  0  0  0  0  0  0  0  0
    0.0302   -1.7438    0.9944 H   0  0  0  0  0  0  0  0  0  0  0  0
    0.6121   -1.7953   -1.3905 H   0  0  0  0  0  0  0  0  0  0  0  0
   -1.1424   -1.8551   -1.2098 H   0  0  0  0  0  0  0  0  0  0  0  0
   -0.3499   -0.3544   -1.7084 H   0  0  0  0  0  0  0  0  0  0  0  0
   -1.9387    0.8075   -0.4631 H   0  0  0  0  0  0  0  0  0  0  0  0
   -2.6795    2.3769   -0.7254 H   0  0  0  0  0  0  0  0  0  0  0  0
   -2.6325    1.7936    1.7062 H   0  0  0  0  0  0  0  0  0  0  0  0
   -1.7417    3.2745    1.3526 H   0  0  0  0  0  0  0  0  0  0  0  0
   -0.8632    1.7808    1.6682 H   0  0  0  0  0  0  0  0  0  0  0  0
   -4.5914    7.1971   -4.3716 H   0  0  0  0  0  0  0  0  0  0  0  0
   -8.8042    3.3722   -1.7012 H   0  0  0  0  0  0  0  0  0  0  0  0
  -11.1755    3.9941   -2.1120 H   0  0  0  0  0  0  0  0  0  0  0  0
  -11.7315    5.9538   -3.4724 H   0  0  0  0  0  0  0  0  0  0  0  0
   -9.9336    7.3551   -4.4646 H   0  0  0  0  0  0  0  0  0  0  0  0
  1  2  2  0  0  0  0
  2  3  1  0  0  0  0
  3  4  2  0  0  0  0
  3  5  1  0  0  0  0
  5  6  2  0  0  0  0
  6  7  1  0  0  0  0
  7  8  2  0  0  0  0
  8  9  1  0  0  0  0
  8 10  1  0  0  0  0
 10 11  2  0  0  0  0
 11 12  1  0  0  0  0
 12 13  2  0  0  0  0
 13 14  1  0  0  0  0
 14 15  3  0  0  0  0
 13 16  1  0  0  0  0
 16 17  3  0  0  0  0
  1 18  1  0  0  0  0
 18 19  2  0  0  0  0
 19 20  1  0  0  0  0
 20 21  1  0  0  0  0
 19 22  1  0  0  0  0
 22 23  1  0  0  0  0
 23 24  1  0  0  0  0
 24 25  1  0  0  0  0
 25 26  1  0  0  0  0
 26 27  1  0  0  0  0
 27 28  2  0  0  0  0
 28 29  1  0  0  0  0
 29 30  1  0  0  0  0
 27 31  1  0  0  0  0
 31 32  1  0  0  0  0
 32 33  1  0  0  0  0
 33 34  1  0  0  0  0
 34 35  1  0  0  0  0
 35 36  1  0  0  0  0
 36 37  1  0  0  0  0
 35 38  2  0  0  0  0
 38 39  1  0  0  0  0
 39 40  1  0  0  0  0
 40 41  1  0  0  0  0
 41 42  1  0  0  0  0
 42 43  1  0  0  0  0
 43 44  1  0  0  0  0
 44 45  1  0  0  0  0
 45 46  1  0  0  0  0
 46 47  1  0  0  0  0
 47 48  1  0  0  0  0
 45 49  1  0  0  0  0
 49 50  1  0  0  0  0
 42 51  1  0  0  0  0
 51 52  1  0  0  0  0
 38 53  1  0  0  0  0
 53 54  2  0  0  0  0
 54 55  1  0  0  0  0
 55 56  2  0  0  0  0
 55 57  1  0  0  0  0
 57 58  2  0  0  0  0
 58 59  1  0  0  0  0
 59 60  2  0  0  0  0
 60 61  1  0  0  0  0
 61 62  2  0  0  0  0
 62 63  1  0  0  0  0
 63 64  2  0  0  0  0
 12  2  1  0  0  0  0
 48 18  1  0  0  0  0
 63 54  1  0  0  0  0
 11  5  1  0  0  0  0
 47 22  2  0  0  0  0
 62 57  1  0  0  0  0
 46 24  2  0  0  0  0
 44 25  2  0  0  0  0
 30 26  2  0  0  0  0
 43 31  2  0  0  0  0
 41 32  2  0  0  0  0
 40 34  2  0  0  0  0
  1 65  1  0  0  0  0
  6 66  1  0  0  0  0
  7 67  1  0  0  0  0
 10 68  1  0  0  0  0
 20 69  1  0  0  0  0
 20 70  1  0  0  0  0
 21 71  1  0  0  0  0
 21 72  1  0  0  0  0
 21 73  1  0  0  0  0
 36 74  1  0  0  0  0
 36 75  1  0  0  0  0
 37 76  1  0  0  0  0
 37 77  1  0  0  0  0
 37 78  1  0  0  0  0
 49 79  1  0  0  0  0
 49 80  1  0  0  0  0
 50 81  1  0  0  0  0
 50 82  1  0  0  0  0
 50 83  1  0  0  0  0
 51 84  1  0  0  0  0
 51 85  1  0  0  0  0
 52 86  1  0  0  0  0
 52 87  1  0  0  0  0
 52 88  1  0  0  0  0
 53 89  1  0  0  0  0
 58 90  1  0  0  0  0
 59 91  1  0  0  0  0
 60 92  1  0  0  0  0
 61 93  1  0  0  0  0
M  END
