97

C          7.29730       -0.91000        0.88590
C          7.85710        0.27740        0.47550
C          7.13130        1.46550        0.02220
O          5.92480        1.60890       -0.08420
C          8.15610        2.48100       -0.28200
C          7.98260        3.77500       -0.73430
C          9.10740        4.55540       -0.94990
C         10.36000        4.01320       -0.70550
F         11.43960        4.78210       -0.91860
C         10.55830        2.71580       -0.25090
C          9.43090        1.94110       -0.03710
C          9.27640        0.56170        0.43150
C         10.31130       -0.28070        0.74800
C         11.67470        0.07440        0.66660
N         12.80060        0.29310        0.62150
C         10.18600       -1.61410        1.19040
N         10.17170       -2.70440        1.55330
C          5.96410       -1.32100        0.95270
C          5.58030       -2.60550        1.38140
C          6.50560       -3.70200        1.79570
C          7.01580       -4.47260        0.57460
C          4.20440       -2.77070        1.31450
S          3.16240       -4.13490        1.67740
C          1.80250       -3.17740        1.20560
C          0.41810       -3.30940        1.05120
C         -0.41780       -4.43890        1.19720
C         -1.79820       -4.32670        0.83440
N         -2.45120       -5.47050        0.96580
S         -1.41630       -6.59210        1.50570
N         -0.09490       -5.66090        1.58970
C         -2.29860       -3.06520        0.44230
C         -3.60100       -2.65940        0.13160
S         -5.17780       -3.34650       -0.04240
C         -5.79970       -1.74340       -0.39080
C         -7.07220       -1.28330       -0.69320
C         -8.26770       -2.17710       -0.73790
C         -9.01700       -2.15120        0.59740
C         -7.08100        0.11150       -0.88810
S         -5.47480        0.81920       -0.69290
C         -4.81540       -0.73760       -0.36320
C         -3.55900       -1.27390       -0.07090
N         -2.27630       -0.81850        0.07460
C         -1.47170       -1.90230        0.37930
C         -0.07380       -2.05080        0.58870
N          1.00420       -1.19530        0.44450
C          2.13470       -1.87690        0.80500
C          3.51050       -1.63640        0.85630
S          4.57590       -0.33150        0.49350
C          1.13250        0.04650       -0.28570
C          0.79690       -0.13810       -1.76340
C         -2.04470        0.60060        0.23350
C         -1.68600        0.94920        1.67580
C         -8.23640        0.82480       -1.20880
C         -8.44310        2.17140       -1.40710
C         -7.43750        3.22620       -1.29030
O         -6.25070        3.10810       -1.03940
C         -8.14900        4.49750       -1.54020
C         -7.64190        5.78020       -1.52530
C         -8.51040        6.83380       -1.78510
Cl        -7.94620        8.45880       -1.77950
C         -9.85390        6.56230       -2.05110
F        -10.68580        7.58120       -2.29810
C        -10.36850        5.27450       -2.06960
C         -9.50110        4.22560       -1.80990
C         -9.71290        2.77930       -1.74800
C        -10.90680        2.14880       -1.99240
C        -11.13000        0.75710       -1.94850
N        -11.39400       -0.36140       -1.93440
C        -12.09770        2.82210       -2.33770
N        -13.09860        3.30640       -2.62270
H          7.99410       -1.67130        1.20870
H          6.99010        4.15850       -0.91170
H          9.03050        5.57190       -1.30190
H         11.56150        2.36170       -0.08190
H          5.95400       -4.38680        2.44290
H          7.35460       -3.30990        2.35710
H          6.18360       -4.91230        0.03010
H          7.68370       -5.26660        0.89480
H          7.56230       -3.81370       -0.09600
H         -7.92490       -3.19500       -0.93340
H         -8.94700       -1.88520       -1.54010
H         -9.87870       -2.81040        0.54760
H         -8.36670       -2.48540        1.40250
H         -9.36440       -1.14630        0.82560
H          2.17610        0.35580       -0.19100
H          0.52500        0.82600        0.17290
H          0.88430        0.81180       -2.28330
H          1.49060       -0.84320       -2.21520
H         -0.21200       -0.52250       -1.89630
H         -1.28570        0.94740       -0.46730
H         -2.97930        1.09930       -0.03420
H         -2.51020        0.68940        2.33590
H         -1.49910        2.01600        1.76190
H         -0.80280        0.40780        2.00750
H         -9.11060        0.19650       -1.30910
H         -6.59920        5.95750       -1.31590
H        -11.41610        5.13720       -2.28160
