101

C          1.99180       -3.10080       -6.80070
C          0.76300       -3.07460       -7.42000
C         -0.51240       -2.71360       -6.79940
O         -0.71600       -2.38980       -5.64100
C         -1.53010       -2.82110       -7.86160
C         -2.88880       -2.58310       -7.78430
C         -3.65500       -2.75210       -8.92700
C         -3.03440       -3.15180      -10.10070
F         -3.79050       -3.31110      -11.19900
C         -1.67100       -3.39720      -10.20170
C         -0.91110       -3.22670       -9.05700
C          0.52320       -3.39550       -8.81080
C          1.44080       -3.78480       -9.75330
C          1.12270       -4.07200      -11.09770
N          0.93830       -4.31810      -12.20370
C          2.82390       -3.95800       -9.53910
N          3.95780       -4.12420       -9.45170
C          2.36630       -2.79510       -5.49160
C          3.70100       -2.84520       -5.04570
C          4.88890       -3.19100       -5.88210
C          5.38210       -1.96640       -6.65810
C          3.80350       -2.46630       -3.71600
S          5.17820       -2.32820       -2.63550
C          4.09960       -1.82460       -1.38250
C          4.14350       -1.49260       -0.02330
C          5.19800       -1.54910        0.91550
C          4.90410       -1.32210        2.30090
N          5.96590       -1.47990        3.07510
S          7.22860       -1.87080        2.14170
N          6.46830       -1.85970        0.71250
C          3.59980       -0.92020        2.66560
C          3.06820       -0.51810        3.90020
S          3.56820       -0.33110        5.54410
C          2.00380        0.35720        5.91580
C          1.46480        0.90060        7.08650
C          2.20320        0.94030        8.38380
C          1.97290       -0.35300        9.17020
C          0.18300        1.39070        6.87320
S         -0.36960        1.11180        5.22170
C          1.14640        0.40720        4.80970
C          1.75770       -0.09220        3.65800
N          1.44810       -0.23270        2.32970
C          2.56630       -0.75650        1.69890
C          2.80780       -1.17540        0.36560
N          1.97970       -1.36800       -0.72080
C          2.75720       -1.75370       -1.78130
C          2.57600       -2.13070       -3.11390
S          1.25910       -2.28690       -4.21400
C          0.54320       -1.52370       -0.78170
C         -0.12620       -0.40830       -1.58500
C          0.40490        0.61960        1.79590
C          0.84340        2.08370        1.77930
C         -0.65730        1.98990        7.83830
C         -1.77700        2.73960        7.65650
C         -2.74050        2.90330        8.77470
O         -2.54750        2.65270        9.94280
C         -3.99200        3.36670        8.13740
C         -5.23260        3.56090        8.71020
C         -6.27170        3.95810        7.88080
C         -6.08110        4.12000        6.51880
C         -4.83000        3.91930        5.92710
O         -4.58250        3.98110        4.60480
C         -5.58610        4.43710        3.72650
C         -3.76390        3.57530        6.76610
C         -2.34470        3.39210        6.48990
C         -1.61430        4.00400        5.50570
C         -2.10970        4.79500        4.44890
N         -2.37690        5.46960        3.55890
C         -0.20190        4.02330        5.51230
N          0.94330        4.10820        5.49750
H          2.82460       -3.39720       -7.42370
H         -3.33260       -2.27360       -6.85110
H         -4.71960       -2.58040       -8.92360
H         -1.25690       -3.70540      -11.14710
H          5.68440       -3.53480       -5.21800
H          4.65700       -3.99420       -6.58280
H          5.65700       -1.16920       -5.97150
H          4.60910       -1.59760       -7.32830
H          6.25190       -2.23340       -7.25100
H          3.26880        1.04510        8.17090
H          1.88470        1.79830        8.97550
H          0.91690       -0.48240        9.39670
H          2.31100       -1.21090        8.59360
H          2.52700       -0.32320       10.10450
H          0.15460       -1.59090        0.23540
H          0.33510       -2.47840       -1.27750
H          0.21360        0.57530       -1.26780
H          0.10370       -0.51910       -2.64080
H         -1.20440       -0.46660       -1.46580
H          0.14420        0.31620        0.79010
H         -0.47210        0.50280        2.43990
H          1.08070        2.43340        2.78090
H          1.72430        2.20700        1.15280
H          0.04190        2.70130        1.38350
H         -0.42690        1.75980        8.87370
H         -5.37480        3.40910        9.76800
H         -7.25330        4.13210        8.29510
H         -6.92280        4.40130        5.90590
H         -6.42350        3.73410        3.67790
H         -5.10360        4.50320        2.75330
H         -5.94840        5.42720        4.01540
