
  xtb     02012222303D
 energy: -180.534090197483 gnorm: 0.000529016898 xtb: 6.4.1 (unknown)
 94105  0     0  0            999 V2000
    4.9924   -6.4166   -0.2298 C   0  0  0  0  0  0  0  0  0  0  0  0
    6.0404   -5.8642    0.4475 C   0  0  0  0  0  0  0  0  0  0  0  0
    6.9511   -6.7300    1.2377 C   0  0  0  0  0  0  0  0  0  0  0  0
    7.0360   -7.9360    1.1877 O   0  0  0  0  0  0  0  0  0  0  0  0
    7.6780   -5.8028    2.1330 C   0  0  0  0  0  0  0  0  0  0  0  0
    8.5608   -6.0953    3.1554 C   0  0  0  0  0  0  0  0  0  0  0  0
    9.0997   -5.0470    3.8850 C   0  0  0  0  0  0  0  0  0  0  0  0
    8.7398   -3.7453    3.5683 C   0  0  0  0  0  0  0  0  0  0  0  0
    9.2615   -2.7445    4.2961 F   0  0  0  0  0  0  0  0  0  0  0  0
    7.8652   -3.4237    2.5391 C   0  0  0  0  0  0  0  0  0  0  0  0
    7.3312   -4.4757    1.8165 C   0  0  0  0  0  0  0  0  0  0  0  0
    6.4292   -4.4913    0.6655 C   0  0  0  0  0  0  0  0  0  0  0  0
    6.2315   -3.4524   -0.2070 C   0  0  0  0  0  0  0  0  0  0  0  0
    6.6697   -2.1342    0.0218 C   0  0  0  0  0  0  0  0  0  0  0  0
    6.9746   -1.0386    0.1779 N   0  0  0  0  0  0  0  0  0  0  0  0
    5.6387   -3.6325   -1.4744 C   0  0  0  0  0  0  0  0  0  0  0  0
    5.2159   -3.7688   -2.5329 N   0  0  0  0  0  0  0  0  0  0  0  0
    3.7904   -5.8193   -0.6544 C   0  0  0  0  0  0  0  0  0  0  0  0
    2.8886   -6.3539   -1.5707 C   0  0  0  0  0  0  0  0  0  0  0  0
    3.1374   -7.5763   -2.3868 C   0  0  0  0  0  0  0  0  0  0  0  0
    4.0922   -7.2619   -3.5415 C   0  0  0  0  0  0  0  0  0  0  0  0
    1.7604   -5.5434   -1.7090 C   0  0  0  0  0  0  0  0  0  0  0  0
    0.3194   -5.6871   -2.6897 S   0  0  0  0  0  0  0  0  0  0  0  0
   -0.2677   -4.2188   -1.9955 C   0  0  0  0  0  0  0  0  0  0  0  0
   -1.4008   -3.3951   -2.0567 C   0  0  0  0  0  0  0  0  0  0  0  0
   -2.6374   -3.5631   -2.7188 C   0  0  0  0  0  0  0  0  0  0  0  0
   -3.6763   -2.5989   -2.5004 C   0  0  0  0  0  0  0  0  0  0  0  0
   -4.7975   -2.9133   -3.1293 N   0  0  0  0  0  0  0  0  0  0  0  0
   -4.5652   -4.2996   -3.9317 S   0  0  0  0  0  0  0  0  0  0  0  0
   -3.0242   -4.5538   -3.5065 N   0  0  0  0  0  0  0  0  0  0  0  0
   -3.3841   -1.4425   -1.7430 C   0  0  0  0  0  0  0  0  0  0  0  0
   -4.1221   -0.2719   -1.5288 C   0  0  0  0  0  0  0  0  0  0  0  0
   -5.6819    0.3723   -1.9028 S   0  0  0  0  0  0  0  0  0  0  0  0
   -5.1904    1.8916   -1.1787 C   0  0  0  0  0  0  0  0  0  0  0  0
   -5.8493    3.1032   -1.0185 C   0  0  0  0  0  0  0  0  0  0  0  0
   -7.2340    3.3448   -1.5237 C   0  0  0  0  0  0  0  0  0  0  0  0
   -7.2018    3.9930   -2.9106 C   0  0  0  0  0  0  0  0  0  0  0  0
   -5.0255    4.0533   -0.3911 C   0  0  0  0  0  0  0  0  0  0  0  0
   -3.4345    3.4007   -0.0001 S   0  0  0  0  0  0  0  0  0  0  0  0
   -3.8786    1.8778   -0.6726 C   0  0  0  0  0  0  0  0  0  0  0  0
   -3.2788    0.6298   -0.8657 C   0  0  0  0  0  0  0  0  0  0  0  0
   -2.0616    0.0450   -0.6386 N   0  0  0  0  0  0  0  0  0  0  0  0
   -2.1041   -1.2371   -1.1469 C   0  0  0  0  0  0  0  0  0  0  0  0
   -1.1554   -2.2913   -1.1900 C   0  0  0  0  0  0  0  0  0  0  0  0
    0.0761   -2.4731   -0.5804 N   0  0  0  0  0  0  0  0  0  0  0  0
    0.6073   -3.6401   -1.0677 C   0  0  0  0  0  0  0  0  0  0  0  0
    1.7625   -4.4031   -0.8919 C   0  0  0  0  0  0  0  0  0  0  0  0
    3.1943   -4.3197    0.0626 S   0  0  0  0  0  0  0  0  0  0  0  0
    0.5421   -2.0036    0.7067 C   0  0  0  0  0  0  0  0  0  0  0  0
   -0.0061   -2.8758    1.8355 C   0  0  0  0  0  0  0  0  0  0  0  0
   -0.9348    0.8610   -0.2433 C   0  0  0  0  0  0  0  0  0  0  0  0
   -0.9592    1.1917    1.2491 C   0  0  0  0  0  0  0  0  0  0  0  0
   -5.4422    5.3612   -0.1200 C   0  0  0  0  0  0  0  0  0  0  0  0
   -4.7831    6.4235    0.4441 C   0  0  0  0  0  0  0  0  0  0  0  0
   -3.3869    6.4382    0.9189 C   0  0  0  0  0  0  0  0  0  0  0  0
   -2.5945    5.5134    0.9342 O   0  0  0  0  0  0  0  0  0  0  0  0
   -3.1700    7.8077    1.3724 C   0  0  0  0  0  0  0  0  0  0  0  0
   -1.8694    8.6951    2.0433 S   0  0  0  0  0  0  0  0  0  0  0  0
   -2.8857   10.1099    2.1077 C   0  0  0  0  0  0  0  0  0  0  0  0
   -2.2689   11.5761    2.7148 Cl  0  0  0  0  0  0  0  0  0  0  0  0
   -4.1553    9.9036    1.6389 C   0  0  0  0  0  0  0  0  0  0  0  0
   -4.3162    8.5730    1.2148 C   0  0  0  0  0  0  0  0  0  0  0  0
   -5.3616    7.7396    0.6464 C   0  0  0  0  0  0  0  0  0  0  0  0
   -6.6375    8.1693    0.3869 C   0  0  0  0  0  0  0  0  0  0  0  0
   -7.6842    7.3887   -0.1414 C   0  0  0  0  0  0  0  0  0  0  0  0
   -8.5816    6.8113   -0.5678 N   0  0  0  0  0  0  0  0  0  0  0  0
   -7.0397    9.4962    0.6488 C   0  0  0  0  0  0  0  0  0  0  0  0
   -7.3897   10.5702    0.8495 N   0  0  0  0  0  0  0  0  0  0  0  0
    5.0610   -7.4904   -0.3785 H   0  0  0  0  0  0  0  0  0  0  0  0
    8.8181   -7.1201    3.3728 H   0  0  0  0  0  0  0  0  0  0  0  0
    9.7912   -5.2210    4.6940 H   0  0  0  0  0  0  0  0  0  0  0  0
    7.6229   -2.3922    2.3411 H   0  0  0  0  0  0  0  0  0  0  0  0
    3.5666   -8.3643   -1.7643 H   0  0  0  0  0  0  0  0  0  0  0  0
    2.1847   -7.9283   -2.7868 H   0  0  0  0  0  0  0  0  0  0  0  0
    3.6718   -6.4876   -4.1778 H   0  0  0  0  0  0  0  0  0  0  0  0
    5.0473   -6.9080   -3.1610 H   0  0  0  0  0  0  0  0  0  0  0  0
    4.2594   -8.1537   -4.1396 H   0  0  0  0  0  0  0  0  0  0  0  0
   -7.7965    3.9811   -0.8389 H   0  0  0  0  0  0  0  0  0  0  0  0
   -7.7442    2.3821   -1.5931 H   0  0  0  0  0  0  0  0  0  0  0  0
   -6.6853    3.3479   -3.6175 H   0  0  0  0  0  0  0  0  0  0  0  0
   -6.6893    4.9516   -2.8765 H   0  0  0  0  0  0  0  0  0  0  0  0
   -8.2159    4.1570   -3.2635 H   0  0  0  0  0  0  0  0  0  0  0  0
    1.6348   -2.0549    0.6941 H   0  0  0  0  0  0  0  0  0  0  0  0
    0.2450   -0.9756    0.8716 H   0  0  0  0  0  0  0  0  0  0  0  0
    0.3645   -2.5157    2.7911 H   0  0  0  0  0  0  0  0  0  0  0  0
   -1.0937   -2.8427    1.8448 H   0  0  0  0  0  0  0  0  0  0  0  0
    0.3077   -3.9092    1.7100 H   0  0  0  0  0  0  0  0  0  0  0  0
   -0.0131    0.3604   -0.5434 H   0  0  0  0  0  0  0  0  0  0  0  0
   -0.9956    1.8003   -0.8038 H   0  0  0  0  0  0  0  0  0  0  0  0
   -1.0907    0.2995    1.8575 H   0  0  0  0  0  0  0  0  0  0  0  0
   -0.0313    1.6810    1.5314 H   0  0  0  0  0  0  0  0  0  0  0  0
   -1.7788    1.8711    1.4653 H   0  0  0  0  0  0  0  0  0  0  0  0
   -6.4626    5.5543   -0.4230 H   0  0  0  0  0  0  0  0  0  0  0  0
   -4.9079   10.6689    1.6078 H   0  0  0  0  0  0  0  0  0  0  0  0
  1  2  2  0  0  0  0
  2  3  1  0  0  0  0
  3  4  2  0  0  0  0
  3  5  1  0  0  0  0
  5  6  2  0  0  0  0
  6  7  1  0  0  0  0
  7  8  2  0  0  0  0
  8  9  1  0  0  0  0
  8 10  1  0  0  0  0
 10 11  2  0  0  0  0
 11 12  1  0  0  0  0
 12 13  2  0  0  0  0
 13 14  1  0  0  0  0
 14 15  3  0  0  0  0
 13 16  1  0  0  0  0
 16 17  3  0  0  0  0
  1 18  1  0  0  0  0
 18 19  2  0  0  0  0
 19 20  1  0  0  0  0
 20 21  1  0  0  0  0
 19 22  1  0  0  0  0
 22 23  1  0  0  0  0
 23 24  1  0  0  0  0
 24 25  1  0  0  0  0
 25 26  1  0  0  0  0
 26 27  1  0  0  0  0
 27 28  2  0  0  0  0
 28 29  1  0  0  0  0
 29 30  1  0  0  0  0
 27 31  1  0  0  0  0
 31 32  1  0  0  0  0
 32 33  1  0  0  0  0
 33 34  1  0  0  0  0
 34 35  1  0  0  0  0
 35 36  1  0  0  0  0
 36 37  1  0  0  0  0
 35 38  2  0  0  0  0
 38 39  1  0  0  0  0
 39 40  1  0  0  0  0
 40 41  1  0  0  0  0
 41 42  1  0  0  0  0
 42 43  1  0  0  0  0
 43 44  1  0  0  0  0
 44 45  1  0  0  0  0
 45 46  1  0  0  0  0
 46 47  1  0  0  0  0
 47 48  1  0  0  0  0
 45 49  1  0  0  0  0
 49 50  1  0  0  0  0
 42 51  1  0  0  0  0
 51 52  1  0  0  0  0
 38 53  1  0  0  0  0
 53 54  2  0  0  0  0
 54 55  1  0  0  0  0
 55 56  2  0  0  0  0
 55 57  1  0  0  0  0
 57 58  1  0  0  0  0
 58 59  1  0  0  0  0
 59 60  1  0  0  0  0
 59 61  2  0  0  0  0
 61 62  1  0  0  0  0
 62 63  1  0  0  0  0
 63 64  2  0  0  0  0
 64 65  1  0  0  0  0
 65 66  3  0  0  0  0
 64 67  1  0  0  0  0
 67 68  3  0  0  0  0
 12  2  1  0  0  0  0
 48 18  1  0  0  0  0
 63 54  1  0  0  0  0
 11  5  1  0  0  0  0
 47 22  2  0  0  0  0
 62 57  2  0  0  0  0
 46 24  2  0  0  0  0
 44 25  2  0  0  0  0
 30 26  2  0  0  0  0
 43 31  2  0  0  0  0
 41 32  2  0  0  0  0
 40 34  2  0  0  0  0
  1 69  1  0  0  0  0
  6 70  1  0  0  0  0
  7 71  1  0  0  0  0
 10 72  1  0  0  0  0
 20 73  1  0  0  0  0
 20 74  1  0  0  0  0
 21 75  1  0  0  0  0
 21 76  1  0  0  0  0
 21 77  1  0  0  0  0
 36 78  1  0  0  0  0
 36 79  1  0  0  0  0
 37 80  1  0  0  0  0
 37 81  1  0  0  0  0
 37 82  1  0  0  0  0
 49 83  1  0  0  0  0
 49 84  1  0  0  0  0
 50 85  1  0  0  0  0
 50 86  1  0  0  0  0
 50 87  1  0  0  0  0
 51 88  1  0  0  0  0
 51 89  1  0  0  0  0
 52 90  1  0  0  0  0
 52 91  1  0  0  0  0
 52 92  1  0  0  0  0
 53 93  1  0  0  0  0
 61 94  1  0  0  0  0
M  END
