97

C         -8.17190        0.74060        0.01880
C         -8.39500        2.03800        0.41590
C         -7.37190        3.05870        0.65300
O         -6.16060        2.92800        0.60000
C         -8.09920        4.30210        0.96820
C         -7.58850        5.55670        1.24060
C         -8.47640        6.58980        1.49580
C         -9.83820        6.32950        1.46980
F        -10.68530        7.34160        1.71520
C        -10.37400        5.07660        1.20080
C         -9.48210        4.04870        0.94620
C         -9.69750        2.63630        0.62280
C        -10.92290        2.02570        0.54570
C        -11.15110        0.66630        0.24680
N        -11.42210       -0.42640        0.01560
C        -12.15150        2.68440        0.76560
N        -13.18550        3.15380        0.93300
C         -6.98580        0.05600       -0.25660
C         -6.96260       -1.27100       -0.72460
C         -8.15160       -2.15660       -0.90400
C         -8.55890       -2.79190        0.42870
C         -5.66480       -1.69990       -0.96170
S         -5.01930       -3.20090       -1.60020
C         -3.43170       -2.52840       -1.48080
C         -2.11130       -2.87030       -1.79920
C         -1.58640       -3.97600       -2.50530
C         -0.19490       -3.97920       -2.84970
N          0.14520       -5.03440       -3.57250
S         -1.17210       -5.94850       -3.79680
N         -2.22700       -5.03210       -2.98040
C          0.63380       -2.95470       -2.33980
C          2.02640       -2.80600       -2.36020
S          3.41380       -3.56650       -3.05480
C          4.43360       -2.44720       -2.17730
C          5.81860       -2.29780       -2.10260
C          6.77240       -3.16510       -2.85560
C          7.10490       -4.42490       -2.05100
C          6.17570       -1.27170       -1.22760
S          4.76090       -0.51120       -0.49630
C          3.70910       -1.54230       -1.38620
C          2.33250       -1.72810       -1.51840
N          1.18060       -1.18300       -1.02190
C          0.11620       -1.89960       -1.53070
C         -1.29130       -1.77810       -1.38780
N         -2.10820       -0.78250       -0.87850
C         -3.40130       -1.23260       -0.95030
C         -4.67870       -0.74050       -0.66840
S         -5.36350        0.73630       -0.10450
C         -1.88600        0.64680       -0.80870
C         -1.81490        1.25530       -2.20740
C          1.25440       -0.20790        0.04160
C          1.59140        1.18660       -0.48490
C          7.48520       -0.95300       -0.82720
C          7.94270        0.04890       -0.01910
C          9.23230       -0.13860        0.69030
O         10.08500       -0.96250        0.45100
C          9.20820        0.85160        1.79250
C         10.10740        1.01340        2.82650
C          9.82210        2.00500        3.75390
F         10.66710        2.19640        4.78070
C          8.69320        2.80610        3.66640
C          7.80240        2.64110        2.61630
C          8.06150        1.65880        1.67350
C          7.34830        1.27590        0.45580
C          6.48540        2.07990       -0.24360
C          5.95450        3.28610        0.25130
N          5.46180        4.25470        0.62220
C          6.10860        1.81990       -1.57800
N          5.82990        1.67230       -2.68190
H         -9.05630        0.13710       -0.13280
H         -6.52190        5.71740        1.24930
H         -8.13310        7.58910        1.71160
H        -11.44340        4.94780        1.19570
H         -7.88490       -2.94670       -1.60880
H         -8.99790       -1.60390       -1.31420
H         -9.41320       -3.44520        0.27800
H         -7.73750       -3.37690        0.83570
H         -8.83450       -2.02810        1.15180
H          7.68620       -2.61680       -3.08430
H          6.30160       -3.45730       -3.79630
H          7.78350       -5.05690       -2.61720
H          6.19900       -4.98900       -1.84180
H          7.57820       -4.16600       -1.10660
H         -0.98450        0.87960       -0.25110
H         -2.73540        1.07040       -0.26710
H         -1.66580        2.32890       -2.13530
H         -2.74150        1.07080       -2.74590
H         -0.99450        0.82060       -2.77540
H          2.05360       -0.52650        0.72070
H          0.32150       -0.22590        0.60620
H          1.59260        1.90060        0.33390
H          2.58010        1.18610       -0.93660
H          0.87960        1.51300       -1.23760
H          8.24220       -1.68130       -1.10030
H         10.99010        0.39990        2.91060
H          8.52120        3.55510        4.42330
H          6.92380        3.26290        2.55420
