140

C          0.15980        3.10650        8.83930
C         -0.82130        3.41830        9.74260
C         -2.22460        2.94450        9.78350
O         -2.74240        2.03690        9.16680
C         -2.91170        3.82370       10.75060
C         -4.25200        3.83940       11.08920
C         -4.68800        4.77150       12.01680
C         -3.76950        5.65160       12.57070
F         -4.20960        6.55420       13.46120
C         -2.41850        5.65030       12.25090
C         -1.98940        4.71460       11.32390
C         -0.66550        4.43740       10.76850
C          0.50200        5.00650       11.20240
C          1.80080        4.68110       10.75380
N          2.89230        4.46680       10.46840
C          0.57260        5.99100       12.21220
N          0.70220        6.79670       13.01900
C          0.18450        2.20110        7.76150
C         -0.69310        1.20990        7.34570
C         -0.27140        0.60590        6.17100
S         -0.94320       -0.61440        5.13570
C          0.37480       -0.39890        4.01930
C          0.48740       -0.87600        2.69460
C          1.63630       -0.56800        1.98100
C          2.83160       -0.02360        2.72260
O          2.38070        0.91660        3.72250
C          1.31650        0.53730        4.44760
C          0.94140        1.10950        5.66690
S          1.58150        2.33750        6.68190
C          3.73060        0.73190        1.76340
C          4.82780        0.11600        1.17650
C          5.59450        0.79980        0.25170
C          5.28630        2.10510       -0.10810
C          6.14770        2.85180       -1.08410
C          7.31770        3.51990       -0.35890
C          4.19170        2.71560        0.49040
C          3.41660        2.03730        1.41150
C          3.57880       -1.14610        3.43240
C          4.40040       -0.82230        4.50420
C          5.09170       -1.81030        5.17780
C          4.98850       -3.14120        4.79230
C          5.70630       -4.21780        5.55300
C          4.84110       -4.72030        6.71090
C          4.17090       -3.45630        3.71520
C          3.47110       -2.47260        3.04050
C          1.47690       -0.84140        0.62290
S          2.43440       -0.56010       -0.79170
C          1.12750       -1.15840       -1.78390
C          0.98870       -1.03120       -3.18270
C         -0.29640       -1.15100       -3.71660
O         -1.37870       -1.48400       -2.99420
C         -1.12320       -2.23380       -1.78620
C         -0.79430       -3.66830       -2.18200
C          0.18160       -4.41170       -1.53390
C          0.44600       -5.70940       -1.93200
C         -0.25180       -6.29170       -2.98190
C          0.07620       -7.68130       -3.44480
C          1.15420       -7.64050       -4.53020
C         -1.22910       -5.54130       -3.62380
C         -1.50270       -4.24690       -3.22700
C         -2.37340       -2.15750       -0.93210
C         -2.76150       -3.22740       -0.13690
C         -3.86520       -3.11440        0.68730
C         -4.60240       -1.93880        0.73850
C         -5.82190       -1.83950        1.60760
C         -7.05130       -2.36320        0.86210
C         -4.21130       -0.87670       -0.06650
C         -3.10570       -0.97930       -0.88890
C          0.03720       -1.60860       -1.05280
C          0.22490       -1.40320        0.31310
S         -0.77090       -1.59100        1.71790
C         -0.32300       -0.76530       -5.05840
C          0.93440       -0.36250       -5.54970
S          2.17200       -0.49400       -4.33900
C          0.91650        0.08810       -6.85800
C         -0.36270        0.05130       -7.40250
S         -1.54370       -0.60660       -6.25510
C         -0.88090        0.44300       -8.64640
C         -0.32810        1.15080       -9.68650
C          0.99040        1.81500       -9.73820
O          1.92810        1.71070       -8.98060
C          0.94410        2.67790      -10.94620
C         -0.27280        2.48980      -11.62190
C         -0.55650        3.20490      -12.77320
C          0.39430        4.10470      -13.23340
F          0.13840        4.81110      -14.33700
C          1.60830        4.29860      -12.57830
F          2.49730        5.17460      -13.05400
C          1.88750        3.57340      -11.41780
F          3.04470        3.76450      -10.79210
C         -1.05590        1.49080      -10.89340
C         -2.23500        0.94860      -11.33580
C         -2.95780       -0.08740      -10.70480
N         -3.59950       -0.93910      -10.27870
C         -2.88190        1.32860      -12.53120
N         -3.46220        1.59450      -13.48500
H          1.07310        3.68540        8.91620
H         -4.93330        3.13870       10.63260
H         -5.72260        4.83030       12.31540
H         -1.76220        6.36520       12.71820
H         -1.59860        0.97120        7.87170
H          5.08200       -0.89990        1.43980
H          6.44280        0.30800       -0.20150
H          5.55610        3.61470       -1.59320
H          6.53650        2.16210       -1.83570
H          6.95000        4.22050        0.38730
H          7.94320        4.06040       -1.06520
H          7.92700        2.77300        0.14490
H          3.93690        3.73170        0.22590
H          2.56500        2.52040        1.86650
H          4.49160        0.21070        4.80610
H          5.72540       -1.54330        6.01090
H          5.93620       -5.05200        4.88730
H          6.64520       -3.82700        5.94950
H          4.61200       -3.90530        7.39380
H          3.90400       -5.12550        6.33560
H          5.36080       -5.49990        7.26250
H          4.07980       -4.48510        3.39760
H          2.84540       -2.74310        2.20210
H          0.73540       -3.98290       -0.71130
H          1.20720       -6.27780       -1.41720
H          0.43490       -8.27760       -2.60360
H         -0.81980       -8.15860       -3.84600
H          2.06090       -7.17810       -4.14650
H          1.39260       -8.64670       -4.86640
H          0.81000       -7.06140       -5.38410
H         -1.78650       -5.97690       -4.44030
H         -2.26840       -3.67260       -3.72750
H         -2.19920       -4.14890       -0.15930
H         -4.15420       -3.95230        1.30490
H         -5.67540       -2.42580        2.51680
H         -5.98980       -0.79980        1.89410
H         -6.90720       -3.40320        0.57840
H         -7.22100       -1.78310       -0.04210
H         -7.93540       -2.29350        1.49120
H         -4.77340        0.04580       -0.04290
H         -2.80800       -0.14540       -1.50650
H          1.77270        0.44840       -7.39700
H         -1.92380        0.17360       -8.76730
H         -1.47840        3.10030      -13.32040
