
  xtb     02012222173D
 energy: -182.778385777305 gnorm: 0.000423318908 xtb: 6.4.1 (unknown)
 97108  0     0  0            999 V2000
    8.4538   -0.2603   -0.4037 C   0  0  0  0  0  0  0  0  0  0  0  0
    8.8259   -0.7478   -1.6351 C   0  0  0  0  0  0  0  0  0  0  0  0
    7.9400   -0.9882   -2.7757 C   0  0  0  0  0  0  0  0  0  0  0  0
    6.7369   -0.7989   -2.8406 O   0  0  0  0  0  0  0  0  0  0  0  0
    8.7962   -1.5104   -3.8569 C   0  0  0  0  0  0  0  0  0  0  0  0
    8.4379   -1.8908   -5.1359 C   0  0  0  0  0  0  0  0  0  0  0  0
    9.4266   -2.3579   -5.9874 C   0  0  0  0  0  0  0  0  0  0  0  0
   10.7333   -2.4268   -5.5284 C   0  0  0  0  0  0  0  0  0  0  0  0
   11.6793   -2.8826   -6.3650 F   0  0  0  0  0  0  0  0  0  0  0  0
   11.1167   -2.0491   -4.2480 C   0  0  0  0  0  0  0  0  0  0  0  0
   10.1246   -1.5828   -3.4023 C   0  0  0  0  0  0  0  0  0  0  0  0
   10.1747   -1.1110   -2.0162 C   0  0  0  0  0  0  0  0  0  0  0  0
   11.3106   -1.0422   -1.2506 C   0  0  0  0  0  0  0  0  0  0  0  0
   12.5942   -1.4160   -1.7024 C   0  0  0  0  0  0  0  0  0  0  0  0
   13.6656   -1.7008   -2.0002 N   0  0  0  0  0  0  0  0  0  0  0  0
   11.3816   -0.5970    0.0857 C   0  0  0  0  0  0  0  0  0  0  0  0
   11.5277   -0.2522    1.1723 N   0  0  0  0  0  0  0  0  0  0  0  0
    7.2047    0.1115    0.0972 C   0  0  0  0  0  0  0  0  0  0  0  0
    7.0131    0.5668    1.4152 C   0  0  0  0  0  0  0  0  0  0  0  0
    8.0723    0.6846    2.4613 C   0  0  0  0  0  0  0  0  0  0  0  0
    8.3055   -0.6621    3.1520 C   0  0  0  0  0  0  0  0  0  0  0  0
    5.6770    0.8443    1.6651 C   0  0  0  0  0  0  0  0  0  0  0  0
    4.8375    1.4047    3.1003 S   0  0  0  0  0  0  0  0  0  0  0  0
    3.3535    1.3430    2.2152 C   0  0  0  0  0  0  0  0  0  0  0  0
    1.9856    1.5529    2.4251 C   0  0  0  0  0  0  0  0  0  0  0  0
    1.2723    1.8637    3.6041 C   0  0  0  0  0  0  0  0  0  0  0  0
   -0.1591    1.8808    3.5607 C   0  0  0  0  0  0  0  0  0  0  0  0
   -0.6989    2.1290    4.7436 N   0  0  0  0  0  0  0  0  0  0  0  0
    0.4941    2.3296    5.8191 S   0  0  0  0  0  0  0  0  0  0  0  0
    1.7450    2.1046    4.8168 N   0  0  0  0  0  0  0  0  0  0  0  0
   -0.8050    1.6913    2.3190 C   0  0  0  0  0  0  0  0  0  0  0  0
   -2.1622    1.7545    1.9769 C   0  0  0  0  0  0  0  0  0  0  0  0
   -3.6961    1.9721    2.7410 S   0  0  0  0  0  0  0  0  0  0  0  0
   -4.4683    1.8696    1.1740 C   0  0  0  0  0  0  0  0  0  0  0  0
   -5.8105    1.9395    0.7756 C   0  0  0  0  0  0  0  0  0  0  0  0
   -6.9149    2.2880    1.7203 C   0  0  0  0  0  0  0  0  0  0  0  0
   -7.0683    1.2639    2.8446 C   0  0  0  0  0  0  0  0  0  0  0  0
   -5.9263    1.8219   -0.6043 C   0  0  0  0  0  0  0  0  0  0  0  0
   -4.3569    1.6734   -1.3990 S   0  0  0  0  0  0  0  0  0  0  0  0
   -3.5549    1.6956    0.1244 C   0  0  0  0  0  0  0  0  0  0  0  0
   -2.2384    1.6142    0.5869 C   0  0  0  0  0  0  0  0  0  0  0  0
   -0.9860    1.4386    0.0629 N   0  0  0  0  0  0  0  0  0  0  0  0
   -0.0802    1.4675    1.1116 C   0  0  0  0  0  0  0  0  0  0  0  0
    1.3277    1.2913    1.1850 C   0  0  0  0  0  0  0  0  0  0  0  0
    2.2838    0.9030    0.2637 N   0  0  0  0  0  0  0  0  0  0  0  0
    3.5024    0.9248    0.8869 C   0  0  0  0  0  0  0  0  0  0  0  0
    4.8292    0.6288    0.5636 C   0  0  0  0  0  0  0  0  0  0  0  0
    5.6930    0.0588   -0.8139 S   0  0  0  0  0  0  0  0  0  0  0  0
    2.1480    0.2108   -0.9989 C   0  0  0  0  0  0  0  0  0  0  0  0
    1.4153   -1.1179   -0.8316 C   0  0  0  0  0  0  0  0  0  0  0  0
   -0.7776    1.6243   -1.3564 C   0  0  0  0  0  0  0  0  0  0  0  0
   -0.0453    2.9316   -1.6481 C   0  0  0  0  0  0  0  0  0  0  0  0
   -7.0513    1.9222   -1.4542 C   0  0  0  0  0  0  0  0  0  0  0  0
   -8.2947    1.4029   -1.2228 C   0  0  0  0  0  0  0  0  0  0  0  0
   -8.5559    0.2537   -0.3236 C   0  0  0  0  0  0  0  0  0  0  0  0
   -7.7673   -0.3169    0.3980 O   0  0  0  0  0  0  0  0  0  0  0  0
   -9.9465   -0.1560   -0.6092 C   0  0  0  0  0  0  0  0  0  0  0  0
  -10.6665   -1.1973   -0.0544 C   0  0  0  0  0  0  0  0  0  0  0  0
  -11.9628   -1.4133   -0.4943 C   0  0  0  0  0  0  0  0  0  0  0  0
  -12.4890   -0.5880   -1.4774 C   0  0  0  0  0  0  0  0  0  0  0  0
  -13.7430   -0.8175   -1.8976 F   0  0  0  0  0  0  0  0  0  0  0  0
  -11.7847    0.4611   -2.0528 C   0  0  0  0  0  0  0  0  0  0  0  0
  -10.4920    0.6745   -1.6044 C   0  0  0  0  0  0  0  0  0  0  0  0
   -9.4923    1.6696   -1.9874 C   0  0  0  0  0  0  0  0  0  0  0  0
   -9.6863    2.7203   -2.8453 C   0  0  0  0  0  0  0  0  0  0  0  0
  -10.8836    2.9549   -3.5525 C   0  0  0  0  0  0  0  0  0  0  0  0
  -11.8300    3.1904   -4.1576 N   0  0  0  0  0  0  0  0  0  0  0  0
   -8.7257    3.7203   -3.1061 C   0  0  0  0  0  0  0  0  0  0  0  0
   -8.0007    4.5786   -3.3429 N   0  0  0  0  0  0  0  0  0  0  0  0
    9.2524   -0.1455    0.3163 H   0  0  0  0  0  0  0  0  0  0  0  0
    7.4093   -1.8219   -5.4538 H   0  0  0  0  0  0  0  0  0  0  0  0
    9.2035   -2.6684   -6.9957 H   0  0  0  0  0  0  0  0  0  0  0  0
   12.1515   -2.1294   -3.9597 H   0  0  0  0  0  0  0  0  0  0  0  0
    7.7382    1.4119    3.2039 H   0  0  0  0  0  0  0  0  0  0  0  0
    9.0110    1.0393    2.0335 H   0  0  0  0  0  0  0  0  0  0  0  0
    8.6405   -1.4094    2.4365 H   0  0  0  0  0  0  0  0  0  0  0  0
    9.0675   -0.5545    3.9184 H   0  0  0  0  0  0  0  0  0  0  0  0
    7.3871   -1.0123    3.6175 H   0  0  0  0  0  0  0  0  0  0  0  0
   -7.8532    2.3832    1.1732 H   0  0  0  0  0  0  0  0  0  0  0  0
   -6.6769    3.2622    2.1600 H   0  0  0  0  0  0  0  0  0  0  0  0
   -6.1652    1.2171    3.4470 H   0  0  0  0  0  0  0  0  0  0  0  0
   -7.2628    0.2803    2.4276 H   0  0  0  0  0  0  0  0  0  0  0  0
   -7.8995    1.5463    3.4855 H   0  0  0  0  0  0  0  0  0  0  0  0
    1.6637    0.8498   -1.7370 H   0  0  0  0  0  0  0  0  0  0  0  0
    3.1618    0.0186   -1.3581 H   0  0  0  0  0  0  0  0  0  0  0  0
    0.4263   -0.9749   -0.4021 H   0  0  0  0  0  0  0  0  0  0  0  0
    1.9803   -1.7713   -0.1711 H   0  0  0  0  0  0  0  0  0  0  0  0
    1.3142   -1.6077   -1.7961 H   0  0  0  0  0  0  0  0  0  0  0  0
   -1.7697    1.6592   -1.8130 H   0  0  0  0  0  0  0  0  0  0  0  0
   -0.2592    0.7666   -1.7850 H   0  0  0  0  0  0  0  0  0  0  0  0
    0.9177    2.9667   -1.1441 H   0  0  0  0  0  0  0  0  0  0  0  0
    0.1130    3.0361   -2.7179 H   0  0  0  0  0  0  0  0  0  0  0  0
   -0.6390    3.7748   -1.3030 H   0  0  0  0  0  0  0  0  0  0  0  0
   -6.8699    2.4182   -2.4015 H   0  0  0  0  0  0  0  0  0  0  0  0
  -10.2206   -1.8203    0.7051 H   0  0  0  0  0  0  0  0  0  0  0  0
  -12.5698   -2.2089   -0.0923 H   0  0  0  0  0  0  0  0  0  0  0  0
  -12.2501    1.0602   -2.8180 H   0  0  0  0  0  0  0  0  0  0  0  0
  1  2  2  0  0  0  0
  2  3  1  0  0  0  0
  3  4  2  0  0  0  0
  3  5  1  0  0  0  0
  5  6  2  0  0  0  0
  6  7  1  0  0  0  0
  7  8  2  0  0  0  0
  8  9  1  0  0  0  0
  8 10  1  0  0  0  0
 10 11  2  0  0  0  0
 11 12  1  0  0  0  0
 12 13  2  0  0  0  0
 13 14  1  0  0  0  0
 14 15  3  0  0  0  0
 13 16  1  0  0  0  0
 16 17  3  0  0  0  0
  1 18  1  0  0  0  0
 18 19  2  0  0  0  0
 19 20  1  0  0  0  0
 20 21  1  0  0  0  0
 19 22  1  0  0  0  0
 22 23  1  0  0  0  0
 23 24  1  0  0  0  0
 24 25  1  0  0  0  0
 25 26  1  0  0  0  0
 26 27  1  0  0  0  0
 27 28  2  0  0  0  0
 28 29  1  0  0  0  0
 29 30  1  0  0  0  0
 27 31  1  0  0  0  0
 31 32  1  0  0  0  0
 32 33  1  0  0  0  0
 33 34  1  0  0  0  0
 34 35  1  0  0  0  0
 35 36  1  0  0  0  0
 36 37  1  0  0  0  0
 35 38  2  0  0  0  0
 38 39  1  0  0  0  0
 39 40  1  0  0  0  0
 40 41  1  0  0  0  0
 41 42  1  0  0  0  0
 42 43  1  0  0  0  0
 43 44  1  0  0  0  0
 44 45  1  0  0  0  0
 45 46  1  0  0  0  0
 46 47  1  0  0  0  0
 47 48  1  0  0  0  0
 45 49  1  0  0  0  0
 49 50  1  0  0  0  0
 42 51  1  0  0  0  0
 51 52  1  0  0  0  0
 38 53  1  0  0  0  0
 53 54  2  0  0  0  0
 54 55  1  0  0  0  0
 55 56  2  0  0  0  0
 55 57  1  0  0  0  0
 57 58  2  0  0  0  0
 58 59  1  0  0  0  0
 59 60  2  0  0  0  0
 60 61  1  0  0  0  0
 60 62  1  0  0  0  0
 62 63  2  0  0  0  0
 63 64  1  0  0  0  0
 64 65  2  0  0  0  0
 65 66  1  0  0  0  0
 66 67  3  0  0  0  0
 65 68  1  0  0  0  0
 68 69  3  0  0  0  0
 12  2  1  0  0  0  0
 48 18  1  0  0  0  0
 64 54  1  0  0  0  0
 11  5  1  0  0  0  0
 47 22  2  0  0  0  0
 63 57  1  0  0  0  0
 46 24  2  0  0  0  0
 44 25  2  0  0  0  0
 30 26  2  0  0  0  0
 43 31  2  0  0  0  0
 41 32  2  0  0  0  0
 40 34  2  0  0  0  0
  1 70  1  0  0  0  0
  6 71  1  0  0  0  0
  7 72  1  0  0  0  0
 10 73  1  0  0  0  0
 20 74  1  0  0  0  0
 20 75  1  0  0  0  0
 21 76  1  0  0  0  0
 21 77  1  0  0  0  0
 21 78  1  0  0  0  0
 36 79  1  0  0  0  0
 36 80  1  0  0  0  0
 37 81  1  0  0  0  0
 37 82  1  0  0  0  0
 37 83  1  0  0  0  0
 49 84  1  0  0  0  0
 49 85  1  0  0  0  0
 50 86  1  0  0  0  0
 50 87  1  0  0  0  0
 50 88  1  0  0  0  0
 51 89  1  0  0  0  0
 51 90  1  0  0  0  0
 52 91  1  0  0  0  0
 52 92  1  0  0  0  0
 52 93  1  0  0  0  0
 53 94  1  0  0  0  0
 58 95  1  0  0  0  0
 59 96  1  0  0  0  0
 62 97  1  0  0  0  0
M  END
