
  xtb     02012221533D
 energy: -188.150236479095 gnorm: 0.000443913129 xtb: 6.4.1 (unknown)
103115  0     0  0            999 V2000
   -5.6596    4.4233   -4.6423 C   0  0  0  0  0  0  0  0  0  0  0  0
   -6.7328    3.6127   -4.4054 C   0  0  0  0  0  0  0  0  0  0  0  0
   -7.7688    3.4384   -5.4541 C   0  0  0  0  0  0  0  0  0  0  0  0
   -7.9181    4.1102   -6.4497 O   0  0  0  0  0  0  0  0  0  0  0  0
   -8.5280    2.2354   -5.0469 C   0  0  0  0  0  0  0  0  0  0  0  0
   -9.5276    1.5665   -5.7275 C   0  0  0  0  0  0  0  0  0  0  0  0
  -10.0752    0.4307   -5.1514 C   0  0  0  0  0  0  0  0  0  0  0  0
   -9.6064    0.0033   -3.9180 C   0  0  0  0  0  0  0  0  0  0  0  0
  -10.1385   -1.1079   -3.3832 F   0  0  0  0  0  0  0  0  0  0  0  0
   -8.6123    0.6634   -3.2084 C   0  0  0  0  0  0  0  0  0  0  0  0
   -8.0714    1.7962   -3.7901 C   0  0  0  0  0  0  0  0  0  0  0  0
   -7.0592    2.7351   -3.3069 C   0  0  0  0  0  0  0  0  0  0  0  0
   -6.7190    2.9237   -1.9920 C   0  0  0  0  0  0  0  0  0  0  0  0
   -7.1043    2.0644   -0.9453 C   0  0  0  0  0  0  0  0  0  0  0  0
   -7.3582    1.3780   -0.0607 N   0  0  0  0  0  0  0  0  0  0  0  0
   -6.0094    4.0558   -1.5393 C   0  0  0  0  0  0  0  0  0  0  0  0
   -5.4836    4.9922   -1.1334 N   0  0  0  0  0  0  0  0  0  0  0  0
   -4.3871    4.4120   -4.0398 C   0  0  0  0  0  0  0  0  0  0  0  0
   -3.4170    5.4063   -4.1318 C   0  0  0  0  0  0  0  0  0  0  0  0
   -3.5827    6.7087   -4.8423 C   0  0  0  0  0  0  0  0  0  0  0  0
   -3.0935    6.5963   -6.2890 C   0  0  0  0  0  0  0  0  0  0  0  0
   -2.2450    5.0393   -3.4685 C   0  0  0  0  0  0  0  0  0  0  0  0
   -0.7350    5.8788   -3.1983 S   0  0  0  0  0  0  0  0  0  0  0  0
   -0.1752    4.5242   -2.2847 C   0  0  0  0  0  0  0  0  0  0  0  0
    0.9253    4.1646   -1.4955 C   0  0  0  0  0  0  0  0  0  0  0  0
    2.0515    4.9079   -1.0755 C   0  0  0  0  0  0  0  0  0  0  0  0
    2.9104    4.3541   -0.0684 C   0  0  0  0  0  0  0  0  0  0  0  0
    3.8735    5.1892    0.2878 N   0  0  0  0  0  0  0  0  0  0  0  0
    3.7191    6.5504   -0.5735 S   0  0  0  0  0  0  0  0  0  0  0  0
    2.4138    6.1293   -1.4336 N   0  0  0  0  0  0  0  0  0  0  0  0
    2.6846    3.0303    0.3710 C   0  0  0  0  0  0  0  0  0  0  0  0
    3.3963    2.2105    1.2583 C   0  0  0  0  0  0  0  0  0  0  0  0
    4.7493    2.3033    2.3316 S   0  0  0  0  0  0  0  0  0  0  0  0
    4.5197    0.6069    2.7169 C   0  0  0  0  0  0  0  0  0  0  0  0
    5.1917   -0.2591    3.5701 C   0  0  0  0  0  0  0  0  0  0  0  0
    6.3816    0.1562    4.3722 C   0  0  0  0  0  0  0  0  0  0  0  0
    7.6816   -0.2089    3.6502 C   0  0  0  0  0  0  0  0  0  0  0  0
    4.6394   -1.5505    3.5259 C   0  0  0  0  0  0  0  0  0  0  0  0
    3.2744   -1.6559    2.4137 S   0  0  0  0  0  0  0  0  0  0  0  0
    3.4459    0.0150    2.0316 C   0  0  0  0  0  0  0  0  0  0  0  0
    2.8025    0.9437    1.2093 C   0  0  0  0  0  0  0  0  0  0  0  0
    1.7339    0.9553    0.3503 N   0  0  0  0  0  0  0  0  0  0  0  0
    1.6259    2.2367   -0.1604 C   0  0  0  0  0  0  0  0  0  0  0  0
    0.6604    2.8585   -0.9916 C   0  0  0  0  0  0  0  0  0  0  0  0
   -0.5886    2.4632   -1.4303 N   0  0  0  0  0  0  0  0  0  0  0  0
   -1.0949    3.4681   -2.2119 C   0  0  0  0  0  0  0  0  0  0  0  0
   -2.2821    3.7648   -2.8823 C   0  0  0  0  0  0  0  0  0  0  0  0
   -3.8009    2.9997   -3.1580 S   0  0  0  0  0  0  0  0  0  0  0  0
   -1.4670    1.4307   -0.9253 C   0  0  0  0  0  0  0  0  0  0  0  0
   -1.7585    0.3600   -1.9768 C   0  0  0  0  0  0  0  0  0  0  0  0
    1.3135   -0.3034   -0.2276 C   0  0  0  0  0  0  0  0  0  0  0  0
    2.3797   -0.8526   -1.1749 C   0  0  0  0  0  0  0  0  0  0  0  0
    5.1238   -2.6091    4.3036 C   0  0  0  0  0  0  0  0  0  0  0  0
    4.7454   -3.9256    4.3726 C   0  0  0  0  0  0  0  0  0  0  0  0
    3.7156   -4.5796    3.5592 C   0  0  0  0  0  0  0  0  0  0  0  0
    2.9892   -4.0472    2.7335 O   0  0  0  0  0  0  0  0  0  0  0  0
    3.7353   -6.0023    3.9365 C   0  0  0  0  0  0  0  0  0  0  0  0
    4.6903   -6.1989    4.9330 C   0  0  0  0  0  0  0  0  0  0  0  0
    4.9044   -7.4771    5.4652 C   0  0  0  0  0  0  0  0  0  0  0  0
    4.1618   -8.5253    4.9865 C   0  0  0  0  0  0  0  0  0  0  0  0
    3.1904   -8.3579    3.9764 C   0  0  0  0  0  0  0  0  0  0  0  0
    2.4350   -9.4431    3.4869 C   0  0  0  0  0  0  0  0  0  0  0  0
    1.5014   -9.2562    2.5054 C   0  0  0  0  0  0  0  0  0  0  0  0
    1.2781   -7.9776    1.9691 C   0  0  0  0  0  0  0  0  0  0  0  0
    1.9900   -6.9001    2.4183 C   0  0  0  0  0  0  0  0  0  0  0  0
    2.9604   -7.0625    3.4284 C   0  0  0  0  0  0  0  0  0  0  0  0
    5.3312   -4.9228    5.2452 C   0  0  0  0  0  0  0  0  0  0  0  0
    6.2898   -4.7288    6.2067 C   0  0  0  0  0  0  0  0  0  0  0  0
    6.8111   -5.7442    7.0361 C   0  0  0  0  0  0  0  0  0  0  0  0
    7.2876   -6.5095    7.7473 N   0  0  0  0  0  0  0  0  0  0  0  0
    6.8970   -3.4968    6.5284 C   0  0  0  0  0  0  0  0  0  0  0  0
    7.4391   -2.5382    6.8574 N   0  0  0  0  0  0  0  0  0  0  0  0
   -5.7817    5.1054   -5.4775 H   0  0  0  0  0  0  0  0  0  0  0  0
   -9.8674    1.9286   -6.6851 H   0  0  0  0  0  0  0  0  0  0  0  0
  -10.8562   -0.1286   -5.6415 H   0  0  0  0  0  0  0  0  0  0  0  0
   -8.2892    0.2815   -2.2537 H   0  0  0  0  0  0  0  0  0  0  0  0
   -4.6272    7.0194   -4.8249 H   0  0  0  0  0  0  0  0  0  0  0  0
   -2.9896    7.4631   -4.3219 H   0  0  0  0  0  0  0  0  0  0  0  0
   -3.6677    5.8500   -6.8333 H   0  0  0  0  0  0  0  0  0  0  0  0
   -2.0445    6.3108   -6.3120 H   0  0  0  0  0  0  0  0  0  0  0  0
   -3.2033    7.5530   -6.7923 H   0  0  0  0  0  0  0  0  0  0  0  0
    6.3409    1.2391    4.5053 H   0  0  0  0  0  0  0  0  0  0  0  0
    6.3720   -0.3093    5.3590 H   0  0  0  0  0  0  0  0  0  0  0  0
    7.7260    0.2811    2.6802 H   0  0  0  0  0  0  0  0  0  0  0  0
    8.5338    0.1112    4.2427 H   0  0  0  0  0  0  0  0  0  0  0  0
    7.7503   -1.2839    3.4995 H   0  0  0  0  0  0  0  0  0  0  0  0
   -1.0327    1.0082   -0.0187 H   0  0  0  0  0  0  0  0  0  0  0  0
   -2.4126    1.9082   -0.6434 H   0  0  0  0  0  0  0  0  0  0  0  0
   -2.3581    0.7785   -2.7806 H   0  0  0  0  0  0  0  0  0  0  0  0
   -2.3145   -0.4563   -1.5244 H   0  0  0  0  0  0  0  0  0  0  0  0
   -0.8437   -0.0344   -2.4142 H   0  0  0  0  0  0  0  0  0  0  0  0
    1.1535   -1.0077    0.5940 H   0  0  0  0  0  0  0  0  0  0  0  0
    0.3877   -0.1764   -0.7746 H   0  0  0  0  0  0  0  0  0  0  0  0
    3.3090   -1.0369   -0.6429 H   0  0  0  0  0  0  0  0  0  0  0  0
    2.5720   -0.1459   -1.9802 H   0  0  0  0  0  0  0  0  0  0  0  0
    2.0379   -1.7904   -1.6038 H   0  0  0  0  0  0  0  0  0  0  0  0
    5.9415   -2.3200    4.9494 H   0  0  0  0  0  0  0  0  0  0  0  0
    5.6392   -7.6419    6.2353 H   0  0  0  0  0  0  0  0  0  0  0  0
    4.3176   -9.5166    5.3870 H   0  0  0  0  0  0  0  0  0  0  0  0
    2.6090  -10.4253    3.9020 H   0  0  0  0  0  0  0  0  0  0  0  0
    0.9278  -10.0930    2.1350 H   0  0  0  0  0  0  0  0  0  0  0  0
    0.5357   -7.8524    1.1950 H   0  0  0  0  0  0  0  0  0  0  0  0
    1.8264   -5.9139    2.0136 H   0  0  0  0  0  0  0  0  0  0  0  0
  1  2  2  0  0  0  0
  2  3  1  0  0  0  0
  3  4  2  0  0  0  0
  3  5  1  0  0  0  0
  5  6  2  0  0  0  0
  6  7  1  0  0  0  0
  7  8  2  0  0  0  0
  8  9  1  0  0  0  0
  8 10  1  0  0  0  0
 10 11  2  0  0  0  0
 11 12  1  0  0  0  0
 12 13  2  0  0  0  0
 13 14  1  0  0  0  0
 14 15  3  0  0  0  0
 13 16  1  0  0  0  0
 16 17  3  0  0  0  0
  1 18  1  0  0  0  0
 18 19  2  0  0  0  0
 19 20  1  0  0  0  0
 20 21  1  0  0  0  0
 19 22  1  0  0  0  0
 22 23  1  0  0  0  0
 23 24  1  0  0  0  0
 24 25  1  0  0  0  0
 25 26  1  0  0  0  0
 26 27  1  0  0  0  0
 27 28  2  0  0  0  0
 28 29  1  0  0  0  0
 29 30  1  0  0  0  0
 27 31  1  0  0  0  0
 31 32  1  0  0  0  0
 32 33  1  0  0  0  0
 33 34  1  0  0  0  0
 34 35  1  0  0  0  0
 35 36  1  0  0  0  0
 36 37  1  0  0  0  0
 35 38  2  0  0  0  0
 38 39  1  0  0  0  0
 39 40  1  0  0  0  0
 40 41  1  0  0  0  0
 41 42  1  0  0  0  0
 42 43  1  0  0  0  0
 43 44  1  0  0  0  0
 44 45  1  0  0  0  0
 45 46  1  0  0  0  0
 46 47  1  0  0  0  0
 47 48  1  0  0  0  0
 45 49  1  0  0  0  0
 49 50  1  0  0  0  0
 42 51  1  0  0  0  0
 51 52  1  0  0  0  0
 38 53  1  0  0  0  0
 53 54  2  0  0  0  0
 54 55  1  0  0  0  0
 55 56  2  0  0  0  0
 55 57  1  0  0  0  0
 57 58  2  0  0  0  0
 58 59  1  0  0  0  0
 59 60  2  0  0  0  0
 60 61  1  0  0  0  0
 61 62  2  0  0  0  0
 62 63  1  0  0  0  0
 63 64  2  0  0  0  0
 64 65  1  0  0  0  0
 65 66  2  0  0  0  0
 58 67  1  0  0  0  0
 67 68  2  0  0  0  0
 68 69  1  0  0  0  0
 69 70  3  0  0  0  0
 68 71  1  0  0  0  0
 71 72  3  0  0  0  0
 12  2  1  0  0  0  0
 48 18  1  0  0  0  0
 67 54  1  0  0  0  0
 11  5  1  0  0  0  0
 47 22  2  0  0  0  0
 66 57  1  0  0  0  0
 46 24  2  0  0  0  0
 66 61  1  0  0  0  0
 44 25  2  0  0  0  0
 30 26  2  0  0  0  0
 43 31  2  0  0  0  0
 41 32  2  0  0  0  0
 40 34  2  0  0  0  0
  1 73  1  0  0  0  0
  6 74  1  0  0  0  0
  7 75  1  0  0  0  0
 10 76  1  0  0  0  0
 20 77  1  0  0  0  0
 20 78  1  0  0  0  0
 21 79  1  0  0  0  0
 21 80  1  0  0  0  0
 21 81  1  0  0  0  0
 36 82  1  0  0  0  0
 36 83  1  0  0  0  0
 37 84  1  0  0  0  0
 37 85  1  0  0  0  0
 37 86  1  0  0  0  0
 49 87  1  0  0  0  0
 49 88  1  0  0  0  0
 50 89  1  0  0  0  0
 50 90  1  0  0  0  0
 50 91  1  0  0  0  0
 51 92  1  0  0  0  0
 51 93  1  0  0  0  0
 52 94  1  0  0  0  0
 52 95  1  0  0  0  0
 52 96  1  0  0  0  0
 53 97  1  0  0  0  0
 59 98  1  0  0  0  0
 60 99  1  0  0  0  0
 62100  1  0  0  0  0
 63101  1  0  0  0  0
 64102  1  0  0  0  0
 65103  1  0  0  0  0
M  END
