97

C         -6.06830       -4.18580        3.90520
C         -5.33530       -5.22120        4.40820
C         -5.71460       -5.83080        5.70820
O         -6.75650       -5.68290        6.30540
C         -4.52280       -6.59740        6.13340
C         -4.29450       -7.25930        7.32510
C         -3.07250       -7.88740        7.51000
C         -2.12270       -7.83280        6.50050
F         -0.93940       -8.43390        6.70480
C         -2.33130       -7.18570        5.29000
C         -3.55360       -6.56200        5.11330
C         -4.10680       -5.83970        3.96820
C         -3.69060       -5.97710        2.66930
C         -2.50820       -6.63720        2.28340
N         -1.53920       -7.13050        1.91520
C         -4.45410       -5.53470        1.56830
N         -5.07510       -5.23700        0.64980
C         -5.68460       -3.19670        2.97790
C         -6.52940       -2.33080        2.29110
C         -8.02000       -2.33590        2.37290
C         -8.49910       -1.37300        3.46280
C         -5.80860       -1.43510        1.49820
S         -6.30910       -0.17380        0.39480
C         -4.64770        0.13310        0.03560
C         -3.87970        0.93930       -0.81330
C         -4.27860        1.85690       -1.81000
C         -3.27550        2.44920       -2.64190
N         -3.78930        3.24530       -3.56610
S         -5.39920        3.25190       -3.39900
N         -5.50230        2.23760       -2.14150
C         -1.91720        2.17240       -2.37100
C         -0.75260        2.68070       -2.95640
S         -0.29140        3.73250       -4.24840
C          1.38730        3.48680       -3.80140
C          2.57190        3.98380       -4.32430
C          2.61590        4.86520       -5.52910
C          2.84990        4.03890       -6.79720
C          3.68790        3.50190       -3.61410
S          3.22120        2.43200       -2.28910
C          1.55950        2.62840       -2.70030
C          0.32760        2.16510       -2.22920
N         -0.12800        1.33690       -1.23950
C         -1.50980        1.31120       -1.30660
C         -2.51100        0.61050       -0.58050
N         -2.46570       -0.38870        0.37900
C         -3.75290       -0.68230        0.73960
C         -4.41600       -1.58120        1.57690
S         -3.98300       -2.84830        2.66070
C         -1.41270       -1.32250        0.71440
C         -0.99330       -2.15110       -0.49690
C          0.77450        0.93740       -0.18210
C          0.46340        1.66710        1.12220
C          5.00040        3.84390       -3.94580
C          6.20140        3.48280       -3.38010
C          6.37500        2.61440       -2.21330
O          5.50450        2.06890       -1.56020
C          7.83150        2.53690       -1.98170
C          8.55320        1.86220       -1.01460
F          7.93720        1.13010       -0.08050
C          9.94060        1.94020       -1.00330
C         10.58920        2.69470       -1.96480
C          9.88470        3.38330       -2.94570
C          8.50220        3.30480       -2.95180
C          7.50450        3.91190       -3.83710
C          7.79220        4.73680       -4.89540
C          6.84890        5.33640       -5.75540
N          6.14870        5.86300       -6.49920
C          9.09610        5.11220       -5.28190
N         10.12390        5.46230       -5.65510
H         -7.04800       -4.05990        4.35470
H         -5.05670       -7.28070        8.08800
H         -2.84340       -8.41560        8.42180
H         -1.55350       -7.17640        4.54390
H         -8.41960       -2.01340        1.40950
H         -8.38460       -3.34240        2.57750
H         -8.11260       -1.66880        4.43550
H         -8.16080       -0.36190        3.24880
H         -9.58480       -1.37330        3.50650
H          1.65540        5.37770       -5.61130
H          3.39920        5.61890       -5.43850
H          2.05570        3.30690       -6.92370
H          3.80140        3.51500       -6.74630
H          2.86440        4.69320       -7.66390
H         -0.56700       -0.80270        1.16310
H         -1.82100       -1.98800        1.47900
H         -0.19380       -2.83280       -0.22010
H         -0.65050       -1.51550       -1.31020
H         -1.83650       -2.73740       -0.85500
H          1.77980        1.20870       -0.51250
H          0.76220       -0.14480       -0.05460
H          1.15040        1.34260        1.89880
H          0.58190        2.73920        0.98370
H         -0.55660        1.47860        1.45010
H          5.06470        4.50630       -4.79790
H         10.49140        1.40930       -0.24310
H         11.66660        2.75130       -1.95340
H         10.42010        3.96220       -3.67910
