94

C          1.84030       -4.66460       -5.76760
C          0.77300       -4.44110       -6.58890
C          0.94170       -4.54290       -8.06060
O          1.87380       -5.03530       -8.65470
C         -0.23950       -3.85680       -8.62940
C         -0.51990       -3.55910       -9.94960
C         -1.68870       -2.87230      -10.23970
C         -2.53550       -2.50770       -9.20330
F         -3.65530       -1.82970       -9.50290
C         -2.28320       -2.80450       -7.87070
C         -1.11460       -3.48990       -7.58990
C         -0.57100       -3.98470       -6.32530
C         -1.30160       -4.23470       -5.19230
C         -2.63230       -3.81580       -5.00210
N         -3.70400       -3.46700       -4.78340
C         -0.81340       -5.01510       -4.12320
N         -0.46540       -5.68980       -3.26200
C          2.05820       -4.20860       -4.45300
C          3.04010       -4.65130       -3.57190
C          4.00650       -5.75630       -3.84290
C          5.30590       -5.19700       -4.42940
C          3.02680       -3.92080       -2.38170
S          3.98350       -4.02830       -0.92120
C          3.07590       -2.71460       -0.26130
C          2.98690       -1.97750        0.92630
C          3.67180       -2.12560        2.15270
C          3.30280       -1.28890        3.25460
N          3.98920       -1.56560        4.35210
S          5.01480       -2.77370        4.02440
N          4.62270       -2.99050        2.46880
C          2.33830       -0.27770        3.04870
C          1.88820        0.73880        3.89900
S          2.11520        1.28070        5.52520
C          1.04440        2.62940        5.18890
C          0.61520        3.69590        5.96640
C          0.98990        3.85400        7.40340
C         -0.10010        3.28440        8.31580
C         -0.23910        4.54680        5.24180
S         -0.48870        3.98740        3.58650
C          0.54200        2.63690        3.87570
C          1.02500        1.54580        3.14750
N          0.90240        1.04600        1.87980
C          1.69660       -0.08290        1.78770
C          1.95490       -1.01000        0.74250
N          1.41690       -1.18680       -0.52280
C          2.09150       -2.21530       -1.12310
C          2.06110       -2.90480       -2.33620
S          1.14700       -2.84670       -3.79460
C          0.13990       -0.77400       -1.06450
C         -1.01990       -1.27270       -0.20680
C          0.30660        1.86710        0.84960
C          1.36090        2.40830       -0.11260
C         -0.80220        5.70290        5.78860
C         -1.64180        6.64610        5.24560
C         -2.17990        6.64660        3.87670
O         -1.97250        5.82610        2.99920
C         -3.01770        7.84730        3.78440
C         -3.79170        8.45910        2.85340
S         -4.49520        9.89780        3.49580
C         -3.73860        9.67270        5.03030
C         -2.98360        8.54100        5.03710
C         -2.13150        7.81240        5.95790
C         -1.87090        8.20950        7.24540
C         -2.43620        9.38890        7.77210
N         -2.88630       10.34590        8.21830
C         -1.04870        7.54270        8.17240
N         -0.39080        7.04920        8.97560
H          2.67360       -5.18020       -6.23410
H          0.16220       -3.85860      -10.72970
H         -1.95320       -2.61370      -11.25270
H         -2.97910       -2.49280       -7.10910
H          4.22770       -6.26060       -2.90030
H          3.57000       -6.48260       -4.52820
H          5.75880       -4.49010       -3.73830
H          5.11540       -4.68720       -5.37110
H          6.00950       -6.00530       -4.60890
H          1.91950        3.30780        7.57540
H          1.15840        4.90260        7.65280
H         -0.24730        2.22590        8.11450
H         -1.04350        3.80240        8.15980
H          0.19060        3.40630        9.35510
H          0.06680       -1.22130       -2.05890
H          0.10930        0.30690       -1.19890
H         -1.96290       -0.93730       -0.62950
H         -1.02180       -2.36000       -0.18120
H         -0.94110       -0.90870        0.81510
H         -0.17600        2.70420        1.35960
H         -0.47610        1.31780        0.32680
H          1.92010        1.60260       -0.58320
H          0.88420        3.00580       -0.88470
H          2.06420        3.03900        0.42610
H         -0.51590        5.87220        6.81810
H         -3.99490        8.16490        1.84340
H         -3.90680       10.38880        5.80940
