
  xtb     02022202463D
 energy: -178.525496287215 gnorm: 0.000355784619 xtb: 6.4.1 (unknown)
 93104  0     0  0            999 V2000
   -3.3089    6.6716    0.4577 C   0  0  0  0  0  0  0  0  0  0  0  0
   -2.2629    7.5118    0.2047 C   0  0  0  0  0  0  0  0  0  0  0  0
   -2.2251    8.8458    0.8557 C   0  0  0  0  0  0  0  0  0  0  0  0
   -3.1362    9.4061    1.4220 O   0  0  0  0  0  0  0  0  0  0  0  0
   -0.8241    9.3003    0.7162 C   0  0  0  0  0  0  0  0  0  0  0  0
   -0.2170   10.4214    1.2498 C   0  0  0  0  0  0  0  0  0  0  0  0
    1.1327   10.6225    1.0060 C   0  0  0  0  0  0  0  0  0  0  0  0
    1.8275    9.6993    0.2386 C   0  0  0  0  0  0  0  0  0  0  0  0
    3.1377    9.9039    0.0262 F   0  0  0  0  0  0  0  0  0  0  0  0
    1.2390    8.5719   -0.3186 C   0  0  0  0  0  0  0  0  0  0  0  0
   -0.1082    8.3783   -0.0701 C   0  0  0  0  0  0  0  0  0  0  0  0
   -1.0306    7.3382   -0.5257 C   0  0  0  0  0  0  0  0  0  0  0  0
   -0.8565    6.5527   -1.6358 C   0  0  0  0  0  0  0  0  0  0  0  0
   -1.9117    5.8233   -2.2228 C   0  0  0  0  0  0  0  0  0  0  0  0
   -2.7667    5.2690   -2.7516 N   0  0  0  0  0  0  0  0  0  0  0  0
    0.3494    6.4625   -2.3569 C   0  0  0  0  0  0  0  0  0  0  0  0
    1.3178    6.3311   -2.9594 N   0  0  0  0  0  0  0  0  0  0  0  0
   -3.3773    5.2683    0.3721 C   0  0  0  0  0  0  0  0  0  0  0  0
   -4.5300    4.4954    0.4878 C   0  0  0  0  0  0  0  0  0  0  0  0
   -5.9191    5.0300    0.6047 C   0  0  0  0  0  0  0  0  0  0  0  0
   -6.3212    5.1692    2.0757 C   0  0  0  0  0  0  0  0  0  0  0  0
   -4.2330    3.1317    0.4975 C   0  0  0  0  0  0  0  0  0  0  0  0
   -5.2405    1.7091    0.6416 S   0  0  0  0  0  0  0  0  0  0  0  0
   -3.8209    0.7284    0.5622 C   0  0  0  0  0  0  0  0  0  0  0  0
   -3.4623   -0.6250    0.6338 C   0  0  0  0  0  0  0  0  0  0  0  0
   -4.2277   -1.7736    0.9367 C   0  0  0  0  0  0  0  0  0  0  0  0
   -3.5548   -3.0283    1.1096 C   0  0  0  0  0  0  0  0  0  0  0  0
   -4.3813   -4.0002    1.4619 N   0  0  0  0  0  0  0  0  0  0  0  0
   -5.8778   -3.3915    1.5608 S   0  0  0  0  0  0  0  0  0  0  0  0
   -5.5290   -1.8622    1.1613 N   0  0  0  0  0  0  0  0  0  0  0  0
   -2.1720   -3.1043    0.8301 C   0  0  0  0  0  0  0  0  0  0  0  0
   -1.3052   -4.2018    0.7496 C   0  0  0  0  0  0  0  0  0  0  0  0
   -1.3310   -5.9089    1.0234 S   0  0  0  0  0  0  0  0  0  0  0  0
    0.3143   -5.9970    0.4231 C   0  0  0  0  0  0  0  0  0  0  0  0
    1.1851   -7.0638    0.2381 C   0  0  0  0  0  0  0  0  0  0  0  0
    0.8498   -8.4661    0.6277 C   0  0  0  0  0  0  0  0  0  0  0  0
    1.3940   -8.7842    2.0232 C   0  0  0  0  0  0  0  0  0  0  0  0
    2.4074   -6.6372   -0.3009 C   0  0  0  0  0  0  0  0  0  0  0  0
    2.4468   -4.8938   -0.5691 S   0  0  0  0  0  0  0  0  0  0  0  0
    0.8421   -4.7517    0.0399 C   0  0  0  0  0  0  0  0  0  0  0  0
   -0.0876   -3.7270    0.2457 C   0  0  0  0  0  0  0  0  0  0  0  0
   -0.1644   -2.3753    0.0428 N   0  0  0  0  0  0  0  0  0  0  0  0
   -1.4253   -1.9603    0.4189 C   0  0  0  0  0  0  0  0  0  0  0  0
   -2.0497   -0.6866    0.4623 C   0  0  0  0  0  0  0  0  0  0  0  0
   -1.5625    0.6053    0.3394 N   0  0  0  0  0  0  0  0  0  0  0  0
   -2.6340    1.4575    0.4136 C   0  0  0  0  0  0  0  0  0  0  0  0
   -2.8659    2.8339    0.3942 C   0  0  0  0  0  0  0  0  0  0  0  0
   -1.9220    4.2709    0.2871 S   0  0  0  0  0  0  0  0  0  0  0  0
   -0.2484    1.1179    0.6646 C   0  0  0  0  0  0  0  0  0  0  0  0
    0.0358    0.9768    2.1584 C   0  0  0  0  0  0  0  0  0  0  0  0
    0.8358   -1.7119   -0.7641 C   0  0  0  0  0  0  0  0  0  0  0  0
    2.1086   -1.4076    0.0241 C   0  0  0  0  0  0  0  0  0  0  0  0
    3.4771   -7.4875   -0.6043 C   0  0  0  0  0  0  0  0  0  0  0  0
    4.7065   -7.2116   -1.1390 C   0  0  0  0  0  0  0  0  0  0  0  0
    5.6802   -8.2892   -1.3875 C   0  0  0  0  0  0  0  0  0  0  0  0
    5.5422   -9.4690   -1.1510 O   0  0  0  0  0  0  0  0  0  0  0  0
    6.8662   -7.6235   -1.9904 C   0  0  0  0  0  0  0  0  0  0  0  0
    8.0573   -8.1693   -2.4231 C   0  0  0  0  0  0  0  0  0  0  0  0
    9.0148   -7.3150   -2.9618 C   0  0  0  0  0  0  0  0  0  0  0  0
   10.5092   -7.9613   -3.5114 Cl  0  0  0  0  0  0  0  0  0  0  0  0
    8.7736   -5.9408   -3.0606 C   0  0  0  0  0  0  0  0  0  0  0  0
    9.9731   -4.9089   -3.7313 Cl  0  0  0  0  0  0  0  0  0  0  0  0
    7.5711   -5.3956   -2.6220 C   0  0  0  0  0  0  0  0  0  0  0  0
    6.6254   -6.2479   -2.0887 C   0  0  0  0  0  0  0  0  0  0  0  0
    5.2732   -5.9359   -1.5561 C   0  0  0  0  0  0  0  0  0  0  0  0
    4.7662   -4.8302   -1.4936 O   0  0  0  0  0  0  0  0  0  0  0  0
   -4.1767    7.1551    0.8952 H   0  0  0  0  0  0  0  0  0  0  0  0
   -0.7896   11.1179    1.8420 H   0  0  0  0  0  0  0  0  0  0  0  0
    1.6547   11.4796    1.4011 H   0  0  0  0  0  0  0  0  0  0  0  0
    1.8323    7.8898   -0.9055 H   0  0  0  0  0  0  0  0  0  0  0  0
   -5.9970    5.9946    0.1035 H   0  0  0  0  0  0  0  0  0  0  0  0
   -6.5991    4.3310    0.1138 H   0  0  0  0  0  0  0  0  0  0  0  0
   -7.3386    5.5439    2.1471 H   0  0  0  0  0  0  0  0  0  0  0  0
   -6.2713    4.2039    2.5738 H   0  0  0  0  0  0  0  0  0  0  0  0
   -5.6596    5.8608    2.5925 H   0  0  0  0  0  0  0  0  0  0  0  0
    1.2568   -9.1740   -0.0956 H   0  0  0  0  0  0  0  0  0  0  0  0
   -0.2371   -8.5694    0.6355 H   0  0  0  0  0  0  0  0  0  0  0  0
    1.1250   -9.7988    2.3045 H   0  0  0  0  0  0  0  0  0  0  0  0
    0.9747   -8.0986    2.7558 H   0  0  0  0  0  0  0  0  0  0  0  0
    2.4774   -8.6927    2.0438 H   0  0  0  0  0  0  0  0  0  0  0  0
    0.5232    0.6197    0.0862 H   0  0  0  0  0  0  0  0  0  0  0  0
   -0.2456    2.1745    0.3851 H   0  0  0  0  0  0  0  0  0  0  0  0
   -0.7102    1.5162    2.7378 H   0  0  0  0  0  0  0  0  0  0  0  0
    0.0094   -0.0699    2.4552 H   0  0  0  0  0  0  0  0  0  0  0  0
    1.0156    1.3852    2.3896 H   0  0  0  0  0  0  0  0  0  0  0  0
    0.3935   -0.8166   -1.2033 H   0  0  0  0  0  0  0  0  0  0  0  0
    1.0942   -2.3872   -1.5871 H   0  0  0  0  0  0  0  0  0  0  0  0
    2.6219   -2.3328    0.2709 H   0  0  0  0  0  0  0  0  0  0  0  0
    1.8909   -0.8804    0.9490 H   0  0  0  0  0  0  0  0  0  0  0  0
    2.7777   -0.8024   -0.5810 H   0  0  0  0  0  0  0  0  0  0  0  0
    3.3144   -8.5394   -0.3896 H   0  0  0  0  0  0  0  0  0  0  0  0
    8.2432   -9.2290   -2.3475 H   0  0  0  0  0  0  0  0  0  0  0  0
    7.3849   -4.3359   -2.6991 H   0  0  0  0  0  0  0  0  0  0  0  0
  1  2  2  0  0  0  0
  2  3  1  0  0  0  0
  3  4  2  0  0  0  0
  3  5  1  0  0  0  0
  5  6  2  0  0  0  0
  6  7  1  0  0  0  0
  7  8  2  0  0  0  0
  8  9  1  0  0  0  0
  8 10  1  0  0  0  0
 10 11  2  0  0  0  0
 11 12  1  0  0  0  0
 12 13  2  0  0  0  0
 13 14  1  0  0  0  0
 14 15  3  0  0  0  0
 13 16  1  0  0  0  0
 16 17  3  0  0  0  0
  1 18  1  0  0  0  0
 18 19  2  0  0  0  0
 19 20  1  0  0  0  0
 20 21  1  0  0  0  0
 19 22  1  0  0  0  0
 22 23  1  0  0  0  0
 23 24  1  0  0  0  0
 24 25  1  0  0  0  0
 25 26  1  0  0  0  0
 26 27  1  0  0  0  0
 27 28  2  0  0  0  0
 28 29  1  0  0  0  0
 29 30  1  0  0  0  0
 27 31  1  0  0  0  0
 31 32  1  0  0  0  0
 32 33  1  0  0  0  0
 33 34  1  0  0  0  0
 34 35  1  0  0  0  0
 35 36  1  0  0  0  0
 36 37  1  0  0  0  0
 35 38  2  0  0  0  0
 38 39  1  0  0  0  0
 39 40  1  0  0  0  0
 40 41  1  0  0  0  0
 41 42  1  0  0  0  0
 42 43  1  0  0  0  0
 43 44  1  0  0  0  0
 44 45  1  0  0  0  0
 45 46  1  0  0  0  0
 46 47  1  0  0  0  0
 47 48  1  0  0  0  0
 45 49  1  0  0  0  0
 49 50  1  0  0  0  0
 42 51  1  0  0  0  0
 51 52  1  0  0  0  0
 38 53  1  0  0  0  0
 53 54  2  0  0  0  0
 54 55  1  0  0  0  0
 55 56  2  0  0  0  0
 55 57  1  0  0  0  0
 57 58  2  0  0  0  0
 58 59  1  0  0  0  0
 59 60  1  0  0  0  0
 59 61  2  0  0  0  0
 61 62  1  0  0  0  0
 61 63  1  0  0  0  0
 63 64  2  0  0  0  0
 64 65  1  0  0  0  0
 65 66  2  0  0  0  0
 12  2  1  0  0  0  0
 48 18  1  0  0  0  0
 65 54  1  0  0  0  0
 11  5  1  0  0  0  0
 47 22  2  0  0  0  0
 64 57  1  0  0  0  0
 46 24  2  0  0  0  0
 44 25  2  0  0  0  0
 30 26  2  0  0  0  0
 43 31  2  0  0  0  0
 41 32  2  0  0  0  0
 40 34  2  0  0  0  0
  1 67  1  0  0  0  0
  6 68  1  0  0  0  0
  7 69  1  0  0  0  0
 10 70  1  0  0  0  0
 20 71  1  0  0  0  0
 20 72  1  0  0  0  0
 21 73  1  0  0  0  0
 21 74  1  0  0  0  0
 21 75  1  0  0  0  0
 36 76  1  0  0  0  0
 36 77  1  0  0  0  0
 37 78  1  0  0  0  0
 37 79  1  0  0  0  0
 37 80  1  0  0  0  0
 49 81  1  0  0  0  0
 49 82  1  0  0  0  0
 50 83  1  0  0  0  0
 50 84  1  0  0  0  0
 50 85  1  0  0  0  0
 51 86  1  0  0  0  0
 51 87  1  0  0  0  0
 52 88  1  0  0  0  0
 52 89  1  0  0  0  0
 52 90  1  0  0  0  0
 53 91  1  0  0  0  0
 58 92  1  0  0  0  0
 63 93  1  0  0  0  0
M  END
