
  xtb     02012223223D
 energy: -194.295751973430 gnorm: 0.000974989171 xtb: 6.4.1 (unknown)
112123  0     0  0            999 V2000
    5.4079    5.6816   -0.8375 C   0  0  0  0  0  0  0  0  0  0  0  0
    4.8383    6.8643   -1.2216 C   0  0  0  0  0  0  0  0  0  0  0  0
    5.4348    8.1468   -0.7773 C   0  0  0  0  0  0  0  0  0  0  0  0
    6.5199    8.3083   -0.2644 O   0  0  0  0  0  0  0  0  0  0  0  0
    4.3968    9.1679   -1.0434 C   0  0  0  0  0  0  0  0  0  0  0  0
    4.3964   10.5119   -0.7227 C   0  0  0  0  0  0  0  0  0  0  0  0
    3.2850   11.2716   -1.0543 C   0  0  0  0  0  0  0  0  0  0  0  0
    2.2150   10.6627   -1.6926 C   0  0  0  0  0  0  0  0  0  0  0  0
    1.1405   11.4120   -1.9929 F   0  0  0  0  0  0  0  0  0  0  0  0
    2.1954    9.3178   -2.0365 C   0  0  0  0  0  0  0  0  0  0  0  0
    3.3088    8.5671   -1.7033 C   0  0  0  0  0  0  0  0  0  0  0  0
    3.6332    7.1626   -1.9562 C   0  0  0  0  0  0  0  0  0  0  0  0
    3.0599    6.3888   -2.9339 C   0  0  0  0  0  0  0  0  0  0  0  0
    1.8955    6.7408   -3.6419 C   0  0  0  0  0  0  0  0  0  0  0  0
    0.9294    6.9500   -4.2270 N   0  0  0  0  0  0  0  0  0  0  0  0
    3.6184    5.1780   -3.3934 C   0  0  0  0  0  0  0  0  0  0  0  0
    4.0654    4.2187   -3.8396 N   0  0  0  0  0  0  0  0  0  0  0  0
    4.8250    4.4038   -0.7710 C   0  0  0  0  0  0  0  0  0  0  0  0
    5.4945    3.1843   -0.6859 C   0  0  0  0  0  0  0  0  0  0  0  0
    6.9777    3.0173   -0.6577 C   0  0  0  0  0  0  0  0  0  0  0  0
    7.4849    3.0070    0.7871 C   0  0  0  0  0  0  0  0  0  0  0  0
    4.6014    2.1139   -0.6424 C   0  0  0  0  0  0  0  0  0  0  0  0
    4.8303    0.3782   -0.6398 S   0  0  0  0  0  0  0  0  0  0  0  0
    3.1161    0.1745   -0.7088 C   0  0  0  0  0  0  0  0  0  0  0  0
    2.1733   -0.8534   -0.8555 C   0  0  0  0  0  0  0  0  0  0  0  0
    2.3347   -2.2437   -1.0494 C   0  0  0  0  0  0  0  0  0  0  0  0
    1.1787   -3.0382   -1.3467 C   0  0  0  0  0  0  0  0  0  0  0  0
    1.4786   -4.3092   -1.5626 N   0  0  0  0  0  0  0  0  0  0  0  0
    3.0774   -4.4915   -1.3924 S   0  0  0  0  0  0  0  0  0  0  0  0
    3.4505   -2.9552   -1.0493 N   0  0  0  0  0  0  0  0  0  0  0  0
   -0.0962   -2.4350   -1.2813 C   0  0  0  0  0  0  0  0  0  0  0  0
   -1.3783   -3.0012   -1.3056 C   0  0  0  0  0  0  0  0  0  0  0  0
   -2.1256   -4.5401   -1.5741 S   0  0  0  0  0  0  0  0  0  0  0  0
   -3.6474   -3.8598   -1.0518 C   0  0  0  0  0  0  0  0  0  0  0  0
   -4.8979   -4.4575   -0.7770 C   0  0  0  0  0  0  0  0  0  0  0  0
   -5.1839   -5.8773   -1.1552 C   0  0  0  0  0  0  0  0  0  0  0  0
   -6.2456   -5.9587   -2.2509 C   0  0  0  0  0  0  0  0  0  0  0  0
   -5.7466   -3.5660   -0.1763 C   0  0  0  0  0  0  0  0  0  0  0  0
   -5.0648   -1.9498   -0.0835 S   0  0  0  0  0  0  0  0  0  0  0  0
   -3.5666   -2.5092   -0.7292 C   0  0  0  0  0  0  0  0  0  0  0  0
   -2.2726   -2.0020   -0.9163 C   0  0  0  0  0  0  0  0  0  0  0  0
   -1.6048   -0.8264   -0.7243 N   0  0  0  0  0  0  0  0  0  0  0  0
   -0.2606   -1.0575   -0.9582 C   0  0  0  0  0  0  0  0  0  0  0  0
    0.8909   -0.2328   -0.8926 C   0  0  0  0  0  0  0  0  0  0  0  0
    1.0569    1.1408   -0.8030 N   0  0  0  0  0  0  0  0  0  0  0  0
    2.4047    1.3809   -0.7002 C   0  0  0  0  0  0  0  0  0  0  0  0
    3.2486    2.4879   -0.6658 C   0  0  0  0  0  0  0  0  0  0  0  0
    3.0712    4.1994   -0.7122 S   0  0  0  0  0  0  0  0  0  0  0  0
    0.2371    2.2019   -1.3510 C   0  0  0  0  0  0  0  0  0  0  0  0
    0.5095    2.3959   -2.8430 C   0  0  0  0  0  0  0  0  0  0  0  0
   -2.3048    0.3142   -0.1842 C   0  0  0  0  0  0  0  0  0  0  0  0
   -3.1563    1.0085   -1.2483 C   0  0  0  0  0  0  0  0  0  0  0  0
   -7.0641   -3.8336    0.4986 C   0  0  0  0  0  0  0  0  0  0  0  0
   -7.0256   -5.1833    1.1594 C   0  0  0  0  0  0  0  0  0  0  0  0
   -6.1203   -5.3321    2.1256 C   0  0  0  0  0  0  0  0  0  0  0  0
   -5.3145   -4.1740    2.4817 C   0  0  0  0  0  0  0  0  0  0  0  0
   -3.9462   -4.2066    2.5417 C   0  0  0  0  0  0  0  0  0  0  0  0
   -3.2554   -5.3876    2.0115 C   0  0  0  0  0  0  0  0  0  0  0  0
   -3.8201   -6.4184    1.7028 O   0  0  0  0  0  0  0  0  0  0  0  0
   -1.8925   -5.2515    1.7872 N   0  0  0  0  0  0  0  0  0  0  0  0
   -1.2223   -6.3641    1.1211 C   0  0  0  0  0  0  0  0  0  0  0  0
   -0.6135   -7.3270    2.1308 C   0  0  0  0  0  0  0  0  0  0  0  0
   -1.1516   -4.1820    2.1952 C   0  0  0  0  0  0  0  0  0  0  0  0
    0.4570   -4.0650    1.8464 S   0  0  0  0  0  0  0  0  0  0  0  0
   -1.7780   -3.2059    2.9195 N   0  0  0  0  0  0  0  0  0  0  0  0
   -3.1560   -3.0887    3.0520 C   0  0  0  0  0  0  0  0  0  0  0  0
   -3.6183   -2.1100    3.6092 O   0  0  0  0  0  0  0  0  0  0  0  0
   -0.9690   -2.1963    3.5938 C   0  0  0  0  0  0  0  0  0  0  0  0
   -0.7035   -0.9793    2.7208 C   0  0  0  0  0  0  0  0  0  0  0  0
   -6.1496   -2.9490    2.7040 C   0  0  0  0  0  0  0  0  0  0  0  0
   -7.2815   -2.8439    1.6606 C   0  0  0  0  0  0  0  0  0  0  0  0
    6.4224    5.7659   -0.4614 H   0  0  0  0  0  0  0  0  0  0  0  0
    5.2475   10.9511   -0.2263 H   0  0  0  0  0  0  0  0  0  0  0  0
    3.2337   12.3243   -0.8257 H   0  0  0  0  0  0  0  0  0  0  0  0
    1.3330    8.9024   -2.5319 H   0  0  0  0  0  0  0  0  0  0  0  0
    7.4606    3.8190   -1.2163 H   0  0  0  0  0  0  0  0  0  0  0  0
    7.2274    2.0664   -1.1320 H   0  0  0  0  0  0  0  0  0  0  0  0
    8.5626    2.8693    0.8012 H   0  0  0  0  0  0  0  0  0  0  0  0
    7.2479    3.9448    1.2847 H   0  0  0  0  0  0  0  0  0  0  0  0
    7.0237    2.1940    1.3428 H   0  0  0  0  0  0  0  0  0  0  0  0
   -5.5031   -6.4461   -0.2820 H   0  0  0  0  0  0  0  0  0  0  0  0
   -4.2541   -6.3189   -1.5197 H   0  0  0  0  0  0  0  0  0  0  0  0
   -5.9283   -5.3992   -3.1283 H   0  0  0  0  0  0  0  0  0  0  0  0
   -7.1914   -5.5484   -1.9059 H   0  0  0  0  0  0  0  0  0  0  0  0
   -6.4029   -6.9944   -2.5406 H   0  0  0  0  0  0  0  0  0  0  0  0
   -0.8148    1.9887   -1.2038 H   0  0  0  0  0  0  0  0  0  0  0  0
    0.4878    3.1175   -0.8060 H   0  0  0  0  0  0  0  0  0  0  0  0
    0.2712    1.4869   -3.3922 H   0  0  0  0  0  0  0  0  0  0  0  0
    1.5541    2.6412   -3.0208 H   0  0  0  0  0  0  0  0  0  0  0  0
   -0.1023    3.2085   -3.2252 H   0  0  0  0  0  0  0  0  0  0  0  0
   -1.5871    0.9906    0.2816 H   0  0  0  0  0  0  0  0  0  0  0  0
   -2.9744   -0.0527    0.6023 H   0  0  0  0  0  0  0  0  0  0  0  0
   -2.5700    1.2621   -2.1287 H   0  0  0  0  0  0  0  0  0  0  0  0
   -3.5921    1.9158   -0.8396 H   0  0  0  0  0  0  0  0  0  0  0  0
   -3.9634    0.3506   -1.5605 H   0  0  0  0  0  0  0  0  0  0  0  0
   -7.8922   -3.7550   -0.2137 H   0  0  0  0  0  0  0  0  0  0  0  0
   -7.7020   -5.9641    0.8538 H   0  0  0  0  0  0  0  0  0  0  0  0
   -5.9654   -6.2595    2.6518 H   0  0  0  0  0  0  0  0  0  0  0  0
   -1.9804   -6.8735    0.5244 H   0  0  0  0  0  0  0  0  0  0  0  0
   -0.4519   -5.9553    0.4650 H   0  0  0  0  0  0  0  0  0  0  0  0
   -0.1382   -8.1482    1.6028 H   0  0  0  0  0  0  0  0  0  0  0  0
    0.1364   -6.8222    2.7354 H   0  0  0  0  0  0  0  0  0  0  0  0
   -1.3867   -7.7287    2.7816 H   0  0  0  0  0  0  0  0  0  0  0  0
   -1.5249   -1.8967    4.4848 H   0  0  0  0  0  0  0  0  0  0  0  0
   -0.0278   -2.6666    3.8829 H   0  0  0  0  0  0  0  0  0  0  0  0
   -0.2032   -1.2743    1.8016 H   0  0  0  0  0  0  0  0  0  0  0  0
   -0.0637   -0.2843    3.2572 H   0  0  0  0  0  0  0  0  0  0  0  0
   -1.6412   -0.4840    2.4869 H   0  0  0  0  0  0  0  0  0  0  0  0
   -6.5750   -3.0170    3.7082 H   0  0  0  0  0  0  0  0  0  0  0  0
   -5.5229   -2.0595    2.6931 H   0  0  0  0  0  0  0  0  0  0  0  0
   -8.2476   -3.0662    2.1160 H   0  0  0  0  0  0  0  0  0  0  0  0
   -7.3197   -1.8245    1.2752 H   0  0  0  0  0  0  0  0  0  0  0  0
  1  2  2  0  0  0  0
  2  3  1  0  0  0  0
  3  4  2  0  0  0  0
  3  5  1  0  0  0  0
  5  6  2  0  0  0  0
  6  7  1  0  0  0  0
  7  8  2  0  0  0  0
  8  9  1  0  0  0  0
  8 10  1  0  0  0  0
 10 11  2  0  0  0  0
 11 12  1  0  0  0  0
 12 13  2  0  0  0  0
 13 14  1  0  0  0  0
 14 15  3  0  0  0  0
 13 16  1  0  0  0  0
 16 17  3  0  0  0  0
  1 18  1  0  0  0  0
 18 19  2  0  0  0  0
 19 20  1  0  0  0  0
 20 21  1  0  0  0  0
 19 22  1  0  0  0  0
 22 23  1  0  0  0  0
 23 24  1  0  0  0  0
 24 25  1  0  0  0  0
 25 26  1  0  0  0  0
 26 27  1  0  0  0  0
 27 28  2  0  0  0  0
 28 29  1  0  0  0  0
 29 30  1  0  0  0  0
 27 31  1  0  0  0  0
 31 32  1  0  0  0  0
 32 33  1  0  0  0  0
 33 34  1  0  0  0  0
 34 35  1  0  0  0  0
 35 36  1  0  0  0  0
 36 37  1  0  0  0  0
 35 38  2  0  0  0  0
 38 39  1  0  0  0  0
 39 40  1  0  0  0  0
 40 41  1  0  0  0  0
 41 42  1  0  0  0  0
 42 43  1  0  0  0  0
 43 44  1  0  0  0  0
 44 45  1  0  0  0  0
 45 46  1  0  0  0  0
 46 47  1  0  0  0  0
 47 48  1  0  0  0  0
 45 49  1  0  0  0  0
 49 50  1  0  0  0  0
 42 51  1  0  0  0  0
 51 52  1  0  0  0  0
 38 53  1  0  0  0  0
 53 54  1  0  0  0  0
 54 55  2  0  0  0  0
 55 56  1  0  0  0  0
 56 57  2  0  0  0  0
 57 58  1  0  0  0  0
 58 59  2  0  0  0  0
 58 60  1  0  0  0  0
 60 61  1  0  0  0  0
 61 62  1  0  0  0  0
 60 63  1  0  0  0  0
 63 64  2  0  0  0  0
 63 65  1  0  0  0  0
 65 66  1  0  0  0  0
 66 67  2  0  0  0  0
 65 68  1  0  0  0  0
 68 69  1  0  0  0  0
 56 70  1  0  0  0  0
 70 71  1  0  0  0  0
 12  2  1  0  0  0  0
 48 18  1  0  0  0  0
 71 53  1  0  0  0  0
 11  5  1  0  0  0  0
 47 22  2  0  0  0  0
 66 57  1  0  0  0  0
 46 24  2  0  0  0  0
 44 25  2  0  0  0  0
 30 26  2  0  0  0  0
 43 31  2  0  0  0  0
 41 32  2  0  0  0  0
 40 34  2  0  0  0  0
  1 72  1  0  0  0  0
  6 73  1  0  0  0  0
  7 74  1  0  0  0  0
 10 75  1  0  0  0  0
 20 76  1  0  0  0  0
 20 77  1  0  0  0  0
 21 78  1  0  0  0  0
 21 79  1  0  0  0  0
 21 80  1  0  0  0  0
 36 81  1  0  0  0  0
 36 82  1  0  0  0  0
 37 83  1  0  0  0  0
 37 84  1  0  0  0  0
 37 85  1  0  0  0  0
 49 86  1  0  0  0  0
 49 87  1  0  0  0  0
 50 88  1  0  0  0  0
 50 89  1  0  0  0  0
 50 90  1  0  0  0  0
 51 91  1  0  0  0  0
 51 92  1  0  0  0  0
 52 93  1  0  0  0  0
 52 94  1  0  0  0  0
 52 95  1  0  0  0  0
 53 96  1  0  0  0  0
 54 97  1  0  0  0  0
 55 98  1  0  0  0  0
 61 99  1  0  0  0  0
 61100  1  0  0  0  0
 62101  1  0  0  0  0
 62102  1  0  0  0  0
 62103  1  0  0  0  0
 68104  1  0  0  0  0
 68105  1  0  0  0  0
 69106  1  0  0  0  0
 69107  1  0  0  0  0
 69108  1  0  0  0  0
 70109  1  0  0  0  0
 70110  1  0  0  0  0
 71111  1  0  0  0  0
 71112  1  0  0  0  0
M  END
