100

C         -3.19860       -0.83150       -7.45540
C         -4.41540       -0.22880       -7.24110
C         -4.84850        0.43480       -6.00870
O         -4.21740        0.57470       -4.97490
C         -6.22270        0.90650       -6.25850
C         -7.06880        1.59160       -5.40730
C         -8.33180        1.93220       -5.86500
C         -8.69990        1.57550       -7.15360
F         -9.92670        1.91210       -7.58200
C         -7.86640        0.88760       -8.02620
C         -6.60590        0.54990       -7.56350
C         -5.49530       -0.15900       -8.20410
C         -5.51180       -0.65340       -9.48310
C         -4.44990       -1.32600      -10.12320
N         -3.63320       -1.87620      -10.71540
C         -6.61700       -0.55550      -10.35530
N         -7.47730       -0.51570      -11.11400
C         -2.08670       -0.97990       -6.62200
C         -0.91020       -1.63580       -7.03060
C         -0.64970       -2.20120       -8.38800
C         -0.17440       -1.10750       -9.34900
C          0.03790       -1.64770       -6.01750
S          1.66300       -2.30180       -5.92580
C          1.76740       -1.73630       -4.29510
C          2.68990       -1.71030       -3.23750
C          4.05330       -2.07300       -3.13340
C          4.77210       -1.76550       -1.92470
N          6.05190       -2.09190       -2.00430
S          6.33200       -2.73520       -3.46230
N          4.83050       -2.62180       -4.05290
C          4.06480       -1.24690       -0.81460
C          4.42900       -0.97440        0.51360
S          5.84910       -0.93850        1.49590
C          4.86570       -0.46060        2.86030
C          5.17810       -0.16350        4.18710
C          6.56020       -0.24840        4.74390
C          6.85500       -1.67290        5.22320
C          4.04430        0.20950        4.90570
S          2.58200        0.14530        3.91560
C          3.50220       -0.34830        2.54610
C          3.25370       -0.63830        1.20550
N          2.17940       -0.67180        0.35130
C          2.66750       -1.00530       -0.89740
C          2.02590       -1.07680       -2.15130
N          0.77060       -0.66600       -2.55210
C          0.60970       -1.07830       -3.85150
C         -0.38300       -1.02010       -4.83170
S         -1.98160       -0.39290       -4.95970
C          0.03250        0.47830       -2.05140
C          0.27170        1.71200       -2.92040
C          0.84350       -0.93370        0.84980
C          0.79880       -2.23050        1.65760
C          3.99000        0.51180        6.27850
C          3.00030        1.13140        6.98900
C          2.89840        0.91290        8.45150
O          3.71920        0.39530        9.17290
C          1.55140        1.41360        8.82070
C          0.91070        1.35130       10.04140
C         -0.37360        1.87890       10.12070
C         -1.14140        1.83910       11.41370
F         -2.21320        1.02740       11.33310
F         -0.41440        1.40630       12.44890
F         -1.61810        3.04850       11.75610
C         -0.99400        2.44240        9.00930
C         -0.34140        2.50960        7.78740
C          0.94150        1.99420        7.69470
C          1.89200        1.96050        6.58160
C          1.86600        2.80000        5.49740
C          0.78110        3.63630        5.17110
N         -0.08800        4.30990        4.84100
C          2.97310        2.97880        4.64120
N          3.87650        3.18810        3.96450
H         -3.05930       -1.27390       -8.43220
H         -6.74310        1.85000       -4.41190
H         -9.03260        2.46660       -5.24340
H         -8.22000        0.64360       -9.01410
H         -1.54260       -2.67740       -8.79540
H          0.13100       -2.95900       -8.29730
H          0.02700       -1.53880      -10.32520
H         -0.93410       -0.33790       -9.46310
H          0.73640       -0.64530       -8.97540
H          7.26750        0.01740        3.95610
H          6.68150        0.45510        5.56700
H          7.86390       -1.72770        5.62220
H          6.15700       -1.96900        6.00290
H          6.77000       -2.37480        4.39740
H         -1.03350        0.23110       -2.04600
H          0.36450        0.70320       -1.03980
H         -0.24050        2.56430       -2.48350
H          1.33550        1.93380       -2.97560
H         -0.10950        1.56190       -3.92610
H          0.52990       -0.09290        1.47690
H          0.16410       -1.03410        0.00560
H         -0.22480       -2.43190        1.96020
H          1.41350       -2.15980        2.55050
H          1.15420       -3.06200        1.05260
H          4.80330        0.12060        6.88170
H          1.39720        0.91110       10.89800
H         -1.99490        2.83520        9.10600
H         -0.83700        2.94720        6.93610
