
  xtb     02012222333D
 energy: -194.400507430982 gnorm: 0.000776421605 xtb: 6.4.1 (unknown)
100111  0     0  0            999 V2000
   -3.1986   -0.8315   -7.4554 C   0  0  0  0  0  0  0  0  0  0  0  0
   -4.4154   -0.2288   -7.2411 C   0  0  0  0  0  0  0  0  0  0  0  0
   -4.8485    0.4348   -6.0087 C   0  0  0  0  0  0  0  0  0  0  0  0
   -4.2174    0.5747   -4.9749 O   0  0  0  0  0  0  0  0  0  0  0  0
   -6.2227    0.9065   -6.2585 C   0  0  0  0  0  0  0  0  0  0  0  0
   -7.0688    1.5916   -5.4073 C   0  0  0  0  0  0  0  0  0  0  0  0
   -8.3318    1.9322   -5.8650 C   0  0  0  0  0  0  0  0  0  0  0  0
   -8.6999    1.5755   -7.1536 C   0  0  0  0  0  0  0  0  0  0  0  0
   -9.9267    1.9121   -7.5820 F   0  0  0  0  0  0  0  0  0  0  0  0
   -7.8664    0.8876   -8.0262 C   0  0  0  0  0  0  0  0  0  0  0  0
   -6.6059    0.5499   -7.5635 C   0  0  0  0  0  0  0  0  0  0  0  0
   -5.4953   -0.1590   -8.2041 C   0  0  0  0  0  0  0  0  0  0  0  0
   -5.5118   -0.6534   -9.4831 C   0  0  0  0  0  0  0  0  0  0  0  0
   -4.4499   -1.3260  -10.1232 C   0  0  0  0  0  0  0  0  0  0  0  0
   -3.6332   -1.8762  -10.7154 N   0  0  0  0  0  0  0  0  0  0  0  0
   -6.6170   -0.5555  -10.3553 C   0  0  0  0  0  0  0  0  0  0  0  0
   -7.4773   -0.5157  -11.1140 N   0  0  0  0  0  0  0  0  0  0  0  0
   -2.0867   -0.9799   -6.6220 C   0  0  0  0  0  0  0  0  0  0  0  0
   -0.9102   -1.6358   -7.0306 C   0  0  0  0  0  0  0  0  0  0  0  0
   -0.6497   -2.2012   -8.3880 C   0  0  0  0  0  0  0  0  0  0  0  0
   -0.1744   -1.1075   -9.3490 C   0  0  0  0  0  0  0  0  0  0  0  0
    0.0379   -1.6477   -6.0175 C   0  0  0  0  0  0  0  0  0  0  0  0
    1.6630   -2.3018   -5.9258 S   0  0  0  0  0  0  0  0  0  0  0  0
    1.7674   -1.7363   -4.2951 C   0  0  0  0  0  0  0  0  0  0  0  0
    2.6899   -1.7103   -3.2375 C   0  0  0  0  0  0  0  0  0  0  0  0
    4.0533   -2.0730   -3.1334 C   0  0  0  0  0  0  0  0  0  0  0  0
    4.7721   -1.7655   -1.9247 C   0  0  0  0  0  0  0  0  0  0  0  0
    6.0519   -2.0919   -2.0043 N   0  0  0  0  0  0  0  0  0  0  0  0
    6.3320   -2.7352   -3.4623 S   0  0  0  0  0  0  0  0  0  0  0  0
    4.8305   -2.6218   -4.0529 N   0  0  0  0  0  0  0  0  0  0  0  0
    4.0648   -1.2469   -0.8146 C   0  0  0  0  0  0  0  0  0  0  0  0
    4.4290   -0.9744    0.5136 C   0  0  0  0  0  0  0  0  0  0  0  0
    5.8491   -0.9385    1.4959 S   0  0  0  0  0  0  0  0  0  0  0  0
    4.8657   -0.4606    2.8603 C   0  0  0  0  0  0  0  0  0  0  0  0
    5.1781   -0.1635    4.1871 C   0  0  0  0  0  0  0  0  0  0  0  0
    6.5602   -0.2484    4.7439 C   0  0  0  0  0  0  0  0  0  0  0  0
    6.8550   -1.6729    5.2232 C   0  0  0  0  0  0  0  0  0  0  0  0
    4.0443    0.2095    4.9057 C   0  0  0  0  0  0  0  0  0  0  0  0
    2.5820    0.1453    3.9156 S   0  0  0  0  0  0  0  0  0  0  0  0
    3.5022   -0.3483    2.5461 C   0  0  0  0  0  0  0  0  0  0  0  0
    3.2537   -0.6383    1.2055 C   0  0  0  0  0  0  0  0  0  0  0  0
    2.1794   -0.6718    0.3513 N   0  0  0  0  0  0  0  0  0  0  0  0
    2.6675   -1.0053   -0.8974 C   0  0  0  0  0  0  0  0  0  0  0  0
    2.0259   -1.0768   -2.1513 C   0  0  0  0  0  0  0  0  0  0  0  0
    0.7706   -0.6660   -2.5521 N   0  0  0  0  0  0  0  0  0  0  0  0
    0.6097   -1.0783   -3.8515 C   0  0  0  0  0  0  0  0  0  0  0  0
   -0.3830   -1.0201   -4.8317 C   0  0  0  0  0  0  0  0  0  0  0  0
   -1.9816   -0.3929   -4.9597 S   0  0  0  0  0  0  0  0  0  0  0  0
    0.0325    0.4783   -2.0514 C   0  0  0  0  0  0  0  0  0  0  0  0
    0.2717    1.7120   -2.9204 C   0  0  0  0  0  0  0  0  0  0  0  0
    0.8435   -0.9337    0.8498 C   0  0  0  0  0  0  0  0  0  0  0  0
    0.7988   -2.2305    1.6576 C   0  0  0  0  0  0  0  0  0  0  0  0
    3.9900    0.5118    6.2785 C   0  0  0  0  0  0  0  0  0  0  0  0
    3.0003    1.1314    6.9890 C   0  0  0  0  0  0  0  0  0  0  0  0
    2.8984    0.9129    8.4515 C   0  0  0  0  0  0  0  0  0  0  0  0
    3.7192    0.3953    9.1729 O   0  0  0  0  0  0  0  0  0  0  0  0
    1.5514    1.4136    8.8207 C   0  0  0  0  0  0  0  0  0  0  0  0
    0.9107    1.3513   10.0414 C   0  0  0  0  0  0  0  0  0  0  0  0
   -0.3736    1.8789   10.1207 C   0  0  0  0  0  0  0  0  0  0  0  0
   -1.1414    1.8391   11.4137 C   0  0  0  0  0  0  0  0  0  0  0  0
   -2.2132    1.0274   11.3331 F   0  0  0  0  0  0  0  0  0  0  0  0
   -0.4144    1.4063   12.4489 F   0  0  0  0  0  0  0  0  0  0  0  0
   -1.6181    3.0485   11.7561 F   0  0  0  0  0  0  0  0  0  0  0  0
   -0.9940    2.4424    9.0093 C   0  0  0  0  0  0  0  0  0  0  0  0
   -0.3414    2.5096    7.7874 C   0  0  0  0  0  0  0  0  0  0  0  0
    0.9415    1.9942    7.6947 C   0  0  0  0  0  0  0  0  0  0  0  0
    1.8920    1.9605    6.5816 C   0  0  0  0  0  0  0  0  0  0  0  0
    1.8660    2.8000    5.4974 C   0  0  0  0  0  0  0  0  0  0  0  0
    0.7811    3.6363    5.1711 C   0  0  0  0  0  0  0  0  0  0  0  0
   -0.0880    4.3099    4.8410 N   0  0  0  0  0  0  0  0  0  0  0  0
    2.9731    2.9788    4.6412 C   0  0  0  0  0  0  0  0  0  0  0  0
    3.8765    3.1881    3.9645 N   0  0  0  0  0  0  0  0  0  0  0  0
   -3.0593   -1.2739   -8.4322 H   0  0  0  0  0  0  0  0  0  0  0  0
   -6.7431    1.8500   -4.4119 H   0  0  0  0  0  0  0  0  0  0  0  0
   -9.0326    2.4666   -5.2434 H   0  0  0  0  0  0  0  0  0  0  0  0
   -8.2200    0.6436   -9.0141 H   0  0  0  0  0  0  0  0  0  0  0  0
   -1.5426   -2.6774   -8.7954 H   0  0  0  0  0  0  0  0  0  0  0  0
    0.1310   -2.9590   -8.2973 H   0  0  0  0  0  0  0  0  0  0  0  0
    0.0270   -1.5388  -10.3252 H   0  0  0  0  0  0  0  0  0  0  0  0
   -0.9341   -0.3379   -9.4631 H   0  0  0  0  0  0  0  0  0  0  0  0
    0.7364   -0.6453   -8.9754 H   0  0  0  0  0  0  0  0  0  0  0  0
    7.2675    0.0174    3.9561 H   0  0  0  0  0  0  0  0  0  0  0  0
    6.6815    0.4551    5.5670 H   0  0  0  0  0  0  0  0  0  0  0  0
    7.8639   -1.7277    5.6222 H   0  0  0  0  0  0  0  0  0  0  0  0
    6.1570   -1.9690    6.0029 H   0  0  0  0  0  0  0  0  0  0  0  0
    6.7700   -2.3748    4.3974 H   0  0  0  0  0  0  0  0  0  0  0  0
   -1.0335    0.2311   -2.0460 H   0  0  0  0  0  0  0  0  0  0  0  0
    0.3645    0.7032   -1.0398 H   0  0  0  0  0  0  0  0  0  0  0  0
   -0.2405    2.5643   -2.4835 H   0  0  0  0  0  0  0  0  0  0  0  0
    1.3355    1.9338   -2.9756 H   0  0  0  0  0  0  0  0  0  0  0  0
   -0.1095    1.5619   -3.9261 H   0  0  0  0  0  0  0  0  0  0  0  0
    0.5299   -0.0929    1.4769 H   0  0  0  0  0  0  0  0  0  0  0  0
    0.1641   -1.0341    0.0056 H   0  0  0  0  0  0  0  0  0  0  0  0
   -0.2248   -2.4319    1.9602 H   0  0  0  0  0  0  0  0  0  0  0  0
    1.4135   -2.1598    2.5505 H   0  0  0  0  0  0  0  0  0  0  0  0
    1.1542   -3.0620    1.0526 H   0  0  0  0  0  0  0  0  0  0  0  0
    4.8033    0.1206    6.8817 H   0  0  0  0  0  0  0  0  0  0  0  0
    1.3972    0.9111   10.8980 H   0  0  0  0  0  0  0  0  0  0  0  0
   -1.9949    2.8352    9.1060 H   0  0  0  0  0  0  0  0  0  0  0  0
   -0.8370    2.9472    6.9361 H   0  0  0  0  0  0  0  0  0  0  0  0
  1  2  2  0  0  0  0
  2  3  1  0  0  0  0
  3  4  2  0  0  0  0
  3  5  1  0  0  0  0
  5  6  2  0  0  0  0
  6  7  1  0  0  0  0
  7  8  2  0  0  0  0
  8  9  1  0  0  0  0
  8 10  1  0  0  0  0
 10 11  2  0  0  0  0
 11 12  1  0  0  0  0
 12 13  2  0  0  0  0
 13 14  1  0  0  0  0
 14 15  3  0  0  0  0
 13 16  1  0  0  0  0
 16 17  3  0  0  0  0
  1 18  1  0  0  0  0
 18 19  2  0  0  0  0
 19 20  1  0  0  0  0
 20 21  1  0  0  0  0
 19 22  1  0  0  0  0
 22 23  1  0  0  0  0
 23 24  1  0  0  0  0
 24 25  1  0  0  0  0
 25 26  1  0  0  0  0
 26 27  1  0  0  0  0
 27 28  2  0  0  0  0
 28 29  1  0  0  0  0
 29 30  1  0  0  0  0
 27 31  1  0  0  0  0
 31 32  1  0  0  0  0
 32 33  1  0  0  0  0
 33 34  1  0  0  0  0
 34 35  1  0  0  0  0
 35 36  1  0  0  0  0
 36 37  1  0  0  0  0
 35 38  2  0  0  0  0
 38 39  1  0  0  0  0
 39 40  1  0  0  0  0
 40 41  1  0  0  0  0
 41 42  1  0  0  0  0
 42 43  1  0  0  0  0
 43 44  1  0  0  0  0
 44 45  1  0  0  0  0
 45 46  1  0  0  0  0
 46 47  1  0  0  0  0
 47 48  1  0  0  0  0
 45 49  1  0  0  0  0
 49 50  1  0  0  0  0
 42 51  1  0  0  0  0
 51 52  1  0  0  0  0
 38 53  1  0  0  0  0
 53 54  2  0  0  0  0
 54 55  1  0  0  0  0
 55 56  2  0  0  0  0
 55 57  1  0  0  0  0
 57 58  2  0  0  0  0
 58 59  1  0  0  0  0
 59 60  1  0  0  0  0
 60 61  1  0  0  0  0
 60 62  1  0  0  0  0
 60 63  1  0  0  0  0
 59 64  2  0  0  0  0
 64 65  1  0  0  0  0
 65 66  2  0  0  0  0
 66 67  1  0  0  0  0
 67 68  2  0  0  0  0
 68 69  1  0  0  0  0
 69 70  3  0  0  0  0
 68 71  1  0  0  0  0
 71 72  3  0  0  0  0
 12  2  1  0  0  0  0
 48 18  1  0  0  0  0
 67 54  1  0  0  0  0
 11  5  1  0  0  0  0
 47 22  2  0  0  0  0
 66 57  1  0  0  0  0
 46 24  2  0  0  0  0
 44 25  2  0  0  0  0
 30 26  2  0  0  0  0
 43 31  2  0  0  0  0
 41 32  2  0  0  0  0
 40 34  2  0  0  0  0
  1 73  1  0  0  0  0
  6 74  1  0  0  0  0
  7 75  1  0  0  0  0
 10 76  1  0  0  0  0
 20 77  1  0  0  0  0
 20 78  1  0  0  0  0
 21 79  1  0  0  0  0
 21 80  1  0  0  0  0
 21 81  1  0  0  0  0
 36 82  1  0  0  0  0
 36 83  1  0  0  0  0
 37 84  1  0  0  0  0
 37 85  1  0  0  0  0
 37 86  1  0  0  0  0
 49 87  1  0  0  0  0
 49 88  1  0  0  0  0
 50 89  1  0  0  0  0
 50 90  1  0  0  0  0
 50 91  1  0  0  0  0
 51 92  1  0  0  0  0
 51 93  1  0  0  0  0
 52 94  1  0  0  0  0
 52 95  1  0  0  0  0
 52 96  1  0  0  0  0
 53 97  1  0  0  0  0
 58 98  1  0  0  0  0
 64 99  1  0  0  0  0
 65100  1  0  0  0  0
M  END
