94

C         -0.42630       -6.82420       -3.56800
C         -1.66030       -7.34280       -3.24890
C         -2.72070       -6.65940       -2.50640
O         -2.69880       -5.53420       -2.03570
C         -3.85080       -7.60420       -2.44140
C         -5.08870       -7.43100       -1.85280
C         -6.00290       -8.47050       -1.92000
C         -5.64500       -9.64050       -2.57230
F         -6.54200      -10.63800       -2.62950
C         -4.40720       -9.83670       -3.17110
C         -3.49810       -8.79490       -3.10040
C         -2.13140       -8.66290       -3.61170
C         -1.45090       -9.63920       -4.29370
C         -1.98490      -10.90850       -4.60200
N         -2.35410      -11.95790       -4.88460
C         -0.13190       -9.53960       -4.78310
N          0.93520       -9.54050       -5.20980
C          0.15670       -5.59260       -3.26410
C          1.45860       -5.24050       -3.66840
C          2.40110       -6.11030       -4.43350
C          3.14220       -7.06710       -3.49520
C          1.80640       -3.97920       -3.20850
S          3.27570       -3.03330       -3.36250
C          2.53310       -1.78750       -2.42180
C          2.86940       -0.55530       -1.84740
C          4.10240        0.13050       -1.76430
C          4.20130        1.27790       -0.90810
N          5.42950        1.76890       -0.86150
S          6.37810        0.87250       -1.81850
N          5.25950       -0.18160       -2.32570
C          3.03250        1.76760       -0.28360
C          2.80940        2.89560        0.52140
S          3.70200        4.16800        1.27390
C          2.20670        4.83110        1.90070
C          1.90950        5.96820        2.66790
C          2.92880        6.84660        3.30990
C          4.08620        6.06790        3.93000
C          0.53640        6.09410        2.85630
S         -0.36820        4.75200        2.15100
C          1.08480        4.07750        1.52500
C          1.43150        2.96920        0.74850
N          0.79290        1.91810        0.13960
C          1.76500        1.15070       -0.48240
C          1.71140       -0.09790       -1.15180
N          0.72540       -1.05580       -1.26400
C          1.21830       -2.07850       -2.03100
C          0.79780       -3.33740       -2.46630
S         -0.61490       -4.31270       -2.32450
C         -0.47660       -1.24970       -0.48300
C         -1.74330       -1.12590       -1.33060
C         -0.59940        2.08290       -0.22180
C         -0.75840        3.13750       -1.31670
C         -0.22990        7.04010        3.57110
C          0.01160        8.37580        3.72430
C          0.90420        9.20420        2.87100
O          1.57180        8.84210        1.92680
C          0.70140       10.58740        3.34200
C          1.18990       11.86560        3.03540
C          0.59550       12.81170        3.82630
Cl         0.90070       14.48680        3.80030
S         -0.57290       12.16150        4.94980
C         -0.25410       10.58650        4.34580
C         -0.72410        9.25780        4.62030
C         -1.64910        8.93390        5.58080
C         -2.08130        7.63310        5.89920
N         -2.46480        6.59740        6.21430
C         -2.25370        9.94100        6.36190
N         -2.74990       10.75690        6.99800
H          0.21830       -7.46910       -4.14910
H         -5.32710       -6.50410       -1.35500
H         -6.98320       -8.39000       -1.47790
H         -4.19870      -10.77280       -3.66160
H          3.12880       -5.46720       -4.93250
H          1.87440       -6.68640       -5.19550
H          3.83240       -7.68030       -4.06690
H          3.70400       -6.50740       -2.75100
H          2.44300       -7.72380       -2.98310
H          3.31130        7.54140        2.55570
H          2.43990        7.44480        4.08210
H          4.69510        5.58940        3.16870
H          3.71240        5.30430        4.60870
H          4.71950        6.74880        4.49300
H         -0.46970       -0.54850        0.35270
H         -0.43980       -2.26180       -0.06510
H         -2.61580       -1.09610       -0.68410
H         -1.72820       -0.23000       -1.94780
H         -1.83840       -1.98520       -1.98820
H         -1.13950        2.39540        0.67700
H         -1.00980        1.14510       -0.57480
H         -1.80830        3.23860       -1.57700
H         -0.39150        4.10380       -0.98070
H         -0.20280        2.84520       -2.20560
H         -1.13730        6.64310        4.01280
H          1.93110       12.08130        2.28930
