100

C          5.38100       -3.01940       -4.91010
C          5.81650       -4.12450       -5.59440
C          5.15350       -5.44740       -5.55510
O          4.23690       -5.80270       -4.84430
C          5.75930       -6.22090       -6.65970
C          5.47080       -7.51070       -7.06290
C          6.16380       -8.03690       -8.14170
C          7.11210       -7.25300       -8.78210
F          7.76870       -7.77630       -9.83000
C          7.41640       -5.95380       -8.39830
C          6.72420       -5.43710       -7.31600
C          6.79770       -4.13420       -6.65660
C          7.69930       -3.14080       -6.93650
C          7.81140       -1.93830       -6.20700
N          7.97350       -0.95510       -5.63680
C          8.65520       -3.20770       -7.97110
N          9.44660       -3.20310       -8.80230
C          4.55600       -3.01240       -3.76880
C          4.48240       -3.88960       -2.68910
C          5.42650       -5.01870       -2.45000
C          6.03340       -4.98750       -1.04830
C          3.48800       -3.48860       -1.78740
S          2.86160       -4.19720       -0.31450
C          1.70630       -2.91920       -0.20570
C          0.67100       -2.49210        0.64230
C          0.21550       -2.93350        1.90610
C         -0.78520       -2.16450        2.59850
N         -1.05480       -2.65510        3.79750
S         -0.14150       -3.96900        4.03620
N          0.63820       -3.96550        2.61840
C         -1.39600       -1.07420        1.93680
C         -2.47010       -0.23160        2.26740
S         -3.51680        0.08780        3.60350
C         -4.33850        1.30220        2.65010
C         -5.36500        2.20970        2.94590
C         -6.14730        2.19370        4.21890
C         -6.69770        0.80310        4.53590
C         -5.62410        3.04080        1.86090
S         -4.64010        2.63580        0.45600
C         -3.81570        1.42400        1.35530
C         -2.74460        0.55350        1.13980
N         -1.86660        0.24910        0.12930
C         -1.01170       -0.72130        0.61600
C          0.12970       -1.32320        0.04500
N          0.85240       -1.00470       -1.08950
C          1.80240       -1.98510       -1.24650
C          2.81890       -2.30820       -2.14730
S          3.45070       -1.64440       -3.60360
C          1.07680        0.32760       -1.61710
C          2.39090        0.91360       -1.10190
C         -2.23600        0.45780       -1.25660
C         -3.53710       -0.26810       -1.59770
C         -6.54320        4.10100        1.69660
C         -7.03790        4.98690        2.60750
C         -8.27190        5.75080        2.27790
O         -8.82100        5.80940        1.20150
C         -8.69650        6.36860        3.55080
C         -9.83790        7.09790        3.82050
C        -10.05730        7.57380        5.10870
C        -11.26680        8.37090        5.47160
C         -9.09530        7.28150        6.07800
F         -9.30800        7.72440        7.33070
C         -7.93670        6.56240        5.83280
C         -7.73600        6.10110        4.54240
C         -6.62940        5.35710        3.94350
C         -5.36850        5.25540        4.47330
C         -5.02020        5.70280        5.76400
N         -4.69010        6.02450        6.81510
C         -4.25120        4.77900        3.76010
N         -3.29810        4.44170        3.21620
H          5.62790       -2.04180       -5.30840
H          4.72340       -8.08680       -6.54020
H          5.98160       -9.03950       -8.49450
H          8.16020       -5.39690       -8.94380
H          6.22770       -4.97670       -3.18990
H          4.88780       -5.95870       -2.60000
H          5.27770       -5.15070       -0.28570
H          6.51430       -4.02920       -0.86390
H          6.78180       -5.77070       -0.95990
H         -6.98140        2.89290        4.14330
H         -5.50090        2.51950        5.04060
H         -5.89500        0.09190        4.70690
H         -7.31310        0.44450        3.71370
H         -7.31110        0.84990        5.43200
H          0.26540        0.97810       -1.29700
H          1.09690        0.27280       -2.71010
H          3.24200        0.33220       -1.44430
H          2.50030        1.93060       -1.46750
H          2.39280        0.93160       -0.01420
H         -2.35340        1.53210       -1.43010
H         -1.44890        0.06640       -1.89810
H         -3.43840       -1.33210       -1.39270
H         -4.36820        0.12440       -1.01890
H         -3.75950       -0.13500       -2.65260
H         -6.94160        4.22260        0.69240
H        -10.54870        7.29350        3.03220
H        -11.92840        8.48090        4.61750
H        -11.80720        7.88630        6.28400
H        -10.97210        9.35910        5.82400
H         -7.24510        6.37860        6.63860
