97

C         -7.98320        1.82460       -1.28050
C         -8.04210        3.12700       -0.84320
C         -6.91500        3.93390       -0.37080
O         -5.74910        3.59430       -0.25740
C         -7.46560        5.26550       -0.05950
C         -6.80530        6.38590        0.40750
C         -7.53850        7.54190        0.62390
C         -8.90100        7.53360        0.36560
F         -9.59660        8.66170        0.57850
C         -9.58540        6.41960       -0.10310
C         -8.84780        5.26770       -0.31720
C         -9.23960        3.94070       -0.79840
C        -10.51850        3.57000       -1.12560
C        -10.92000        2.29450       -1.57460
N        -11.32800        1.28490       -1.94190
C        -11.63620        4.42860       -1.05040
N        -12.58830        5.06850       -1.01450
C         -6.90930        0.93580       -1.37400
C         -7.04440       -0.37850       -1.85990
C         -8.31960       -1.02440       -2.29200
C         -9.08430       -1.57810       -1.08620
C         -5.83170       -1.05230       -1.83770
S         -5.37730       -2.68150       -2.30600
C         -3.75040       -2.32500       -1.84060
C         -2.50830       -2.96150       -1.75430
C         -2.15350       -4.29920       -2.03570
C         -0.81590       -4.72700       -1.76740
N         -0.62770       -6.00840       -2.04100
S         -2.02040       -6.62250       -2.59320
N         -2.91480       -5.27650       -2.50220
C          0.11860       -3.77930       -1.29510
C          1.48180       -3.92190       -1.02180
S          2.69680       -5.15180       -1.02480
C          3.87150       -3.94390       -0.53260
C          5.22470       -4.02090       -0.25010
C          6.01210       -5.28230       -0.38360
C          6.72060       -5.34010       -1.74020
C          5.74620       -2.76100        0.11550
S          4.50970       -1.49950        0.09310
C          3.32510       -2.65300       -0.38520
C          1.95730       -2.65470       -0.66120
N          0.93640       -1.74540       -0.70180
C         -0.22030       -2.40750       -1.06430
C         -1.57670       -2.00780       -1.23370
N         -2.27000       -0.83830       -0.98540
C         -3.57160       -1.02310       -1.35870
C         -4.75860       -0.28590       -1.34840
S         -5.24860        1.30440       -0.90410
C         -1.91140        0.41190       -0.35590
C         -1.67270        1.51690       -1.38490
C          1.25260       -0.35300       -0.47760
C          1.36590       -0.02910        1.01200
C          7.07980       -2.56880        0.46600
C          7.76770       -1.43190        0.83860
C          7.21120       -0.08430        0.92610
O          6.06570        0.26760        0.71770
C          8.33750        0.79000        1.33070
C          9.49790        0.01240        1.49070
C         10.69140        0.60340        1.86730
C         10.70350        1.97530        2.07890
F         11.84500        2.56520        2.44160
C          9.56240        2.75850        1.92470
F          9.61520        4.07630        2.13750
C          8.36100        2.15580        1.54510
F          7.27140        2.90500        1.39790
C          9.16590       -1.38500        1.19710
C         10.05050       -2.43210        1.27620
C          9.75190       -3.78500        1.01160
N          9.59190       -4.90570        0.81460
C         11.40490       -2.30090        1.64840
N         12.51400       -2.26680        1.94160
H         -8.91850        1.39860       -1.61640
H         -5.74360        6.35050        0.59510
H         -7.07450        8.44520        0.98690
H        -10.64550        6.48630       -0.28270
H         -8.95510       -0.32060       -2.83110
H         -8.07280       -1.84780       -2.96520
H         -8.47850       -2.31050       -0.55780
H         -9.34720       -0.77980       -0.39640
H         -9.99970       -2.05700       -1.42110
H          6.75050       -5.37160        0.41460
H          5.32180       -6.12450       -0.30700
H          7.28090       -6.26680       -1.82200
H          5.99420       -5.29760       -2.54830
H          7.41240       -4.50830       -1.85060
H         -2.75600        0.70690        0.27520
H         -1.05290        0.26470        0.29200
H         -1.30190        2.40810       -0.88710
H         -0.95620        1.20990       -2.14450
H         -2.60510        1.76840       -1.88290
H          0.52150        0.27470       -0.97820
H          2.22490       -0.16510       -0.94470
H          1.49580        1.04090        1.14580
H          2.23020       -0.53150        1.43750
H          0.48380       -0.35220        1.56170
H          7.66450       -3.47760        0.43620
H         11.60640        0.05120        2.00210
