
  xtb     02012221333D
 energy: -186.999126199853 gnorm: 0.000182895770 xtb: 6.4.1 (unknown)
 97108  0     0  0            999 V2000
   -0.9415    5.4453    5.7826 C   0  0  0  0  0  0  0  0  0  0  0  0
   -0.3244    6.2856    6.6718 C   0  0  0  0  0  0  0  0  0  0  0  0
    1.1067    6.6589    6.6261 C   0  0  0  0  0  0  0  0  0  0  0  0
    1.9216    6.3821    5.7708 O   0  0  0  0  0  0  0  0  0  0  0  0
    1.3764    7.3366    7.9117 C   0  0  0  0  0  0  0  0  0  0  0  0
    2.5673    7.8675    8.3696 C   0  0  0  0  0  0  0  0  0  0  0  0
    2.5904    8.4552    9.6245 C   0  0  0  0  0  0  0  0  0  0  0  0
    1.4266    8.4829   10.3786 C   0  0  0  0  0  0  0  0  0  0  0  0
    1.4683    9.0508   11.5944 F   0  0  0  0  0  0  0  0  0  0  0  0
    0.2201    7.9518    9.9429 C   0  0  0  0  0  0  0  0  0  0  0  0
    0.2032    7.3716    8.6856 C   0  0  0  0  0  0  0  0  0  0  0  0
   -0.8769    6.7390    7.9303 C   0  0  0  0  0  0  0  0  0  0  0  0
   -2.1912    6.6730    8.3117 C   0  0  0  0  0  0  0  0  0  0  0  0
   -2.6832    7.1494    9.5450 C   0  0  0  0  0  0  0  0  0  0  0  0
   -3.1412    7.5106   10.5334 N   0  0  0  0  0  0  0  0  0  0  0  0
   -3.2318    6.1497    7.5151 C   0  0  0  0  0  0  0  0  0  0  0  0
   -4.1294    5.7630    6.9122 N   0  0  0  0  0  0  0  0  0  0  0  0
   -0.5228    5.1307    4.4754 C   0  0  0  0  0  0  0  0  0  0  0  0
    0.1073    5.8994    3.4989 C   0  0  0  0  0  0  0  0  0  0  0  0
    0.4116    7.3514    3.6429 C   0  0  0  0  0  0  0  0  0  0  0  0
   -0.0049    8.1761    2.4276 C   0  0  0  0  0  0  0  0  0  0  0  0
    0.2994    5.1570    2.3248 C   0  0  0  0  0  0  0  0  0  0  0  0
    1.0666    5.5252    0.7940 S   0  0  0  0  0  0  0  0  0  0  0  0
    0.7251    3.9216    0.2536 C   0  0  0  0  0  0  0  0  0  0  0  0
    0.8760    3.1336   -0.8946 C   0  0  0  0  0  0  0  0  0  0  0  0
    1.3755    3.4612   -2.1746 C   0  0  0  0  0  0  0  0  0  0  0  0
    1.2913    2.4846   -3.2184 C   0  0  0  0  0  0  0  0  0  0  0  0
    1.7428    2.9405   -4.3761 N   0  0  0  0  0  0  0  0  0  0  0  0
    2.2365    4.4678   -4.1678 S   0  0  0  0  0  0  0  0  0  0  0  0
    1.8909    4.6065   -2.5928 N   0  0  0  0  0  0  0  0  0  0  0  0
    0.8095    1.1939   -2.9059 C   0  0  0  0  0  0  0  0  0  0  0  0
    0.7215    0.0389   -3.6909 C   0  0  0  0  0  0  0  0  0  0  0  0
    1.0069   -0.4572   -5.3219 S   0  0  0  0  0  0  0  0  0  0  0  0
    0.5470   -2.0886   -4.8693 C   0  0  0  0  0  0  0  0  0  0  0  0
    0.4605   -3.2667   -5.5946 C   0  0  0  0  0  0  0  0  0  0  0  0
    0.8240   -3.3564   -7.0401 C   0  0  0  0  0  0  0  0  0  0  0  0
    2.2719   -3.8258   -7.2096 C   0  0  0  0  0  0  0  0  0  0  0  0
    0.0490   -4.3413   -4.7815 C   0  0  0  0  0  0  0  0  0  0  0  0
   -0.2317   -3.8400   -3.1111 S   0  0  0  0  0  0  0  0  0  0  0  0
    0.1963   -2.2205   -3.5121 C   0  0  0  0  0  0  0  0  0  0  0  0
    0.2921   -0.9951   -2.8487 C   0  0  0  0  0  0  0  0  0  0  0  0
    0.0840   -0.5125   -1.5843 N   0  0  0  0  0  0  0  0  0  0  0  0
    0.3832    0.8382   -1.5902 C   0  0  0  0  0  0  0  0  0  0  0  0
    0.3189    1.8545   -0.5993 C   0  0  0  0  0  0  0  0  0  0  0  0
   -0.1841    1.8901    0.6916 N   0  0  0  0  0  0  0  0  0  0  0  0
    0.0560    3.1383    1.2000 C   0  0  0  0  0  0  0  0  0  0  0  0
   -0.1910    3.8430    2.3816 C   0  0  0  0  0  0  0  0  0  0  0  0
   -0.9442    3.5179    3.8942 S   0  0  0  0  0  0  0  0  0  0  0  0
   -1.1523    1.0331    1.3399 C   0  0  0  0  0  0  0  0  0  0  0  0
   -2.4521    0.9551    0.5432 C   0  0  0  0  0  0  0  0  0  0  0  0
   -0.0396   -1.4424   -0.4829 C   0  0  0  0  0  0  0  0  0  0  0  0
    1.2110   -1.4410    0.3923 C   0  0  0  0  0  0  0  0  0  0  0  0
   -0.1162   -5.6381   -5.2669 C   0  0  0  0  0  0  0  0  0  0  0  0
   -0.4854   -6.8033   -4.6317 C   0  0  0  0  0  0  0  0  0  0  0  0
   -0.7908   -6.9521   -3.2103 C   0  0  0  0  0  0  0  0  0  0  0  0
   -0.7947   -6.0912   -2.3475 O   0  0  0  0  0  0  0  0  0  0  0  0
   -1.1043   -8.3824   -3.0082 C   0  0  0  0  0  0  0  0  0  0  0  0
   -1.4498   -9.0280   -1.8382 C   0  0  0  0  0  0  0  0  0  0  0  0
   -1.6991  -10.3894   -1.9060 C   0  0  0  0  0  0  0  0  0  0  0  0
   -2.0371  -11.0573   -0.7959 F   0  0  0  0  0  0  0  0  0  0  0  0
   -1.6008  -11.0696   -3.1195 C   0  0  0  0  0  0  0  0  0  0  0  0
   -1.8461  -12.3842   -3.1563 F   0  0  0  0  0  0  0  0  0  0  0  0
   -1.2541  -10.4191   -4.2950 C   0  0  0  0  0  0  0  0  0  0  0  0
   -1.0032   -9.0575   -4.2359 C   0  0  0  0  0  0  0  0  0  0  0  0
   -0.6232   -8.0944   -5.2721 C   0  0  0  0  0  0  0  0  0  0  0  0
   -0.4486   -8.3970   -6.5987 C   0  0  0  0  0  0  0  0  0  0  0  0
   -0.0925   -7.4854   -7.6143 C   0  0  0  0  0  0  0  0  0  0  0  0
    0.1934   -6.8090   -8.4984 N   0  0  0  0  0  0  0  0  0  0  0  0
   -0.6087   -9.6894   -7.1422 C   0  0  0  0  0  0  0  0  0  0  0  0
   -0.7215  -10.7133   -7.6485 N   0  0  0  0  0  0  0  0  0  0  0  0
   -1.8216    4.9094    6.1202 H   0  0  0  0  0  0  0  0  0  0  0  0
    3.4520    7.8230    7.7539 H   0  0  0  0  0  0  0  0  0  0  0  0
    3.4914    8.8895   10.0276 H   0  0  0  0  0  0  0  0  0  0  0  0
   -0.6457    8.0011   10.5823 H   0  0  0  0  0  0  0  0  0  0  0  0
   -0.0997    7.7315    4.5301 H   0  0  0  0  0  0  0  0  0  0  0  0
    1.4866    7.4625    3.8153 H   0  0  0  0  0  0  0  0  0  0  0  0
    0.1302    9.2325    2.6448 H   0  0  0  0  0  0  0  0  0  0  0  0
   -1.0528    8.0044    2.1909 H   0  0  0  0  0  0  0  0  0  0  0  0
    0.5943    7.9294    1.5561 H   0  0  0  0  0  0  0  0  0  0  0  0
    0.1581   -4.0378   -7.5716 H   0  0  0  0  0  0  0  0  0  0  0  0
    0.7189   -2.3628   -7.4800 H   0  0  0  0  0  0  0  0  0  0  0  0
    2.5199   -3.8755   -8.2657 H   0  0  0  0  0  0  0  0  0  0  0  0
    2.4106   -4.8136   -6.7764 H   0  0  0  0  0  0  0  0  0  0  0  0
    2.9536   -3.1331   -6.7219 H   0  0  0  0  0  0  0  0  0  0  0  0
   -0.7303    0.0449    1.5223 H   0  0  0  0  0  0  0  0  0  0  0  0
   -1.3563    1.4791    2.3164 H   0  0  0  0  0  0  0  0  0  0  0  0
   -3.1556    0.2981    1.0469 H   0  0  0  0  0  0  0  0  0  0  0  0
   -2.2780    0.5807   -0.4629 H   0  0  0  0  0  0  0  0  0  0  0  0
   -2.8988    1.9435    0.4643 H   0  0  0  0  0  0  0  0  0  0  0  0
   -0.9390   -1.2346    0.0968 H   0  0  0  0  0  0  0  0  0  0  0  0
   -0.1665   -2.4330   -0.9260 H   0  0  0  0  0  0  0  0  0  0  0  0
    1.4135   -0.4511    0.7948 H   0  0  0  0  0  0  0  0  0  0  0  0
    2.0733   -1.7514   -0.1931 H   0  0  0  0  0  0  0  0  0  0  0  0
    1.0853   -2.1381    1.2161 H   0  0  0  0  0  0  0  0  0  0  0  0
    0.0884   -5.7264   -6.3248 H   0  0  0  0  0  0  0  0  0  0  0  0
   -1.5244   -8.4976   -0.9025 H   0  0  0  0  0  0  0  0  0  0  0  0
   -1.1923  -10.9923   -5.2052 H   0  0  0  0  0  0  0  0  0  0  0  0
  1  2  2  0  0  0  0
  2  3  1  0  0  0  0
  3  4  2  0  0  0  0
  3  5  1  0  0  0  0
  5  6  2  0  0  0  0
  6  7  1  0  0  0  0
  7  8  2  0  0  0  0
  8  9  1  0  0  0  0
  8 10  1  0  0  0  0
 10 11  2  0  0  0  0
 11 12  1  0  0  0  0
 12 13  2  0  0  0  0
 13 14  1  0  0  0  0
 14 15  3  0  0  0  0
 13 16  1  0  0  0  0
 16 17  3  0  0  0  0
  1 18  1  0  0  0  0
 18 19  2  0  0  0  0
 19 20  1  0  0  0  0
 20 21  1  0  0  0  0
 19 22  1  0  0  0  0
 22 23  1  0  0  0  0
 23 24  1  0  0  0  0
 24 25  1  0  0  0  0
 25 26  1  0  0  0  0
 26 27  1  0  0  0  0
 27 28  2  0  0  0  0
 28 29  1  0  0  0  0
 29 30  1  0  0  0  0
 27 31  1  0  0  0  0
 31 32  1  0  0  0  0
 32 33  1  0  0  0  0
 33 34  1  0  0  0  0
 34 35  1  0  0  0  0
 35 36  1  0  0  0  0
 36 37  1  0  0  0  0
 35 38  2  0  0  0  0
 38 39  1  0  0  0  0
 39 40  1  0  0  0  0
 40 41  1  0  0  0  0
 41 42  1  0  0  0  0
 42 43  1  0  0  0  0
 43 44  1  0  0  0  0
 44 45  1  0  0  0  0
 45 46  1  0  0  0  0
 46 47  1  0  0  0  0
 47 48  1  0  0  0  0
 45 49  1  0  0  0  0
 49 50  1  0  0  0  0
 42 51  1  0  0  0  0
 51 52  1  0  0  0  0
 38 53  1  0  0  0  0
 53 54  2  0  0  0  0
 54 55  1  0  0  0  0
 55 56  2  0  0  0  0
 55 57  1  0  0  0  0
 57 58  2  0  0  0  0
 58 59  1  0  0  0  0
 59 60  1  0  0  0  0
 59 61  2  0  0  0  0
 61 62  1  0  0  0  0
 61 63  1  0  0  0  0
 63 64  2  0  0  0  0
 64 65  1  0  0  0  0
 65 66  2  0  0  0  0
 66 67  1  0  0  0  0
 67 68  3  0  0  0  0
 66 69  1  0  0  0  0
 69 70  3  0  0  0  0
 12  2  1  0  0  0  0
 48 18  1  0  0  0  0
 65 54  1  0  0  0  0
 11  5  1  0  0  0  0
 47 22  2  0  0  0  0
 64 57  1  0  0  0  0
 46 24  2  0  0  0  0
 44 25  2  0  0  0  0
 30 26  2  0  0  0  0
 43 31  2  0  0  0  0
 41 32  2  0  0  0  0
 40 34  2  0  0  0  0
  1 71  1  0  0  0  0
  6 72  1  0  0  0  0
  7 73  1  0  0  0  0
 10 74  1  0  0  0  0
 20 75  1  0  0  0  0
 20 76  1  0  0  0  0
 21 77  1  0  0  0  0
 21 78  1  0  0  0  0
 21 79  1  0  0  0  0
 36 80  1  0  0  0  0
 36 81  1  0  0  0  0
 37 82  1  0  0  0  0
 37 83  1  0  0  0  0
 37 84  1  0  0  0  0
 49 85  1  0  0  0  0
 49 86  1  0  0  0  0
 50 87  1  0  0  0  0
 50 88  1  0  0  0  0
 50 89  1  0  0  0  0
 51 90  1  0  0  0  0
 51 91  1  0  0  0  0
 52 92  1  0  0  0  0
 52 93  1  0  0  0  0
 52 94  1  0  0  0  0
 53 95  1  0  0  0  0
 58 96  1  0  0  0  0
 63 97  1  0  0  0  0
M  END
