
  xtb     02022200023D
 energy: -261.550966695160 gnorm: 0.000572608159 xtb: 6.4.1 (unknown)
154170  0     0  0            999 V2000
   -7.3077   -5.0010   -4.7677 C   0  0  0  0  0  0  0  0  0  0  0  0
   -7.1982   -5.5869   -6.0068 C   0  0  0  0  0  0  0  0  0  0  0  0
   -5.9546   -5.7732   -6.7606 C   0  0  0  0  0  0  0  0  0  0  0  0
   -4.8269   -5.4539   -6.4303 O   0  0  0  0  0  0  0  0  0  0  0  0
   -6.3381   -6.4363   -8.0223 C   0  0  0  0  0  0  0  0  0  0  0  0
   -5.5304   -6.8283   -9.0722 C   0  0  0  0  0  0  0  0  0  0  0  0
   -6.1208   -7.4403  -10.1669 C   0  0  0  0  0  0  0  0  0  0  0  0
   -7.4933   -7.6363  -10.1693 C   0  0  0  0  0  0  0  0  0  0  0  0
   -8.0506   -8.2306  -11.2375 F   0  0  0  0  0  0  0  0  0  0  0  0
   -8.3246   -7.2506   -9.1258 C   0  0  0  0  0  0  0  0  0  0  0  0
   -7.7290   -6.6397   -8.0352 C   0  0  0  0  0  0  0  0  0  0  0  0
   -8.2938   -6.1187   -6.7875 C   0  0  0  0  0  0  0  0  0  0  0  0
   -9.6259   -6.1417   -6.4591 C   0  0  0  0  0  0  0  0  0  0  0  0
  -10.1917   -5.6518   -5.2642 C   0  0  0  0  0  0  0  0  0  0  0  0
  -10.7343   -5.2790   -4.3220 N   0  0  0  0  0  0  0  0  0  0  0  0
  -10.6380   -6.6672   -7.2895 C   0  0  0  0  0  0  0  0  0  0  0  0
  -11.5120   -7.0735   -7.9134 N   0  0  0  0  0  0  0  0  0  0  0  0
   -6.3406   -4.4284   -3.9361 C   0  0  0  0  0  0  0  0  0  0  0  0
   -4.6110   -4.2966   -4.2712 S   0  0  0  0  0  0  0  0  0  0  0  0
   -4.3871   -3.4760   -2.7764 C   0  0  0  0  0  0  0  0  0  0  0  0
   -3.4016   -2.8675   -2.0056 C   0  0  0  0  0  0  0  0  0  0  0  0
   -1.7057   -2.5158   -2.0772 S   0  0  0  0  0  0  0  0  0  0  0  0
   -1.8545   -1.6851   -0.5663 C   0  0  0  0  0  0  0  0  0  0  0  0
   -0.9402   -0.9546    0.2513 C   0  0  0  0  0  0  0  0  0  0  0  0
    0.4126   -0.6770    0.0752 C   0  0  0  0  0  0  0  0  0  0  0  0
    1.0257    0.0917    1.0358 C   0  0  0  0  0  0  0  0  0  0  0  0
    2.4669    0.5648    1.0828 C   0  0  0  0  0  0  0  0  0  0  0  0
    3.4563   -0.5444    1.4090 C   0  0  0  0  0  0  0  0  0  0  0  0
    3.0457   -1.7923    1.8525 C   0  0  0  0  0  0  0  0  0  0  0  0
    3.9802   -2.7551    2.1912 C   0  0  0  0  0  0  0  0  0  0  0  0
    5.3402   -2.4920    2.1098 C   0  0  0  0  0  0  0  0  0  0  0  0
    6.3519   -3.5509    2.4408 C   0  0  0  0  0  0  0  0  0  0  0  0
    6.7462   -4.3262    1.1820 C   0  0  0  0  0  0  0  0  0  0  0  0
    5.7442   -1.2360    1.6732 C   0  0  0  0  0  0  0  0  0  0  0  0
    4.8172   -0.2723    1.3290 C   0  0  0  0  0  0  0  0  0  0  0  0
    2.8266    1.2657   -0.2106 C   0  0  0  0  0  0  0  0  0  0  0  0
    3.2977    0.5295   -1.2902 C   0  0  0  0  0  0  0  0  0  0  0  0
    3.6119    1.1554   -2.4810 C   0  0  0  0  0  0  0  0  0  0  0  0
    3.4615    2.5284   -2.6265 C   0  0  0  0  0  0  0  0  0  0  0  0
    3.8697    3.2155   -3.8972 C   0  0  0  0  0  0  0  0  0  0  0  0
    5.3377    3.6403   -3.8189 C   0  0  0  0  0  0  0  0  0  0  0  0
    2.9757    3.2566   -1.5493 C   0  0  0  0  0  0  0  0  0  0  0  0
    2.6545    2.6344   -0.3572 C   0  0  0  0  0  0  0  0  0  0  0  0
    2.4276    1.4661    2.2871 C   0  0  0  0  0  0  0  0  0  0  0  0
    1.1874    1.4013    2.9019 C   0  0  0  0  0  0  0  0  0  0  0  0
    0.2966    0.5791    2.1467 C   0  0  0  0  0  0  0  0  0  0  0  0
   -1.0517    0.2810    2.3327 C   0  0  0  0  0  0  0  0  0  0  0  0
   -1.6645   -0.4878    1.3729 C   0  0  0  0  0  0  0  0  0  0  0  0
   -3.1200   -0.9435    1.3067 C   0  0  0  0  0  0  0  0  0  0  0  0
   -3.4114   -1.9543    2.4084 C   0  0  0  0  0  0  0  0  0  0  0  0
   -4.6073   -1.9818    3.1112 C   0  0  0  0  0  0  0  0  0  0  0  0
   -4.8403   -2.9557    4.0669 C   0  0  0  0  0  0  0  0  0  0  0  0
   -3.8960   -3.9345    4.3396 C   0  0  0  0  0  0  0  0  0  0  0  0
   -4.1390   -4.9681    5.4003 C   0  0  0  0  0  0  0  0  0  0  0  0
   -3.6210   -4.4784    6.7541 C   0  0  0  0  0  0  0  0  0  0  0  0
   -2.7015   -3.9076    3.6303 C   0  0  0  0  0  0  0  0  0  0  0  0
   -2.4635   -2.9362    2.6785 C   0  0  0  0  0  0  0  0  0  0  0  0
   -4.0093    0.2827    1.3290 C   0  0  0  0  0  0  0  0  0  0  0  0
   -4.5596    0.7933    0.1606 C   0  0  0  0  0  0  0  0  0  0  0  0
   -5.3340    1.9392    0.1861 C   0  0  0  0  0  0  0  0  0  0  0  0
   -5.5709    2.6159    1.3740 C   0  0  0  0  0  0  0  0  0  0  0  0
   -6.4494    3.8323    1.4084 C   0  0  0  0  0  0  0  0  0  0  0  0
   -7.9007    3.4348    1.6863 C   0  0  0  0  0  0  0  0  0  0  0  0
   -5.0087    2.1112    2.5397 C   0  0  0  0  0  0  0  0  0  0  0  0
   -4.2370    0.9656    2.5195 C   0  0  0  0  0  0  0  0  0  0  0  0
   -3.1275   -1.6794   -0.0151 C   0  0  0  0  0  0  0  0  0  0  0  0
   -4.0309   -2.3605   -0.8357 C   0  0  0  0  0  0  0  0  0  0  0  0
   -5.3708   -2.6346   -0.8856 N   0  0  0  0  0  0  0  0  0  0  0  0
   -5.6013   -3.3216   -2.0511 C   0  0  0  0  0  0  0  0  0  0  0  0
   -6.6912   -3.8580   -2.7049 C   0  0  0  0  0  0  0  0  0  0  0  0
   -6.3640   -2.3640    0.1211 C   0  0  0  0  0  0  0  0  0  0  0  0
   -6.6469   -3.5999    0.9714 C   0  0  0  0  0  0  0  0  0  0  0  0
    1.0558    2.3658    4.3345 S   0  0  0  0  0  0  0  0  0  0  0  0
    2.7009    2.8991    4.0960 C   0  0  0  0  0  0  0  0  0  0  0  0
    3.5242    3.7881    4.7531 C   0  0  0  0  0  0  0  0  0  0  0  0
    4.7651    3.9324    4.1209 C   0  0  0  0  0  0  0  0  0  0  0  0
    4.8956    2.9066    2.6938 S   0  0  0  0  0  0  0  0  0  0  0  0
    3.3013    2.3180    2.9559 C   0  0  0  0  0  0  0  0  0  0  0  0
    5.7321    4.8240    4.5990 C   0  0  0  0  0  0  0  0  0  0  0  0
    6.9536    5.1802    4.0781 C   0  0  0  0  0  0  0  0  0  0  0  0
    7.5285    4.6797    2.8262 C   0  0  0  0  0  0  0  0  0  0  0  0
    7.0904    3.8059    2.0986 O   0  0  0  0  0  0  0  0  0  0  0  0
    8.7643    5.4528    2.6042 C   0  0  0  0  0  0  0  0  0  0  0  0
    9.6290    5.3946    1.5505 C   0  0  0  0  0  0  0  0  0  0  0  0
   10.7469    6.2584    1.5335 C   0  0  0  0  0  0  0  0  0  0  0  0
   11.6654    6.2495    0.4662 C   0  0  0  0  0  0  0  0  0  0  0  0
   12.7332    7.1025    0.4709 C   0  0  0  0  0  0  0  0  0  0  0  0
   13.6051    7.0949   -0.5476 F   0  0  0  0  0  0  0  0  0  0  0  0
   12.9295    7.9977    1.5409 C   0  0  0  0  0  0  0  0  0  0  0  0
   13.9847    8.8236    1.5180 F   0  0  0  0  0  0  0  0  0  0  0  0
   12.0561    8.0279    2.5918 C   0  0  0  0  0  0  0  0  0  0  0  0
   10.9441    7.1626    2.6166 C   0  0  0  0  0  0  0  0  0  0  0  0
   10.0324    7.1929    3.6976 C   0  0  0  0  0  0  0  0  0  0  0  0
    8.9538    6.3490    3.6924 C   0  0  0  0  0  0  0  0  0  0  0  0
    7.8538    6.1670    4.6390 C   0  0  0  0  0  0  0  0  0  0  0  0
    7.7385    6.8161    5.8424 C   0  0  0  0  0  0  0  0  0  0  0  0
    8.6704    7.7603    6.3211 C   0  0  0  0  0  0  0  0  0  0  0  0
    9.3909    8.5339    6.7695 N   0  0  0  0  0  0  0  0  0  0  0  0
    6.7028    6.6368    6.7823 C   0  0  0  0  0  0  0  0  0  0  0  0
    5.9005    6.5513    7.6005 N   0  0  0  0  0  0  0  0  0  0  0  0
   -8.3043   -4.9544   -4.3456 H   0  0  0  0  0  0  0  0  0  0  0  0
   -4.4662   -6.6575   -9.0294 H   0  0  0  0  0  0  0  0  0  0  0  0
   -5.5384   -7.7663  -11.0140 H   0  0  0  0  0  0  0  0  0  0  0  0
   -9.3835   -7.4351   -9.1965 H   0  0  0  0  0  0  0  0  0  0  0  0
    0.9443   -1.0466   -0.7877 H   0  0  0  0  0  0  0  0  0  0  0  0
    1.9928   -2.0193    1.9353 H   0  0  0  0  0  0  0  0  0  0  0  0
    3.6435   -3.7244    2.5308 H   0  0  0  0  0  0  0  0  0  0  0  0
    5.9367   -4.2440    3.1751 H   0  0  0  0  0  0  0  0  0  0  0  0
    7.2424   -3.0888    2.8717 H   0  0  0  0  0  0  0  0  0  0  0  0
    5.8736   -4.8061    0.7445 H   0  0  0  0  0  0  0  0  0  0  0  0
    7.4807   -5.0917    1.4210 H   0  0  0  0  0  0  0  0  0  0  0  0
    7.1734   -3.6533    0.4419 H   0  0  0  0  0  0  0  0  0  0  0  0
    6.7978   -1.0063    1.6077 H   0  0  0  0  0  0  0  0  0  0  0  0
    5.1506    0.6990    0.9938 H   0  0  0  0  0  0  0  0  0  0  0  0
    3.4343   -0.5379   -1.1925 H   0  0  0  0  0  0  0  0  0  0  0  0
    3.9818    0.5687   -3.3098 H   0  0  0  0  0  0  0  0  0  0  0  0
    3.2474    4.0978   -4.0594 H   0  0  0  0  0  0  0  0  0  0  0  0
    3.7345    2.5407   -4.7448 H   0  0  0  0  0  0  0  0  0  0  0  0
    5.6392    4.1418   -4.7356 H   0  0  0  0  0  0  0  0  0  0  0  0
    5.4899    4.3198   -2.9832 H   0  0  0  0  0  0  0  0  0  0  0  0
    5.9745    2.7710   -3.6715 H   0  0  0  0  0  0  0  0  0  0  0  0
    2.8457    4.3254   -1.6432 H   0  0  0  0  0  0  0  0  0  0  0  0
    2.2710    3.2222    0.4641 H   0  0  0  0  0  0  0  0  0  0  0  0
   -1.5769    0.6601    3.1945 H   0  0  0  0  0  0  0  0  0  0  0  0
   -5.3709   -1.2416    2.9242 H   0  0  0  0  0  0  0  0  0  0  0  0
   -5.7790   -2.9562    4.6024 H   0  0  0  0  0  0  0  0  0  0  0  0
   -3.6291   -5.8964    5.1350 H   0  0  0  0  0  0  0  0  0  0  0  0
   -5.2082   -5.1751    5.4776 H   0  0  0  0  0  0  0  0  0  0  0  0
   -4.1287   -3.5614    7.0445 H   0  0  0  0  0  0  0  0  0  0  0  0
   -2.5536   -4.2762    6.7005 H   0  0  0  0  0  0  0  0  0  0  0  0
   -3.7944   -5.2294    7.5211 H   0  0  0  0  0  0  0  0  0  0  0  0
   -1.9504   -4.6603    3.8222 H   0  0  0  0  0  0  0  0  0  0  0  0
   -1.5297   -2.9413    2.1350 H   0  0  0  0  0  0  0  0  0  0  0  0
   -4.3822    0.2990   -0.7832 H   0  0  0  0  0  0  0  0  0  0  0  0
   -5.7541    2.3151   -0.7358 H   0  0  0  0  0  0  0  0  0  0  0  0
   -6.1073    4.5138    2.1897 H   0  0  0  0  0  0  0  0  0  0  0  0
   -6.3963    4.3545    0.4512 H   0  0  0  0  0  0  0  0  0  0  0  0
   -8.5379    4.3155    1.7112 H   0  0  0  0  0  0  0  0  0  0  0  0
   -8.2649    2.7647    0.9106 H   0  0  0  0  0  0  0  0  0  0  0  0
   -7.9770    2.9241    2.6438 H   0  0  0  0  0  0  0  0  0  0  0  0
   -5.1734    2.6244    3.4764 H   0  0  0  0  0  0  0  0  0  0  0  0
   -3.8179    0.5936    3.4426 H   0  0  0  0  0  0  0  0  0  0  0  0
   -7.7057   -3.8516   -2.3485 H   0  0  0  0  0  0  0  0  0  0  0  0
   -7.2798   -2.0380   -0.3817 H   0  0  0  0  0  0  0  0  0  0  0  0
   -5.9986   -1.5453    0.7428 H   0  0  0  0  0  0  0  0  0  0  0  0
   -7.3953   -3.3688    1.7236 H   0  0  0  0  0  0  0  0  0  0  0  0
   -7.0159   -4.4111    0.3484 H   0  0  0  0  0  0  0  0  0  0  0  0
   -5.7397   -3.9290    1.4727 H   0  0  0  0  0  0  0  0  0  0  0  0
    3.2610    4.3328    5.6420 H   0  0  0  0  0  0  0  0  0  0  0  0
    5.4297    5.3256    5.5105 H   0  0  0  0  0  0  0  0  0  0  0  0
    9.4591    4.7037    0.7387 H   0  0  0  0  0  0  0  0  0  0  0  0
   11.5283    5.5703   -0.3606 H   0  0  0  0  0  0  0  0  0  0  0  0
   12.2214    8.7194    3.4032 H   0  0  0  0  0  0  0  0  0  0  0  0
   10.2107    7.8910    4.4992 H   0  0  0  0  0  0  0  0  0  0  0  0
  1  2  2  0  0  0  0
  2  3  1  0  0  0  0
  3  4  2  0  0  0  0
  3  5  1  0  0  0  0
  5  6  2  0  0  0  0
  6  7  1  0  0  0  0
  7  8  2  0  0  0  0
  8  9  1  0  0  0  0
  8 10  1  0  0  0  0
 10 11  2  0  0  0  0
 11 12  1  0  0  0  0
 12 13  2  0  0  0  0
 13 14  1  0  0  0  0
 14 15  3  0  0  0  0
 13 16  1  0  0  0  0
 16 17  3  0  0  0  0
  1 18  1  0  0  0  0
 18 19  1  0  0  0  0
 19 20  1  0  0  0  0
 20 21  1  0  0  0  0
 21 22  1  0  0  0  0
 22 23  1  0  0  0  0
 23 24  1  0  0  0  0
 24 25  2  0  0  0  0
 25 26  1  0  0  0  0
 26 27  1  0  0  0  0
 27 28  1  0  0  0  0
 28 29  2  0  0  0  0
 29 30  1  0  0  0  0
 30 31  2  0  0  0  0
 31 32  1  0  0  0  0
 32 33  1  0  0  0  0
 31 34  1  0  0  0  0
 34 35  2  0  0  0  0
 27 36  1  0  0  0  0
 36 37  2  0  0  0  0
 37 38  1  0  0  0  0
 38 39  2  0  0  0  0
 39 40  1  0  0  0  0
 40 41  1  0  0  0  0
 39 42  1  0  0  0  0
 42 43  2  0  0  0  0
 27 44  1  0  0  0  0
 44 45  2  0  0  0  0
 45 46  1  0  0  0  0
 46 47  1  0  0  0  0
 47 48  2  0  0  0  0
 48 49  1  0  0  0  0
 49 50  1  0  0  0  0
 50 51  2  0  0  0  0
 51 52  1  0  0  0  0
 52 53  2  0  0  0  0
 53 54  1  0  0  0  0
 54 55  1  0  0  0  0
 53 56  1  0  0  0  0
 56 57  2  0  0  0  0
 49 58  1  0  0  0  0
 58 59  2  0  0  0  0
 59 60  1  0  0  0  0
 60 61  2  0  0  0  0
 61 62  1  0  0  0  0
 62 63  1  0  0  0  0
 61 64  1  0  0  0  0
 64 65  2  0  0  0  0
 49 66  1  0  0  0  0
 66 67  1  0  0  0  0
 67 68  1  0  0  0  0
 68 69  1  0  0  0  0
 69 70  1  0  0  0  0
 68 71  1  0  0  0  0
 71 72  1  0  0  0  0
 45 73  1  0  0  0  0
 73 74  1  0  0  0  0
 74 75  1  0  0  0  0
 75 76  2  0  0  0  0
 76 77  1  0  0  0  0
 77 78  1  0  0  0  0
 76 79  1  0  0  0  0
 79 80  2  0  0  0  0
 80 81  1  0  0  0  0
 81 82  2  0  0  0  0
 81 83  1  0  0  0  0
 83 84  2  0  0  0  0
 84 85  1  0  0  0  0
 85 86  2  0  0  0  0
 86 87  1  0  0  0  0
 87 88  1  0  0  0  0
 87 89  2  0  0  0  0
 89 90  1  0  0  0  0
 89 91  1  0  0  0  0
 91 92  2  0  0  0  0
 92 93  1  0  0  0  0
 93 94  2  0  0  0  0
 94 95  1  0  0  0  0
 95 96  2  0  0  0  0
 96 97  1  0  0  0  0
 97 98  3  0  0  0  0
 96 99  1  0  0  0  0
 99100  3  0  0  0  0
 12  2  1  0  0  0  0
 70 18  2  0  0  0  0
 78 74  2  0  0  0  0
 95 80  1  0  0  0  0
 11  5  1  0  0  0  0
 69 20  2  0  0  0  0
 94 83  1  0  0  0  0
 67 21  2  0  0  0  0
 92 85  1  0  0  0  0
 66 23  2  0  0  0  0
 48 24  1  0  0  0  0
 57 50  1  0  0  0  0
 65 58  1  0  0  0  0
 46 26  2  0  0  0  0
 35 28  1  0  0  0  0
 43 36  1  0  0  0  0
 78 44  1  0  0  0  0
  1101  1  0  0  0  0
  6102  1  0  0  0  0
  7103  1  0  0  0  0
 10104  1  0  0  0  0
 25105  1  0  0  0  0
 29106  1  0  0  0  0
 30107  1  0  0  0  0
 32108  1  0  0  0  0
 32109  1  0  0  0  0
 33110  1  0  0  0  0
 33111  1  0  0  0  0
 33112  1  0  0  0  0
 34113  1  0  0  0  0
 35114  1  0  0  0  0
 37115  1  0  0  0  0
 38116  1  0  0  0  0
 40117  1  0  0  0  0
 40118  1  0  0  0  0
 41119  1  0  0  0  0
 41120  1  0  0  0  0
 41121  1  0  0  0  0
 42122  1  0  0  0  0
 43123  1  0  0  0  0
 47124  1  0  0  0  0
 51125  1  0  0  0  0
 52126  1  0  0  0  0
 54127  1  0  0  0  0
 54128  1  0  0  0  0
 55129  1  0  0  0  0
 55130  1  0  0  0  0
 55131  1  0  0  0  0
 56132  1  0  0  0  0
 57133  1  0  0  0  0
 59134  1  0  0  0  0
 60135  1  0  0  0  0
 62136  1  0  0  0  0
 62137  1  0  0  0  0
 63138  1  0  0  0  0
 63139  1  0  0  0  0
 63140  1  0  0  0  0
 64141  1  0  0  0  0
 65142  1  0  0  0  0
 70143  1  0  0  0  0
 71144  1  0  0  0  0
 71145  1  0  0  0  0
 72146  1  0  0  0  0
 72147  1  0  0  0  0
 72148  1  0  0  0  0
 75149  1  0  0  0  0
 79150  1  0  0  0  0
 84151  1  0  0  0  0
 86152  1  0  0  0  0
 91153  1  0  0  0  0
 93154  1  0  0  0  0
M  END
