
  xtb     02012222473D
 energy: -264.340895172654 gnorm: 0.000410438804 xtb: 6.4.1 (unknown)
156171  0     0  0            999 V2000
   -6.7338    5.9315   -0.0337 C   0  0  0  0  0  0  0  0  0  0  0  0
   -7.1187    7.1561   -0.5239 C   0  0  0  0  0  0  0  0  0  0  0  0
   -6.4215    8.0274   -1.4934 C   0  0  0  0  0  0  0  0  0  0  0  0
   -5.3069    7.9179   -1.9649 O   0  0  0  0  0  0  0  0  0  0  0  0
   -7.3719    9.1122   -1.8119 C   0  0  0  0  0  0  0  0  0  0  0  0
   -7.2097   10.1547   -2.7046 C   0  0  0  0  0  0  0  0  0  0  0  0
   -8.2454   11.0624   -2.8557 C   0  0  0  0  0  0  0  0  0  0  0  0
   -9.4019   10.8934   -2.1088 C   0  0  0  0  0  0  0  0  0  0  0  0
  -10.3990   11.7784   -2.2701 F   0  0  0  0  0  0  0  0  0  0  0  0
   -9.5851    9.8566   -1.2038 C   0  0  0  0  0  0  0  0  0  0  0  0
   -8.5454    8.9531   -1.0578 C   0  0  0  0  0  0  0  0  0  0  0  0
   -8.3975    7.7696   -0.2097 C   0  0  0  0  0  0  0  0  0  0  0  0
   -9.3055    7.3754    0.7384 C   0  0  0  0  0  0  0  0  0  0  0  0
   -9.1675    6.2939    1.6352 C   0  0  0  0  0  0  0  0  0  0  0  0
   -9.1415    5.4521    2.4165 N   0  0  0  0  0  0  0  0  0  0  0  0
  -10.5307    8.0332    0.9810 C   0  0  0  0  0  0  0  0  0  0  0  0
  -11.5431    8.5125    1.2318 N   0  0  0  0  0  0  0  0  0  0  0  0
   -5.5639    5.1793   -0.2096 C   0  0  0  0  0  0  0  0  0  0  0  0
   -5.5534    3.5750    0.5409 S   0  0  0  0  0  0  0  0  0  0  0  0
   -3.9778    3.3037   -0.0486 C   0  0  0  0  0  0  0  0  0  0  0  0
   -2.9944    2.2909   -0.0085 C   0  0  0  0  0  0  0  0  0  0  0  0
   -1.8654    2.6851   -0.7137 C   0  0  0  0  0  0  0  0  0  0  0  0
   -2.0763    4.0813   -1.2822 C   0  0  0  0  0  0  0  0  0  0  0  0
   -3.4764    4.3860   -0.7803 C   0  0  0  0  0  0  0  0  0  0  0  0
   -4.3622    5.4399   -0.8665 C   0  0  0  0  0  0  0  0  0  0  0  0
   -2.1348    4.1208   -2.7985 C   0  0  0  0  0  0  0  0  0  0  0  0
   -2.0581    2.9624   -3.5590 C   0  0  0  0  0  0  0  0  0  0  0  0
   -2.1608    3.0167   -4.9377 C   0  0  0  0  0  0  0  0  0  0  0  0
   -2.3508    4.2237   -5.5940 C   0  0  0  0  0  0  0  0  0  0  0  0
   -2.4998    4.2778   -7.0867 C   0  0  0  0  0  0  0  0  0  0  0  0
   -3.9778    4.2198   -7.4781 C   0  0  0  0  0  0  0  0  0  0  0  0
   -2.4579    5.3774   -4.8273 C   0  0  0  0  0  0  0  0  0  0  0  0
   -2.3600    5.3293   -3.4506 C   0  0  0  0  0  0  0  0  0  0  0  0
   -1.0989    5.0555   -0.6322 C   0  0  0  0  0  0  0  0  0  0  0  0
   -1.0997    5.1445    0.7559 C   0  0  0  0  0  0  0  0  0  0  0  0
   -0.2397    6.0025    1.4119 C   0  0  0  0  0  0  0  0  0  0  0  0
    0.6527    6.7958    0.7024 C   0  0  0  0  0  0  0  0  0  0  0  0
    1.5575    7.7625    1.4090 C   0  0  0  0  0  0  0  0  0  0  0  0
    0.8942    9.1376    1.5105 C   0  0  0  0  0  0  0  0  0  0  0  0
    0.6522    6.7036   -0.6818 C   0  0  0  0  0  0  0  0  0  0  0  0
   -0.2090    5.8469   -1.3443 C   0  0  0  0  0  0  0  0  0  0  0  0
   -0.8459    1.6966   -0.6861 C   0  0  0  0  0  0  0  0  0  0  0  0
    0.4548    1.6611   -1.2680 C   0  0  0  0  0  0  0  0  0  0  0  0
    1.0019    2.7980   -2.0819 C   0  0  0  0  0  0  0  0  0  0  0  0
    1.3837    2.3736   -3.5005 C   0  0  0  0  0  0  0  0  0  0  0  0
    1.2272    0.5485   -1.0791 C   0  0  0  0  0  0  0  0  0  0  0  0
    0.7902   -0.5799   -0.3549 C   0  0  0  0  0  0  0  0  0  0  0  0
    1.5596   -1.7434   -0.1979 C   0  0  0  0  0  0  0  0  0  0  0  0
    3.1483   -1.9181   -0.8941 S   0  0  0  0  0  0  0  0  0  0  0  0
    3.2269   -3.5094   -0.2497 C   0  0  0  0  0  0  0  0  0  0  0  0
    4.1876   -4.5411   -0.2580 C   0  0  0  0  0  0  0  0  0  0  0  0
    3.6917   -5.6283    0.4655 C   0  0  0  0  0  0  0  0  0  0  0  0
    2.3106   -5.3111    1.0093 C   0  0  0  0  0  0  0  0  0  0  0  0
    2.3946   -5.2694    2.5341 C   0  0  0  0  0  0  0  0  0  0  0  0
    3.3972   -4.4956    3.1099 C   0  0  0  0  0  0  0  0  0  0  0  0
    3.5318   -4.4188    4.4816 C   0  0  0  0  0  0  0  0  0  0  0  0
    2.6692   -5.1108    5.3223 C   0  0  0  0  0  0  0  0  0  0  0  0
    2.7864   -4.9940    6.8139 C   0  0  0  0  0  0  0  0  0  0  0  0
    1.9399   -3.8259    7.3240 C   0  0  0  0  0  0  0  0  0  0  0  0
    1.6668   -5.8762    4.7450 C   0  0  0  0  0  0  0  0  0  0  0  0
    1.5285   -5.9591    3.3705 C   0  0  0  0  0  0  0  0  0  0  0  0
    1.3565   -6.3387    0.4314 C   0  0  0  0  0  0  0  0  0  0  0  0
    0.4652   -6.0136   -0.5818 C   0  0  0  0  0  0  0  0  0  0  0  0
   -0.3644   -6.9776   -1.1256 C   0  0  0  0  0  0  0  0  0  0  0  0
   -0.3221   -8.2917   -0.6827 C   0  0  0  0  0  0  0  0  0  0  0  0
   -1.2005   -9.3416   -1.2979 C   0  0  0  0  0  0  0  0  0  0  0  0
   -0.5013   -9.9892   -2.4950 C   0  0  0  0  0  0  0  0  0  0  0  0
    0.5948   -8.6208    0.3076 C   0  0  0  0  0  0  0  0  0  0  0  0
    1.4275   -7.6628    0.8523 C   0  0  0  0  0  0  0  0  0  0  0  0
    2.1044   -3.9021    0.4693 C   0  0  0  0  0  0  0  0  0  0  0  0
    1.1166   -2.8827    0.5111 C   0  0  0  0  0  0  0  0  0  0  0  0
   -0.1764   -2.8383    1.1095 C   0  0  0  0  0  0  0  0  0  0  0  0
   -0.7468   -3.9964    1.8754 C   0  0  0  0  0  0  0  0  0  0  0  0
   -2.0619   -4.5001    1.2792 C   0  0  0  0  0  0  0  0  0  0  0  0
   -0.9245   -1.7018    0.9731 C   0  0  0  0  0  0  0  0  0  0  0  0
   -0.4902   -0.5750    0.2448 C   0  0  0  0  0  0  0  0  0  0  0  0
   -1.2726    0.5757    0.0600 C   0  0  0  0  0  0  0  0  0  0  0  0
   -2.8817    0.7341    0.7126 S   0  0  0  0  0  0  0  0  0  0  0  0
    4.5727   -6.6902    0.5017 C   0  0  0  0  0  0  0  0  0  0  0  0
    5.7723   -6.4138   -0.1540 C   0  0  0  0  0  0  0  0  0  0  0  0
    5.7552   -4.8079   -0.8788 S   0  0  0  0  0  0  0  0  0  0  0  0
    6.8373   -7.3130   -0.3192 C   0  0  0  0  0  0  0  0  0  0  0  0
    8.1264   -7.0727   -0.7125 C   0  0  0  0  0  0  0  0  0  0  0  0
    8.9198   -8.1716   -1.3115 C   0  0  0  0  0  0  0  0  0  0  0  0
    8.6474   -9.3470   -1.3192 O   0  0  0  0  0  0  0  0  0  0  0  0
   10.0857   -7.4943   -1.9396 C   0  0  0  0  0  0  0  0  0  0  0  0
   10.0602   -6.1232   -1.6239 C   0  0  0  0  0  0  0  0  0  0  0  0
   11.0246   -5.2625   -2.1159 C   0  0  0  0  0  0  0  0  0  0  0  0
   12.0162   -5.7937   -2.9287 C   0  0  0  0  0  0  0  0  0  0  0  0
   12.9518   -4.9823   -3.4282 F   0  0  0  0  0  0  0  0  0  0  0  0
   12.0646   -7.1496   -3.2441 C   0  0  0  0  0  0  0  0  0  0  0  0
   13.0394   -7.6228   -4.0256 F   0  0  0  0  0  0  0  0  0  0  0  0
   11.0863   -8.0120   -2.7424 C   0  0  0  0  0  0  0  0  0  0  0  0
   11.1376   -9.3040   -3.0504 F   0  0  0  0  0  0  0  0  0  0  0  0
    8.9224   -5.8725   -0.7362 C   0  0  0  0  0  0  0  0  0  0  0  0
    8.8185   -4.8095    0.1252 C   0  0  0  0  0  0  0  0  0  0  0  0
    7.8848   -4.7591    1.1813 C   0  0  0  0  0  0  0  0  0  0  0  0
    7.1781   -4.7047    2.0843 N   0  0  0  0  0  0  0  0  0  0  0  0
    9.6909   -3.7035    0.1221 C   0  0  0  0  0  0  0  0  0  0  0  0
   10.3620   -2.7726    0.1477 N   0  0  0  0  0  0  0  0  0  0  0  0
   -7.4649    5.4286    0.5886 H   0  0  0  0  0  0  0  0  0  0  0  0
   -6.2933   10.2480   -3.2660 H   0  0  0  0  0  0  0  0  0  0  0  0
   -8.1739   11.8934   -3.5392 H   0  0  0  0  0  0  0  0  0  0  0  0
  -10.5118    9.7876   -0.6592 H   0  0  0  0  0  0  0  0  0  0  0  0
   -4.1892    6.3711   -1.3713 H   0  0  0  0  0  0  0  0  0  0  0  0
   -1.9179    2.0054   -3.0790 H   0  0  0  0  0  0  0  0  0  0  0  0
   -2.0926    2.1025   -5.5106 H   0  0  0  0  0  0  0  0  0  0  0  0
   -2.0637    5.2030   -7.4687 H   0  0  0  0  0  0  0  0  0  0  0  0
   -1.9727    3.4374   -7.5426 H   0  0  0  0  0  0  0  0  0  0  0  0
   -4.0867    4.2521   -8.5596 H   0  0  0  0  0  0  0  0  0  0  0  0
   -4.4303    3.3015   -7.1103 H   0  0  0  0  0  0  0  0  0  0  0  0
   -4.5167    5.0613   -7.0487 H   0  0  0  0  0  0  0  0  0  0  0  0
   -2.6243    6.3277   -5.3135 H   0  0  0  0  0  0  0  0  0  0  0  0
   -2.4616    6.2401   -2.8813 H   0  0  0  0  0  0  0  0  0  0  0  0
   -1.7816    4.5354    1.3322 H   0  0  0  0  0  0  0  0  0  0  0  0
   -0.2605    6.0546    2.4909 H   0  0  0  0  0  0  0  0  0  0  0  0
    2.4979    7.8567    0.8621 H   0  0  0  0  0  0  0  0  0  0  0  0
    1.7804    7.3951    2.4125 H   0  0  0  0  0  0  0  0  0  0  0  0
   -0.0412    9.0665    2.0610 H   0  0  0  0  0  0  0  0  0  0  0  0
    1.5480    9.8379    2.0248 H   0  0  0  0  0  0  0  0  0  0  0  0
    0.6777    9.5279    0.5186 H   0  0  0  0  0  0  0  0  0  0  0  0
    1.3382    7.3091   -1.2567 H   0  0  0  0  0  0  0  0  0  0  0  0
   -0.1741    5.8049   -2.4227 H   0  0  0  0  0  0  0  0  0  0  0  0
    0.2699    3.5944   -2.1446 H   0  0  0  0  0  0  0  0  0  0  0  0
    1.8868    3.1953   -1.5764 H   0  0  0  0  0  0  0  0  0  0  0  0
    1.7447    3.2359   -4.0557 H   0  0  0  0  0  0  0  0  0  0  0  0
    2.1653    1.6187   -3.4945 H   0  0  0  0  0  0  0  0  0  0  0  0
    0.5184    1.9713   -4.0212 H   0  0  0  0  0  0  0  0  0  0  0  0
    2.2213    0.5150   -1.5010 H   0  0  0  0  0  0  0  0  0  0  0  0
    4.0900   -3.9541    2.4830 H   0  0  0  0  0  0  0  0  0  0  0  0
    4.3250   -3.8191    4.9026 H   0  0  0  0  0  0  0  0  0  0  0  0
    2.4462   -5.9178    7.2861 H   0  0  0  0  0  0  0  0  0  0  0  0
    3.8294   -4.8310    7.0912 H   0  0  0  0  0  0  0  0  0  0  0  0
    2.2774   -2.8921    6.8799 H   0  0  0  0  0  0  0  0  0  0  0  0
    0.8948   -3.9719    7.0597 H   0  0  0  0  0  0  0  0  0  0  0  0
    2.0166   -3.7443    8.4055 H   0  0  0  0  0  0  0  0  0  0  0  0
    0.9824   -6.4247    5.3765 H   0  0  0  0  0  0  0  0  0  0  0  0
    0.7387   -6.5745    2.9655 H   0  0  0  0  0  0  0  0  0  0  0  0
    0.4120   -5.0007   -0.9520 H   0  0  0  0  0  0  0  0  0  0  0  0
   -1.0572   -6.7010   -1.9078 H   0  0  0  0  0  0  0  0  0  0  0  0
   -1.4324  -10.1102   -0.5581 H   0  0  0  0  0  0  0  0  0  0  0  0
   -2.1383   -8.8913   -1.6293 H   0  0  0  0  0  0  0  0  0  0  0  0
   -0.2684   -9.2399   -3.2482 H   0  0  0  0  0  0  0  0  0  0  0  0
    0.4282  -10.4595   -2.1822 H   0  0  0  0  0  0  0  0  0  0  0  0
   -1.1399  -10.7463   -2.9437 H   0  0  0  0  0  0  0  0  0  0  0  0
    0.6585   -9.6413    0.6573 H   0  0  0  0  0  0  0  0  0  0  0  0
    2.1346   -7.9460    1.6174 H   0  0  0  0  0  0  0  0  0  0  0  0
   -0.9191   -3.6824    2.9088 H   0  0  0  0  0  0  0  0  0  0  0  0
   -0.0365   -4.8142    1.8899 H   0  0  0  0  0  0  0  0  0  0  0  0
   -2.4193   -5.3549    1.8482 H   0  0  0  0  0  0  0  0  0  0  0  0
   -2.8289   -3.7308    1.2989 H   0  0  0  0  0  0  0  0  0  0  0  0
   -1.9146   -4.8143    0.2489 H   0  0  0  0  0  0  0  0  0  0  0  0
   -1.8993   -1.6500    1.4359 H   0  0  0  0  0  0  0  0  0  0  0  0
    4.4076   -7.6268    1.0013 H   0  0  0  0  0  0  0  0  0  0  0  0
    6.5842   -8.3629   -0.2024 H   0  0  0  0  0  0  0  0  0  0  0  0
   11.0304   -4.2060   -1.9039 H   0  0  0  0  0  0  0  0  0  0  0  0
  1  2  2  0  0  0  0
  2  3  1  0  0  0  0
  3  4  2  0  0  0  0
  3  5  1  0  0  0  0
  5  6  2  0  0  0  0
  6  7  1  0  0  0  0
  7  8  2  0  0  0  0
  8  9  1  0  0  0  0
  8 10  1  0  0  0  0
 10 11  2  0  0  0  0
 11 12  1  0  0  0  0
 12 13  2  0  0  0  0
 13 14  1  0  0  0  0
 14 15  3  0  0  0  0
 13 16  1  0  0  0  0
 16 17  3  0  0  0  0
  1 18  1  0  0  0  0
 18 19  1  0  0  0  0
 19 20  1  0  0  0  0
 20 21  1  0  0  0  0
 21 22  2  0  0  0  0
 22 23  1  0  0  0  0
 23 24  1  0  0  0  0
 24 25  1  0  0  0  0
 23 26  1  0  0  0  0
 26 27  2  0  0  0  0
 27 28  1  0  0  0  0
 28 29  2  0  0  0  0
 29 30  1  0  0  0  0
 30 31  1  0  0  0  0
 29 32  1  0  0  0  0
 32 33  2  0  0  0  0
 23 34  1  0  0  0  0
 34 35  2  0  0  0  0
 35 36  1  0  0  0  0
 36 37  2  0  0  0  0
 37 38  1  0  0  0  0
 38 39  1  0  0  0  0
 37 40  1  0  0  0  0
 40 41  2  0  0  0  0
 22 42  1  0  0  0  0
 42 43  2  0  0  0  0
 43 44  1  0  0  0  0
 44 45  1  0  0  0  0
 43 46  1  0  0  0  0
 46 47  2  0  0  0  0
 47 48  1  0  0  0  0
 48 49  1  0  0  0  0
 49 50  1  0  0  0  0
 50 51  1  0  0  0  0
 51 52  2  0  0  0  0
 52 53  1  0  0  0  0
 53 54  1  0  0  0  0
 54 55  2  0  0  0  0
 55 56  1  0  0  0  0
 56 57  2  0  0  0  0
 57 58  1  0  0  0  0
 58 59  1  0  0  0  0
 57 60  1  0  0  0  0
 60 61  2  0  0  0  0
 53 62  1  0  0  0  0
 62 63  2  0  0  0  0
 63 64  1  0  0  0  0
 64 65  2  0  0  0  0
 65 66  1  0  0  0  0
 66 67  1  0  0  0  0
 65 68  1  0  0  0  0
 68 69  2  0  0  0  0
 53 70  1  0  0  0  0
 70 71  1  0  0  0  0
 71 72  1  0  0  0  0
 72 73  1  0  0  0  0
 73 74  1  0  0  0  0
 72 75  2  0  0  0  0
 75 76  1  0  0  0  0
 76 77  2  0  0  0  0
 77 78  1  0  0  0  0
 52 79  1  0  0  0  0
 79 80  2  0  0  0  0
 80 81  1  0  0  0  0
 80 82  1  0  0  0  0
 82 83  2  0  0  0  0
 83 84  1  0  0  0  0
 84 85  2  0  0  0  0
 84 86  1  0  0  0  0
 86 87  2  0  0  0  0
 87 88  1  0  0  0  0
 88 89  2  0  0  0  0
 89 90  1  0  0  0  0
 89 91  1  0  0  0  0
 91 92  1  0  0  0  0
 91 93  2  0  0  0  0
 93 94  1  0  0  0  0
 87 95  1  0  0  0  0
 95 96  2  0  0  0  0
 96 97  1  0  0  0  0
 97 98  3  0  0  0  0
 96 99  1  0  0  0  0
 99100  3  0  0  0  0
 12  2  1  0  0  0  0
 25 18  2  0  0  0  0
 33 26  1  0  0  0  0
 41 34  1  0  0  0  0
 77 42  1  0  0  0  0
 95 83  1  0  0  0  0
 11  5  1  0  0  0  0
 24 20  2  0  0  0  0
 76 47  1  0  0  0  0
 93 86  1  0  0  0  0
 78 21  1  0  0  0  0
 71 48  2  0  0  0  0
 70 50  2  0  0  0  0
 81 51  1  0  0  0  0
 61 54  1  0  0  0  0
 69 62  1  0  0  0  0
  1101  1  0  0  0  0
  6102  1  0  0  0  0
  7103  1  0  0  0  0
 10104  1  0  0  0  0
 25105  1  0  0  0  0
 27106  1  0  0  0  0
 28107  1  0  0  0  0
 30108  1  0  0  0  0
 30109  1  0  0  0  0
 31110  1  0  0  0  0
 31111  1  0  0  0  0
 31112  1  0  0  0  0
 32113  1  0  0  0  0
 33114  1  0  0  0  0
 35115  1  0  0  0  0
 36116  1  0  0  0  0
 38117  1  0  0  0  0
 38118  1  0  0  0  0
 39119  1  0  0  0  0
 39120  1  0  0  0  0
 39121  1  0  0  0  0
 40122  1  0  0  0  0
 41123  1  0  0  0  0
 44124  1  0  0  0  0
 44125  1  0  0  0  0
 45126  1  0  0  0  0
 45127  1  0  0  0  0
 45128  1  0  0  0  0
 46129  1  0  0  0  0
 55130  1  0  0  0  0
 56131  1  0  0  0  0
 58132  1  0  0  0  0
 58133  1  0  0  0  0
 59134  1  0  0  0  0
 59135  1  0  0  0  0
 59136  1  0  0  0  0
 60137  1  0  0  0  0
 61138  1  0  0  0  0
 63139  1  0  0  0  0
 64140  1  0  0  0  0
 66141  1  0  0  0  0
 66142  1  0  0  0  0
 67143  1  0  0  0  0
 67144  1  0  0  0  0
 67145  1  0  0  0  0
 68146  1  0  0  0  0
 69147  1  0  0  0  0
 73148  1  0  0  0  0
 73149  1  0  0  0  0
 74150  1  0  0  0  0
 74151  1  0  0  0  0
 74152  1  0  0  0  0
 75153  1  0  0  0  0
 79154  1  0  0  0  0
 82155  1  0  0  0  0
 88156  1  0  0  0  0
M  END
