104

C         -2.58410       -7.61240       -1.07240
C         -1.55600       -8.50420       -0.87730
C         -0.13390       -8.16580       -0.76750
O          0.38070       -7.06380       -0.84570
C          0.57380       -9.44010       -0.54250
C          1.92690       -9.65610       -0.36540
C          2.36680      -10.95380       -0.15780
C          1.43850      -11.98360       -0.13580
F          1.88010      -13.23510        0.06890
C          0.07460      -11.79040       -0.31310
C         -0.35870      -10.49170       -0.52030
C         -1.69870       -9.93820       -0.73280
C         -2.85440      -10.67470       -0.77150
C         -2.90610      -12.07650       -0.61670
N         -3.02260      -13.21220       -0.49880
C         -4.15500      -10.16460       -0.96700
N         -5.24570       -9.83510       -1.11550
C         -2.57420       -6.21790       -1.17230
C         -3.75660       -5.47370       -1.31710
C         -3.53400       -4.11570       -1.35110
C         -4.36470       -2.85840       -1.40660
C         -5.07070       -2.68130       -2.76550
C         -6.13080       -3.72830       -3.08020
C         -5.32580       -2.87960       -0.19820
C         -6.23290       -1.66680       -0.03900
C         -3.28040       -1.80100       -1.28000
C         -2.01210       -2.38200       -1.17670
C         -2.17790       -3.79920       -1.21630
S         -1.16780       -5.16960       -1.08070
C         -0.84150       -1.59920       -1.04950
C          0.44700       -2.15620       -0.97330
C          1.56500       -1.36810       -0.82970
C          1.43040        0.01540       -0.73170
C          2.50240        1.07610       -0.54830
C          3.41290        1.20790       -1.79210
C          4.41080        0.08570       -2.03900
C          3.29010        0.98390        0.78100
C          3.65500       -0.40760        1.28310
C          1.65370        2.32240       -0.49990
C          1.88370        3.67000       -0.29700
C          0.70720        4.41500       -0.30550
S         -0.69640        3.38190       -0.60710
C          0.30890        2.00350       -0.67480
C          0.15560        0.59170       -0.82190
C         -1.01040       -0.18750       -1.00230
C         -2.29310        0.37310       -1.14450
C         -3.40980       -0.41460       -1.29910
C          0.43240        5.77690       -0.10710
C          1.23280        6.82360        0.27710
C          2.65640        6.80040        0.67750
O          3.46630        5.89950        0.57750
C          2.93250        8.13020        1.25240
C          4.08440        8.58010        1.82950
C          4.12620        9.89260        2.34920
C          5.28710       10.40840        2.96050
C          5.31080       11.67720        3.46890
C          4.15680       12.46670        3.37440
F          4.19840       13.71200        3.88340
C          3.00580       12.01650        2.79010
C          2.96390       10.71230        2.25960
C          1.78780       10.21990        1.64680
C          1.77340        8.94580        1.14520
C          0.73100        8.17320        0.47520
C         -0.47620        8.68110        0.06780
C         -0.88350       10.01400        0.28690
N         -1.28200       11.08100        0.43260
C         -1.47170        7.99110       -0.65550
N         -2.33010        7.51840       -1.25510
H         -3.58010       -8.03240       -1.14430
H          2.61540       -8.82600       -0.38880
H          3.41120      -11.17980       -0.01240
H         -0.58830      -12.63880       -0.28330
H         -4.71560       -5.95790       -1.37070
H         -4.30130       -2.70980       -3.54180
H         -5.52240       -1.68880       -2.79310
H         -6.93080       -3.71730       -2.34540
H         -6.56570       -3.51910       -4.05510
H         -5.69650       -4.72340       -3.11240
H         -4.71700       -2.98530        0.70390
H         -5.94040       -3.77740       -0.28120
H         -5.65790       -0.77420        0.18980
H         -6.82280       -1.48950       -0.93400
H         -6.91970       -1.84190        0.78640
H          0.55240       -3.22930       -1.02870
H          2.53390       -1.83570       -0.78050
H          3.96210        2.14690       -1.69010
H          2.76290        1.30090       -2.66680
H          3.90940       -0.86570       -2.18830
H          4.97710        0.30990       -2.94090
H          5.11510       -0.00290       -1.21710
H          4.19700        1.58070        0.66730
H          2.68480        1.46190        1.55600
H          4.22110       -0.30880        2.20740
H          2.76190       -0.98940        1.49650
H          4.26740       -0.95290        0.57210
H          2.84310        4.12360       -0.13200
H         -2.39320        1.44830       -1.13940
H         -4.37420        0.04840       -1.43520
H         -0.61580        6.01660       -0.24470
H          4.95150        7.93970        1.89320
H          6.16330        9.78050        3.02190
H          6.19010       12.08690        3.94020
H          2.13650       12.65300        2.73380
H          0.92590       10.86540        1.59860
