
  xtb     02012215573D
 energy: -241.503298359006 gnorm: 0.000565113194 xtb: 6.4.1 (unknown)
143157  0     0  0            999 V2000
   -0.5608    0.9360    9.2963 C   0  0  0  0  0  0  0  0  0  0  0  0
    0.3627    0.9951   10.3120 C   0  0  0  0  0  0  0  0  0  0  0  0
    1.8336    0.8101   10.2389 C   0  0  0  0  0  0  0  0  0  0  0  0
    2.5260    0.5850    9.2681 O   0  0  0  0  0  0  0  0  0  0  0  0
    2.3038    0.9536   11.6233 C   0  0  0  0  0  0  0  0  0  0  0  0
    1.1960    1.2169   12.4886 C   0  0  0  0  0  0  0  0  0  0  0  0
    1.5571    1.3629   13.7914 C   0  0  0  0  0  0  0  0  0  0  0  0
    3.2628    1.1802   13.9913 S   0  0  0  0  0  0  0  0  0  0  0  0
    3.4947    0.9009   12.2798 C   0  0  0  0  0  0  0  0  0  0  0  0
    5.0363    0.6144   11.6363 Cl  0  0  0  0  0  0  0  0  0  0  0  0
   -0.0168    1.2500   11.6931 C   0  0  0  0  0  0  0  0  0  0  0  0
   -1.2608    1.4939   12.2203 C   0  0  0  0  0  0  0  0  0  0  0  0
   -2.4839    1.5587   11.5258 C   0  0  0  0  0  0  0  0  0  0  0  0
   -3.5232    1.6319   11.0403 N   0  0  0  0  0  0  0  0  0  0  0  0
   -1.4339    1.7232   13.6011 C   0  0  0  0  0  0  0  0  0  0  0  0
   -1.6020    1.9116   14.7209 N   0  0  0  0  0  0  0  0  0  0  0  0
   -0.4460    0.7300    7.9132 C   0  0  0  0  0  0  0  0  0  0  0  0
    0.6540    0.5400    7.0880 C   0  0  0  0  0  0  0  0  0  0  0  0
    0.3313    0.3950    5.7485 C   0  0  0  0  0  0  0  0  0  0  0  0
    1.3448    0.1476    4.3499 S   0  0  0  0  0  0  0  0  0  0  0  0
   -0.0645    0.1275    3.3516 C   0  0  0  0  0  0  0  0  0  0  0  0
   -0.3188   -0.0035    1.9515 C   0  0  0  0  0  0  0  0  0  0  0  0
    0.5511   -0.1870    0.8794 C   0  0  0  0  0  0  0  0  0  0  0  0
   -0.0054   -0.2653   -0.3751 C   0  0  0  0  0  0  0  0  0  0  0  0
    0.7003   -0.4356   -1.7086 C   0  0  0  0  0  0  0  0  0  0  0  0
    1.3180   -1.8097   -1.9058 C   0  0  0  0  0  0  0  0  0  0  0  0
    1.0437   -2.8740   -1.0603 C   0  0  0  0  0  0  0  0  0  0  0  0
    1.5935   -4.1196   -1.3068 C   0  0  0  0  0  0  0  0  0  0  0  0
    2.4145   -4.3357   -2.4047 C   0  0  0  0  0  0  0  0  0  0  0  0
    3.0478   -5.6766   -2.6395 C   0  0  0  0  0  0  0  0  0  0  0  0
    4.4017   -5.7578   -1.9311 C   0  0  0  0  0  0  0  0  0  0  0  0
    2.6737   -3.2681   -3.2559 C   0  0  0  0  0  0  0  0  0  0  0  0
    2.1316   -2.0217   -3.0127 C   0  0  0  0  0  0  0  0  0  0  0  0
    1.7349    0.6578   -1.8868 C   0  0  0  0  0  0  0  0  0  0  0  0
    1.4266    1.8460   -2.5331 C   0  0  0  0  0  0  0  0  0  0  0  0
    2.3807    2.8380   -2.6691 C   0  0  0  0  0  0  0  0  0  0  0  0
    3.6589    2.6748   -2.1540 C   0  0  0  0  0  0  0  0  0  0  0  0
    4.7105    3.7281   -2.3507 C   0  0  0  0  0  0  0  0  0  0  0  0
    5.5114    3.4467   -3.6237 C   0  0  0  0  0  0  0  0  0  0  0  0
    3.9582    1.4888   -1.4954 C   0  0  0  0  0  0  0  0  0  0  0  0
    3.0107    0.4929   -1.3613 C   0  0  0  0  0  0  0  0  0  0  0  0
   -0.4623   -0.3397   -2.6593 C   0  0  0  0  0  0  0  0  0  0  0  0
   -1.6519   -0.2238   -1.9619 C   0  0  0  0  0  0  0  0  0  0  0  0
   -1.4060   -0.1582   -0.5556 C   0  0  0  0  0  0  0  0  0  0  0  0
   -2.2763    0.0153    0.5176 C   0  0  0  0  0  0  0  0  0  0  0  0
   -1.7193    0.0999    1.7720 C   0  0  0  0  0  0  0  0  0  0  0  0
   -2.4239    0.2977    3.1030 C   0  0  0  0  0  0  0  0  0  0  0  0
   -3.3944   -0.8468    3.3275 C   0  0  0  0  0  0  0  0  0  0  0  0
   -4.6719   -0.7825    2.7845 C   0  0  0  0  0  0  0  0  0  0  0  0
   -5.5611   -1.8249    2.9592 C   0  0  0  0  0  0  0  0  0  0  0  0
   -5.2016   -2.9571    3.6796 C   0  0  0  0  0  0  0  0  0  0  0  0
   -6.1603   -4.1012    3.8394 C   0  0  0  0  0  0  0  0  0  0  0  0
   -6.0275   -5.0783    2.6695 C   0  0  0  0  0  0  0  0  0  0  0  0
   -3.9204   -3.0213    4.2091 C   0  0  0  0  0  0  0  0  0  0  0  0
   -3.0247   -1.9819    4.0339 C   0  0  0  0  0  0  0  0  0  0  0  0
   -3.1089    1.6439    3.2550 C   0  0  0  0  0  0  0  0  0  0  0  0
   -3.9701    1.8406    4.3286 C   0  0  0  0  0  0  0  0  0  0  0  0
   -4.5617    3.0710    4.5378 C   0  0  0  0  0  0  0  0  0  0  0  0
   -4.3085    4.1364    3.6824 C   0  0  0  0  0  0  0  0  0  0  0  0
   -4.9151    5.4852    3.9392 C   0  0  0  0  0  0  0  0  0  0  0  0
   -4.0225    6.2982    4.8792 C   0  0  0  0  0  0  0  0  0  0  0  0
   -3.4403    3.9363    2.6181 C   0  0  0  0  0  0  0  0  0  0  0  0
   -2.8412    2.7072    2.4061 C   0  0  0  0  0  0  0  0  0  0  0  0
   -1.2516    0.2915    4.0474 C   0  0  0  0  0  0  0  0  0  0  0  0
   -1.0422    0.4572    5.4124 C   0  0  0  0  0  0  0  0  0  0  0  0
   -2.0853    0.7312    6.9184 Se  0  0  0  0  0  2  0  0  0  0  0  0
   -3.0528   -0.1453   -2.9733 S   0  0  0  0  0  0  0  0  0  0  0  0
   -2.0142   -0.2508   -4.3750 C   0  0  0  0  0  0  0  0  0  0  0  0
   -2.3032   -0.2133   -5.7256 C   0  0  0  0  0  0  0  0  0  0  0  0
   -1.1861   -0.2642   -6.5633 C   0  0  0  0  0  0  0  0  0  0  0  0
    0.4246   -0.4044   -5.5606 Se  0  0  0  0  0  2  0  0  0  0  0  0
   -0.6475   -0.3602   -4.0399 C   0  0  0  0  0  0  0  0  0  0  0  0
   -1.3442   -0.1979   -7.9568 C   0  0  0  0  0  0  0  0  0  0  0  0
   -0.4119   -0.1631   -8.9625 C   0  0  0  0  0  0  0  0  0  0  0  0
    1.0378   -0.1835   -8.7760 C   0  0  0  0  0  0  0  0  0  0  0  0
    1.6463   -0.3037   -7.7179 O   0  0  0  0  0  0  0  0  0  0  0  0
    1.6264   -0.0268  -10.1066 C   0  0  0  0  0  0  0  0  0  0  0  0
    2.9583    0.0446  -10.4654 C   0  0  0  0  0  0  0  0  0  0  0  0
    3.3068    0.2147  -11.8015 C   0  0  0  0  0  0  0  0  0  0  0  0
    4.6019    0.2910  -12.2230 O   0  0  0  0  0  0  0  0  0  0  0  0
    5.6336    0.2020  -11.2681 C   0  0  0  0  0  0  0  0  0  0  0  0
    2.2813    0.3143  -12.7763 C   0  0  0  0  0  0  0  0  0  0  0  0
    2.4380    0.4877  -14.1050 O   0  0  0  0  0  0  0  0  0  0  0  0
    3.7015    0.6414  -14.7158 C   0  0  0  0  0  0  0  0  0  0  0  0
    0.9386    0.2311  -12.3901 C   0  0  0  0  0  0  0  0  0  0  0  0
    0.6017    0.0609  -11.0626 C   0  0  0  0  0  0  0  0  0  0  0  0
   -0.6866   -0.0465  -10.3839 C   0  0  0  0  0  0  0  0  0  0  0  0
   -1.9093   -0.0488  -11.0025 C   0  0  0  0  0  0  0  0  0  0  0  0
   -2.0873    0.0629  -12.3979 C   0  0  0  0  0  0  0  0  0  0  0  0
   -2.3115    0.1524  -13.5201 N   0  0  0  0  0  0  0  0  0  0  0  0
   -3.1588   -0.1733  -10.3604 C   0  0  0  0  0  0  0  0  0  0  0  0
   -4.2156   -0.2709   -9.9202 N   0  0  0  0  0  0  0  0  0  0  0  0
   -1.5903    1.0767    9.6113 H   0  0  0  0  0  0  0  0  0  0  0  0
    0.9496    1.5642   14.6509 H   0  0  0  0  0  0  0  0  0  0  0  0
    1.6595    0.5120    7.4697 H   0  0  0  0  0  0  0  0  0  0  0  0
    1.6159   -0.2579    1.0381 H   0  0  0  0  0  0  0  0  0  0  0  0
    0.3996   -2.7350   -0.2041 H   0  0  0  0  0  0  0  0  0  0  0  0
    1.3741   -4.9377   -0.6355 H   0  0  0  0  0  0  0  0  0  0  0  0
    2.3958   -6.4662   -2.2606 H   0  0  0  0  0  0  0  0  0  0  0  0
    3.1916   -5.8354   -3.7100 H   0  0  0  0  0  0  0  0  0  0  0  0
    4.8623   -6.7284   -2.0996 H   0  0  0  0  0  0  0  0  0  0  0  0
    5.0706   -4.9856   -2.3047 H   0  0  0  0  0  0  0  0  0  0  0  0
    4.2773   -5.6134   -0.8601 H   0  0  0  0  0  0  0  0  0  0  0  0
    3.3032   -3.4140   -4.1215 H   0  0  0  0  0  0  0  0  0  0  0  0
    2.3505   -1.1984   -3.6833 H   0  0  0  0  0  0  0  0  0  0  0  0
    0.4360    2.0026   -2.9356 H   0  0  0  0  0  0  0  0  0  0  0  0
    2.1253    3.7538   -3.1829 H   0  0  0  0  0  0  0  0  0  0  0  0
    4.2417    4.7109   -2.4298 H   0  0  0  0  0  0  0  0  0  0  0  0
    5.3881    3.7401   -1.4944 H   0  0  0  0  0  0  0  0  0  0  0  0
    6.2723    4.2096   -3.7716 H   0  0  0  0  0  0  0  0  0  0  0  0
    5.9991    2.4768   -3.5566 H   0  0  0  0  0  0  0  0  0  0  0  0
    4.8529    3.4380   -4.4894 H   0  0  0  0  0  0  0  0  0  0  0  0
    4.9468    1.3428   -1.0835 H   0  0  0  0  0  0  0  0  0  0  0  0
    3.2681   -0.4280   -0.8582 H   0  0  0  0  0  0  0  0  0  0  0  0
   -3.3405    0.0929    0.3578 H   0  0  0  0  0  0  0  0  0  0  0  0
   -4.9779    0.0975    2.2374 H   0  0  0  0  0  0  0  0  0  0  0  0
   -6.5529   -1.7553    2.5359 H   0  0  0  0  0  0  0  0  0  0  0  0
   -5.9557   -4.6281    4.7735 H   0  0  0  0  0  0  0  0  0  0  0  0
   -7.1838   -3.7231    3.8773 H   0  0  0  0  0  0  0  0  0  0  0  0
   -5.0166   -5.4772    2.6224 H   0  0  0  0  0  0  0  0  0  0  0  0
   -6.7230   -5.9062    2.7848 H   0  0  0  0  0  0  0  0  0  0  0  0
   -6.2397   -4.5742    1.7292 H   0  0  0  0  0  0  0  0  0  0  0  0
   -3.6183   -3.8935    4.7712 H   0  0  0  0  0  0  0  0  0  0  0  0
   -2.0327   -2.0590    4.4557 H   0  0  0  0  0  0  0  0  0  0  0  0
   -4.1937    1.0153    4.9944 H   0  0  0  0  0  0  0  0  0  0  0  0
   -5.2302    3.2045    5.3757 H   0  0  0  0  0  0  0  0  0  0  0  0
   -5.9011    5.3676    4.3928 H   0  0  0  0  0  0  0  0  0  0  0  0
   -5.0331    6.0249    2.9975 H   0  0  0  0  0  0  0  0  0  0  0  0
   -4.4595    7.2759    5.0681 H   0  0  0  0  0  0  0  0  0  0  0  0
   -3.9034    5.7810    5.8285 H   0  0  0  0  0  0  0  0  0  0  0  0
   -3.0372    6.4366    4.4394 H   0  0  0  0  0  0  0  0  0  0  0  0
   -3.2266    4.7531    1.9435 H   0  0  0  0  0  0  0  0  0  0  0  0
   -2.1638    2.5789    1.5743 H   0  0  0  0  0  0  0  0  0  0  0  0
   -3.3044   -0.1370   -6.1161 H   0  0  0  0  0  0  0  0  0  0  0  0
   -2.3835   -0.1414   -8.2613 H   0  0  0  0  0  0  0  0  0  0  0  0
    3.7051   -0.0324   -9.6924 H   0  0  0  0  0  0  0  0  0  0  0  0
    5.6194   -0.7611  -10.7494 H   0  0  0  0  0  0  0  0  0  0  0  0
    6.5585    0.2923  -11.8356 H   0  0  0  0  0  0  0  0  0  0  0  0
    5.5763    1.0137  -10.5369 H   0  0  0  0  0  0  0  0  0  0  0  0
    4.3223   -0.2474  -14.5911 H   0  0  0  0  0  0  0  0  0  0  0  0
    4.2329    1.5136  -14.3308 H   0  0  0  0  0  0  0  0  0  0  0  0
    3.4827    0.7868  -15.7733 H   0  0  0  0  0  0  0  0  0  0  0  0
    0.2029    0.3113  -13.1729 H   0  0  0  0  0  0  0  0  0  0  0  0
  1  2  2  0  0  0  0
  2  3  1  0  0  0  0
  3  4  2  0  0  0  0
  3  5  1  0  0  0  0
  5  6  1  0  0  0  0
  6  7  2  0  0  0  0
  7  8  1  0  0  0  0
  8  9  1  0  0  0  0
  9 10  1  0  0  0  0
  6 11  1  0  0  0  0
 11 12  2  0  0  0  0
 12 13  1  0  0  0  0
 13 14  3  0  0  0  0
 12 15  1  0  0  0  0
 15 16  3  0  0  0  0
  1 17  1  0  0  0  0
 17 18  2  0  0  0  0
 18 19  1  0  0  0  0
 19 20  1  0  0  0  0
 20 21  1  0  0  0  0
 21 22  1  0  0  0  0
 22 23  2  0  0  0  0
 23 24  1  0  0  0  0
 24 25  1  0  0  0  0
 25 26  1  0  0  0  0
 26 27  2  0  0  0  0
 27 28  1  0  0  0  0
 28 29  2  0  0  0  0
 29 30  1  0  0  0  0
 30 31  1  0  0  0  0
 29 32  1  0  0  0  0
 32 33  2  0  0  0  0
 25 34  1  0  0  0  0
 34 35  2  0  0  0  0
 35 36  1  0  0  0  0
 36 37  2  0  0  0  0
 37 38  1  0  0  0  0
 38 39  1  0  0  0  0
 37 40  1  0  0  0  0
 40 41  2  0  0  0  0
 25 42  1  0  0  0  0
 42 43  2  0  0  0  0
 43 44  1  0  0  0  0
 44 45  1  0  0  0  0
 45 46  2  0  0  0  0
 46 47  1  0  0  0  0
 47 48  1  0  0  0  0
 48 49  2  0  0  0  0
 49 50  1  0  0  0  0
 50 51  2  0  0  0  0
 51 52  1  0  0  0  0
 52 53  1  0  0  0  0
 51 54  1  0  0  0  0
 54 55  2  0  0  0  0
 47 56  1  0  0  0  0
 56 57  2  0  0  0  0
 57 58  1  0  0  0  0
 58 59  2  0  0  0  0
 59 60  1  0  0  0  0
 60 61  1  0  0  0  0
 59 62  1  0  0  0  0
 62 63  2  0  0  0  0
 47 64  1  0  0  0  0
 64 65  1  0  0  0  0
 65 66  1  0  0  0  0
 43 67  1  0  0  0  0
 67 68  1  0  0  0  0
 68 69  1  0  0  0  0
 69 70  2  0  0  0  0
 70 71  1  0  0  0  0
 71 72  1  0  0  0  0
 70 73  1  0  0  0  0
 73 74  2  0  0  0  0
 74 75  1  0  0  0  0
 75 76  2  0  0  0  0
 75 77  1  0  0  0  0
 77 78  2  0  0  0  0
 78 79  1  0  0  0  0
 79 80  1  0  0  0  0
 80 81  1  0  0  0  0
 79 82  2  0  0  0  0
 82 83  1  0  0  0  0
 83 84  1  0  0  0  0
 82 85  1  0  0  0  0
 85 86  2  0  0  0  0
 86 87  1  0  0  0  0
 87 88  2  0  0  0  0
 88 89  1  0  0  0  0
 89 90  3  0  0  0  0
 88 91  1  0  0  0  0
 91 92  3  0  0  0  0
 11  2  1  0  0  0  0
 66 17  1  0  0  0  0
 72 68  2  0  0  0  0
 87 74  1  0  0  0  0
  9  5  2  0  0  0  0
 65 19  2  0  0  0  0
 86 77  1  0  0  0  0
 64 21  2  0  0  0  0
 46 22  1  0  0  0  0
 55 48  1  0  0  0  0
 63 56  1  0  0  0  0
 44 24  2  0  0  0  0
 33 26  1  0  0  0  0
 41 34  1  0  0  0  0
 72 42  1  0  0  0  0
  1 93  1  0  0  0  0
  7 94  1  0  0  0  0
 18 95  1  0  0  0  0
 23 96  1  0  0  0  0
 27 97  1  0  0  0  0
 28 98  1  0  0  0  0
 30 99  1  0  0  0  0
 30100  1  0  0  0  0
 31101  1  0  0  0  0
 31102  1  0  0  0  0
 31103  1  0  0  0  0
 32104  1  0  0  0  0
 33105  1  0  0  0  0
 35106  1  0  0  0  0
 36107  1  0  0  0  0
 38108  1  0  0  0  0
 38109  1  0  0  0  0
 39110  1  0  0  0  0
 39111  1  0  0  0  0
 39112  1  0  0  0  0
 40113  1  0  0  0  0
 41114  1  0  0  0  0
 45115  1  0  0  0  0
 49116  1  0  0  0  0
 50117  1  0  0  0  0
 52118  1  0  0  0  0
 52119  1  0  0  0  0
 53120  1  0  0  0  0
 53121  1  0  0  0  0
 53122  1  0  0  0  0
 54123  1  0  0  0  0
 55124  1  0  0  0  0
 57125  1  0  0  0  0
 58126  1  0  0  0  0
 60127  1  0  0  0  0
 60128  1  0  0  0  0
 61129  1  0  0  0  0
 61130  1  0  0  0  0
 61131  1  0  0  0  0
 62132  1  0  0  0  0
 63133  1  0  0  0  0
 69134  1  0  0  0  0
 73135  1  0  0  0  0
 78136  1  0  0  0  0
 81137  1  0  0  0  0
 81138  1  0  0  0  0
 81139  1  0  0  0  0
 84140  1  0  0  0  0
 84141  1  0  0  0  0
 84142  1  0  0  0  0
 85143  1  0  0  0  0
M  END
