120

C          5.20300        6.99200        0.89190
C          5.72300        7.31410        2.11400
C          6.18460        8.71070        2.35290
O          6.34880        9.57060        1.51870
C          6.33070        8.80140        3.81360
C          6.09150        7.51520        4.40110
C          6.20720        7.51150        5.75410
S          6.60300        9.08460        6.35020
C          6.62580        9.75810        4.73570
Cl         6.98390       11.39360        4.47120
C          5.84560        6.55590        3.33920
C          5.98390        5.19730        3.48060
C          6.13400        4.59730        4.74490
N          6.22040        4.08720        5.76990
C          6.07320        4.29170        2.40660
N          6.20400        3.52420        1.56200
C          4.34080        5.93630        0.54230
C          4.07650        5.47210       -0.74420
C          4.70230        5.99370       -1.99520
C          3.82700        7.08870       -2.61150
C          3.14220        4.43570       -0.73130
S          2.48070        3.42270       -1.99590
C          1.59080        2.55660       -0.79800
C          0.75090        1.43710       -0.70800
C          0.35760        0.52860       -1.72210
N          0.78030        0.66850       -2.97730
C          0.42590       -0.23670       -3.87620
C          1.06590       -0.08250       -5.15800
C          1.41460       -1.00020       -6.11290
C          2.13020       -0.43160       -7.18070
C          2.33720        0.91040       -7.04240
C          3.00170        1.84090       -7.99760
C          1.97480        2.71870       -8.71650
S          1.66040        1.50010       -5.56390
C         -0.48620       -1.28160       -3.52590
C         -1.13130       -2.17840       -4.45070
C         -1.47060       -2.03780       -5.77020
C         -2.20140       -3.13160       -6.26510
C         -2.42940       -4.10030       -5.33080
C         -3.11630       -5.40960       -5.51370
C         -2.10850       -6.56090       -5.54970
S         -1.75310       -3.66620       -3.79960
N         -0.84170       -1.45980       -2.26290
C         -0.41630       -0.59290       -1.34630
C         -0.82290       -0.69930        0.00660
C         -1.70480       -1.61530        0.59470
S         -2.61150       -3.01160        0.14900
C         -3.32820       -3.03310        1.74690
C         -4.30580       -3.84220        2.33990
C         -4.86610       -5.07950        1.72590
C         -3.80660       -5.94670        1.05060
C         -4.59950       -3.40450        3.63090
S         -3.58670       -2.04500        4.12570
C         -2.85290       -1.99720        2.56950
C         -1.91950       -1.19320        1.91190
N         -1.18390       -0.06450        2.16340
C         -1.43440        0.71080        3.35620
C         -0.73300        0.11840        4.57850
C         -0.48580        0.25100        1.01330
C          0.42050        1.28070        0.66920
N          1.06660        2.26870        1.39790
C          1.77640        3.03280        0.50520
C          2.66270        4.10740        0.54660
S          3.35940        5.11290        1.75730
C          1.52490        2.25610        2.77190
C          2.85040        1.50670        2.90340
C         -5.49370       -3.89670        4.59920
C         -6.72340       -4.46510        4.38310
C         -7.53510       -4.27000        3.15490
O         -7.22320       -3.67100        2.14820
C         -8.84440       -4.85720        3.47700
C         -8.83390       -5.36030        4.81760
C        -10.01800       -5.91120        5.19460
S        -11.17870       -5.82850        3.91840
C        -10.04160       -5.03000        2.85400
Cl       -10.47650       -4.58750        1.27630
C         -7.52240       -5.13070        5.39170
C         -7.12880       -5.54970        6.63730
C         -8.02120       -6.21130        7.50440
N         -8.73960       -6.74520        8.22270
C         -5.83600       -5.40170        7.17450
N         -4.79720       -5.32670        7.65890
H          5.42390        7.70620        0.10490
H          6.07970        6.70280        6.44600
H          5.69810        6.38500       -1.78790
H          4.79520        5.16880       -2.70420
H          2.83990        6.69620       -2.84370
H          4.28020        7.45330       -3.52930
H          3.71510        7.92400       -1.92400
H          1.18440       -2.04790       -6.04110
H          2.48370       -0.99900       -8.02380
H          3.56280        1.25630       -8.72950
H          3.70280        2.48140       -7.45790
H          2.47270        3.39140       -9.41010
H          1.27320        2.10170       -9.27320
H          1.41750        3.31080       -7.99440
H         -1.22380       -1.17210       -6.35790
H         -2.55060       -3.19780       -7.28070
H         -3.68140       -5.38630       -6.44770
H         -3.81610       -5.57420       -4.69140
H         -2.62310       -7.50880       -5.68450
H         -1.40830       -6.42520       -6.37080
H         -1.54770       -6.59680       -4.61880
H         -5.37050       -5.66050        2.50120
H         -5.62490       -4.78590        0.99390
H         -2.99630       -6.16680        1.74220
H         -4.25510       -6.88570        0.73610
H         -3.39300       -5.45640        0.17430
H         -1.14400        1.74650        3.17370
H         -2.51540        0.70050        3.53550
H         -1.17070       -0.84520        4.82560
H         -0.85630        0.77880        5.43220
H          0.32880       -0.03100        4.39650
H          0.78590        1.79790        3.41780
H          1.65720        3.29850        3.07750
H          3.17740        1.51780        3.93950
H          2.73460        0.47370        2.58160
H          3.62290        1.97210        2.29580
H         -5.18220       -3.75090        5.62770
H        -10.29610       -6.35480        6.12980
