
  xtb     02022205363D
 energy: -187.994153796139 gnorm: 0.000370901481 xtb: 6.4.1 (unknown)
101115  0     0  0            999 V2000
   -1.4498   -6.6209    5.1112 C   0  0  0  0  0  0  0  0  0  0  0  0
   -2.5860   -7.0423    4.4591 C   0  0  0  0  0  0  0  0  0  0  0  0
   -3.1642   -6.4411    3.2485 C   0  0  0  0  0  0  0  0  0  0  0  0
   -2.7485   -5.4799    2.6259 O   0  0  0  0  0  0  0  0  0  0  0  0
   -4.3523   -7.2456    2.9449 C   0  0  0  0  0  0  0  0  0  0  0  0
   -4.4883   -8.2808    3.9252 C   0  0  0  0  0  0  0  0  0  0  0  0
   -5.5718   -9.0747    3.7185 C   0  0  0  0  0  0  0  0  0  0  0  0
   -6.4540   -8.5765    2.3191 S   0  0  0  0  0  0  0  0  0  0  0  0
   -5.3365   -7.2679    2.0051 C   0  0  0  0  0  0  0  0  0  0  0  0
   -5.5473   -6.2290    0.6824 Cl  0  0  0  0  0  0  0  0  0  0  0  0
   -3.3967   -8.1698    4.8760 C   0  0  0  0  0  0  0  0  0  0  0  0
   -3.2246   -9.0068    5.9506 C   0  0  0  0  0  0  0  0  0  0  0  0
   -2.1862   -8.9417    6.8979 C   0  0  0  0  0  0  0  0  0  0  0  0
   -1.3662   -8.9451    7.7035 N   0  0  0  0  0  0  0  0  0  0  0  0
   -4.1260  -10.0598    6.2074 C   0  0  0  0  0  0  0  0  0  0  0  0
   -4.8471  -10.9239    6.4327 N   0  0  0  0  0  0  0  0  0  0  0  0
   -0.5757   -5.5645    4.8499 C   0  0  0  0  0  0  0  0  0  0  0  0
    0.5615   -5.2985    5.6365 C   0  0  0  0  0  0  0  0  0  0  0  0
    1.0265   -6.1093    6.8012 C   0  0  0  0  0  0  0  0  0  0  0  0
    1.8432   -7.3167    6.3322 C   0  0  0  0  0  0  0  0  0  0  0  0
    1.2543   -4.1942    5.1642 C   0  0  0  0  0  0  0  0  0  0  0  0
    0.6747   -3.5895    4.0329 C   0  0  0  0  0  0  0  0  0  0  0  0
   -0.7543   -4.4082    3.5284 S   0  0  0  0  0  0  0  0  0  0  0  0
    1.4159   -2.4792    3.6220 C   0  0  0  0  0  0  0  0  0  0  0  0
    2.5276   -2.2429    4.4436 C   0  0  0  0  0  0  0  0  0  0  0  0
    2.7112   -3.3921    5.7216 S   0  0  0  0  0  0  0  0  0  0  0  0
    3.1331   -1.0656    3.9878 C   0  0  0  0  0  0  0  0  0  0  0  0
    4.1731   -0.2791    4.5332 C   0  0  0  0  0  0  0  0  0  0  0  0
    4.9312   -0.5311    5.5882 N   0  0  0  0  0  0  0  0  0  0  0  0
    5.8934    0.7449    5.8461 S   0  0  0  0  0  0  0  0  0  0  0  0
    5.3811    1.6683    4.6200 N   0  0  0  0  0  0  0  0  0  0  0  0
    4.4398    1.0102    3.9625 C   0  0  0  0  0  0  0  0  0  0  0  0
    3.7505    1.3953    2.7906 C   0  0  0  0  0  0  0  0  0  0  0  0
    3.8652    2.5308    1.9744 C   0  0  0  0  0  0  0  0  0  0  0  0
    4.7029    4.0436    1.9406 S   0  0  0  0  0  0  0  0  0  0  0  0
    3.9414    4.4041    0.4091 C   0  0  0  0  0  0  0  0  0  0  0  0
    4.0112    5.4865   -0.4626 C   0  0  0  0  0  0  0  0  0  0  0  0
    3.1950    5.3336   -1.5686 C   0  0  0  0  0  0  0  0  0  0  0  0
    2.3701    3.7783   -1.5524 S   0  0  0  0  0  0  0  0  0  0  0  0
    3.0882    3.3824   -0.0379 C   0  0  0  0  0  0  0  0  0  0  0  0
    3.0380    2.3191    0.8645 C   0  0  0  0  0  0  0  0  0  0  0  0
    2.3952    1.1133    0.9750 N   0  0  0  0  0  0  0  0  0  0  0  0
    1.9259    0.4754   -0.2360 C   0  0  0  0  0  0  0  0  0  0  0  0
    3.0989    0.0361   -1.1122 C   0  0  0  0  0  0  0  0  0  0  0  0
    2.7996    0.5369    2.1678 C   0  0  0  0  0  0  0  0  0  0  0  0
    2.3875   -0.6352    2.8506 C   0  0  0  0  0  0  0  0  0  0  0  0
    1.3328   -1.5044    2.6626 N   0  0  0  0  0  0  0  0  0  0  0  0
    0.1091   -1.3312    1.9101 C   0  0  0  0  0  0  0  0  0  0  0  0
   -0.0216   -2.3454    0.7732 C   0  0  0  0  0  0  0  0  0  0  0  0
    3.0914    6.2411   -2.6481 C   0  0  0  0  0  0  0  0  0  0  0  0
    2.1727    6.2954   -3.6485 C   0  0  0  0  0  0  0  0  0  0  0  0
    2.5048    6.9920   -4.9220 C   0  0  0  0  0  0  0  0  0  0  0  0
    3.4111    7.7721   -5.1054 O   0  0  0  0  0  0  0  0  0  0  0  0
    1.5380    6.4718   -5.9088 C   0  0  0  0  0  0  0  0  0  0  0  0
    1.5195    6.7144   -7.2806 C   0  0  0  0  0  0  0  0  0  0  0  0
    0.5138    6.0612   -7.9518 C   0  0  0  0  0  0  0  0  0  0  0  0
   -0.4092    5.2230   -7.3108 C   0  0  0  0  0  0  0  0  0  0  0  0
   -0.4131    4.9846   -5.9571 C   0  0  0  0  0  0  0  0  0  0  0  0
    0.6006    5.6421   -5.2569 C   0  0  0  0  0  0  0  0  0  0  0  0
    0.8817    5.6660   -3.8246 C   0  0  0  0  0  0  0  0  0  0  0  0
   -0.0260    5.4129   -2.8296 C   0  0  0  0  0  0  0  0  0  0  0  0
    0.1957    5.7709   -1.4829 C   0  0  0  0  0  0  0  0  0  0  0  0
    0.3206    6.1000   -0.3902 N   0  0  0  0  0  0  0  0  0  0  0  0
   -1.3031    4.8595   -3.0428 C   0  0  0  0  0  0  0  0  0  0  0  0
   -2.3412    4.3814   -3.1536 N   0  0  0  0  0  0  0  0  0  0  0  0
   -1.1159    4.8834   -8.5985 C   0  0  0  0  0  0  0  0  0  0  0  0
   -0.8216    3.5053   -9.2416 C   0  0  0  0  0  0  0  0  0  0  0  0
    0.5631    3.1079   -8.7938 C   0  0  0  0  0  0  0  0  0  0  0  0
    1.4304    3.9060   -9.4020 C   0  0  0  0  0  0  0  0  0  0  0  0
    0.6476    4.8583  -10.2717 C   0  0  0  0  0  0  0  0  0  0  0  0
   -0.5227    3.9504  -10.6821 C   0  0  0  0  0  0  0  0  0  0  0  0
   -0.0930    5.8224   -9.3120 C   0  0  0  0  0  0  0  0  0  0  0  0
   -1.1717   -7.2012    5.9809 H   0  0  0  0  0  0  0  0  0  0  0  0
   -5.9193   -9.9162    4.2841 H   0  0  0  0  0  0  0  0  0  0  0  0
    1.6567   -5.4750    7.4277 H   0  0  0  0  0  0  0  0  0  0  0  0
    0.1839   -6.4543    7.4021 H   0  0  0  0  0  0  0  0  0  0  0  0
    2.7113   -6.9888    5.7650 H   0  0  0  0  0  0  0  0  0  0  0  0
    2.1819   -7.8870    7.1922 H   0  0  0  0  0  0  0  0  0  0  0  0
    1.2415   -7.9679    5.7027 H   0  0  0  0  0  0  0  0  0  0  0  0
    4.6040    6.3666   -0.2944 H   0  0  0  0  0  0  0  0  0  0  0  0
    1.3098    1.2016   -0.7750 H   0  0  0  0  0  0  0  0  0  0  0  0
    1.3226   -0.3910    0.0037 H   0  0  0  0  0  0  0  0  0  0  0  0
    3.7058    0.8894   -1.4039 H   0  0  0  0  0  0  0  0  0  0  0  0
    2.7236   -0.4441   -2.0116 H   0  0  0  0  0  0  0  0  0  0  0  0
    3.7281   -0.6697   -0.5737 H   0  0  0  0  0  0  0  0  0  0  0  0
   -0.7277   -1.4799    2.6014 H   0  0  0  0  0  0  0  0  0  0  0  0
    0.0592   -0.3017    1.5526 H   0  0  0  0  0  0  0  0  0  0  0  0
   -0.8505   -2.0674    0.1284 H   0  0  0  0  0  0  0  0  0  0  0  0
    0.8874   -2.4029    0.1780 H   0  0  0  0  0  0  0  0  0  0  0  0
   -0.2226   -3.3344    1.1750 H   0  0  0  0  0  0  0  0  0  0  0  0
    3.9139    6.9446   -2.7377 H   0  0  0  0  0  0  0  0  0  0  0  0
    2.2469    7.3662   -7.7385 H   0  0  0  0  0  0  0  0  0  0  0  0
   -1.1245    4.3373   -5.4703 H   0  0  0  0  0  0  0  0  0  0  0  0
   -2.1707    5.1461   -8.6467 H   0  0  0  0  0  0  0  0  0  0  0  0
   -1.6036    2.7644   -9.0980 H   0  0  0  0  0  0  0  0  0  0  0  0
    0.7605    2.3485   -8.0598 H   0  0  0  0  0  0  0  0  0  0  0  0
    2.4968    3.9467   -9.2778 H   0  0  0  0  0  0  0  0  0  0  0  0
    1.2027    5.3497  -11.0663 H   0  0  0  0  0  0  0  0  0  0  0  0
   -0.2116    3.1258  -11.3218 H   0  0  0  0  0  0  0  0  0  0  0  0
   -1.3461    4.4884  -11.1496 H   0  0  0  0  0  0  0  0  0  0  0  0
   -0.4799    6.7017   -9.8231 H   0  0  0  0  0  0  0  0  0  0  0  0
  1  2  2  0  0  0  0
  2  3  1  0  0  0  0
  3  4  2  0  0  0  0
  3  5  1  0  0  0  0
  5  6  1  0  0  0  0
  6  7  2  0  0  0  0
  7  8  1  0  0  0  0
  8  9  1  0  0  0  0
  9 10  1  0  0  0  0
  6 11  1  0  0  0  0
 11 12  2  0  0  0  0
 12 13  1  0  0  0  0
 13 14  3  0  0  0  0
 12 15  1  0  0  0  0
 15 16  3  0  0  0  0
  1 17  1  0  0  0  0
 17 18  2  0  0  0  0
 18 19  1  0  0  0  0
 19 20  1  0  0  0  0
 18 21  1  0  0  0  0
 21 22  2  0  0  0  0
 22 23  1  0  0  0  0
 22 24  1  0  0  0  0
 24 25  2  0  0  0  0
 25 26  1  0  0  0  0
 25 27  1  0  0  0  0
 27 28  1  0  0  0  0
 28 29  2  0  0  0  0
 29 30  1  0  0  0  0
 30 31  1  0  0  0  0
 31 32  2  0  0  0  0
 32 33  1  0  0  0  0
 33 34  1  0  0  0  0
 34 35  1  0  0  0  0
 35 36  1  0  0  0  0
 36 37  1  0  0  0  0
 37 38  2  0  0  0  0
 38 39  1  0  0  0  0
 39 40  1  0  0  0  0
 40 41  1  0  0  0  0
 41 42  1  0  0  0  0
 42 43  1  0  0  0  0
 43 44  1  0  0  0  0
 42 45  1  0  0  0  0
 45 46  1  0  0  0  0
 46 47  1  0  0  0  0
 47 48  1  0  0  0  0
 48 49  1  0  0  0  0
 38 50  1  0  0  0  0
 50 51  2  0  0  0  0
 51 52  1  0  0  0  0
 52 53  2  0  0  0  0
 52 54  1  0  0  0  0
 54 55  2  0  0  0  0
 55 56  1  0  0  0  0
 56 57  2  0  0  0  0
 57 58  1  0  0  0  0
 58 59  2  0  0  0  0
 59 60  1  0  0  0  0
 60 61  2  0  0  0  0
 61 62  1  0  0  0  0
 62 63  3  0  0  0  0
 61 64  1  0  0  0  0
 64 65  3  0  0  0  0
 57 66  1  0  0  0  0
 66 67  1  0  0  0  0
 67 68  1  0  0  0  0
 68 69  2  0  0  0  0
 69 70  1  0  0  0  0
 70 71  1  0  0  0  0
 70 72  1  0  0  0  0
 11  2  1  0  0  0  0
 23 17  1  0  0  0  0
 47 24  1  0  0  0  0
 60 51  1  0  0  0  0
 72 66  1  0  0  0  0
  9  5  2  0  0  0  0
 26 21  1  0  0  0  0
 46 27  2  0  0  0  0
 59 54  1  0  0  0  0
 71 67  1  0  0  0  0
 32 28  1  0  0  0  0
 45 33  2  0  0  0  0
 72 56  1  0  0  0  0
 41 34  2  0  0  0  0
 40 36  2  0  0  0  0
  1 73  1  0  0  0  0
  7 74  1  0  0  0  0
 19 75  1  0  0  0  0
 19 76  1  0  0  0  0
 20 77  1  0  0  0  0
 20 78  1  0  0  0  0
 20 79  1  0  0  0  0
 37 80  1  0  0  0  0
 43 81  1  0  0  0  0
 43 82  1  0  0  0  0
 44 83  1  0  0  0  0
 44 84  1  0  0  0  0
 44 85  1  0  0  0  0
 48 86  1  0  0  0  0
 48 87  1  0  0  0  0
 49 88  1  0  0  0  0
 49 89  1  0  0  0  0
 49 90  1  0  0  0  0
 50 91  1  0  0  0  0
 55 92  1  0  0  0  0
 58 93  1  0  0  0  0
 66 94  1  0  0  0  0
 67 95  1  0  0  0  0
 68 96  1  0  0  0  0
 69 97  1  0  0  0  0
 70 98  1  0  0  0  0
 71 99  1  0  0  0  0
 71100  1  0  0  0  0
 72101  1  0  0  0  0
M  END
