126

C          2.89160        4.76680       -2.37110
C          4.19490        5.01600       -2.03150
C          5.06470        4.19400       -1.14070
O          4.78440        3.19560       -0.52060
C          6.37890        4.85750       -1.19420
C          6.31250        6.00780       -2.04200
C          7.49640        6.67010       -2.14170
S          8.72260        5.90190       -1.20050
C          7.61460        4.65950       -0.66080
Cl         8.12010        3.42510        0.38510
C          4.96350        6.13030       -2.55980
C          4.54890        7.15040       -3.37870
C          3.25250        7.34220       -3.89260
N          2.22090        7.57060       -4.34440
C          5.43950        8.16210       -3.79370
N          6.14620        8.99510       -4.14570
C          2.01220        3.75960       -1.93920
O          2.31500        2.84890       -0.97350
C          1.25280        2.07140       -0.84660
C          0.87610        0.94290       -0.06080
C         -0.43090        0.58540       -0.48350
C         -0.94250        1.51200       -1.58150
C         -1.14280        0.82910       -2.92370
C         -1.75890        1.54020       -3.94710
C         -1.92290        0.97300       -5.19520
C         -1.47280       -0.31550       -5.45700
C         -1.61110       -0.91330       -6.82720
C         -0.39670       -0.55910       -7.68810
C         -0.84660       -1.01490       -4.43520
C         -0.67830       -0.45120       -3.18250
C         -2.22020        2.17100       -1.09470
C         -2.18760        3.37230       -0.40130
C         -3.35700        3.94240        0.06770
C         -4.58380        3.32600       -0.13640
C         -5.84740        3.92430        0.41070
C         -6.13330        3.37760        1.81100
C         -4.60850        2.11600       -0.81820
C         -3.44370        1.54310       -1.29130
C          0.22570        2.44820       -1.71560
C          0.70870        3.53700       -2.42280
C         -1.08770       -0.47200        0.10120
C         -0.40470       -1.17430        1.09250
C         -0.78010       -2.30400        1.87750
C          0.23220       -2.65580        2.77420
C          1.41320       -1.74020        2.61540
C          0.90720       -0.82450        1.50600
C          1.55420        0.24840        0.93890
C          2.62280       -2.57560        2.23580
C          3.08790       -2.66370        0.93280
C          4.18210       -3.45680        0.63460
C          4.83090       -4.18340        1.62270
C          5.99670       -5.06850        1.28870
C          5.51700       -6.48110        0.94910
C          4.34610       -4.10790        2.92300
C          3.25600       -3.31700        3.22690
C          1.69520       -0.88070        3.83600
C          2.94040       -0.28540        3.99270
C          3.19360        0.53420        5.07610
C          2.21190        0.78680        6.02550
C          2.50370        1.63620        7.22840
C          2.99780        0.76750        8.38710
C          0.96690        0.19560        5.85910
C          0.70720       -0.62330        4.77570
C         -0.23570       -3.76640        3.45660
C         -1.52080       -4.02000        2.93960
O         -1.82450       -3.10960        1.97380
C         -2.37770       -5.05950        3.33840
C         -3.65040       -5.36970        2.93800
C         -4.50310       -4.60710        1.98050
O         -4.23970       -3.59710        1.37160
C         -5.77480       -5.35000        1.94620
C         -5.70270       -6.48390        2.81550
C         -6.84780       -7.21790        2.83600
S         -8.04310       -6.53970        1.79170
C         -6.97580       -5.23630        1.31750
Cl        -7.47450       -4.04950        0.21510
C         -4.39200       -6.51620        3.43530
C         -3.98610       -7.49080        4.31230
C         -2.72790       -7.59210        4.93510
N         -1.72840       -7.74080        5.48260
C         -4.84750       -8.54400        4.68350
N         -5.53000       -9.41100        4.99960
H          2.43530        5.42800       -3.09630
H          7.74090        7.55180       -2.69970
H         -2.11950        2.54070       -3.75710
H         -2.40920        1.53720       -5.97810
H         -1.69390       -1.99930       -6.75120
H         -2.51510       -0.53380       -7.30750
H         -0.49480       -0.99150       -8.68090
H          0.51440       -0.93940       -7.23150
H         -0.30450        0.52020       -7.78650
H         -0.48530       -2.01680       -4.61850
H         -0.18550       -1.01720       -2.40580
H         -1.24490        3.87110       -0.22850
H         -3.31400        4.88280        0.59850
H         -6.68550        3.68430       -0.24660
H         -5.75200        5.01070        0.46080
H         -7.04920        3.80900        2.20810
H         -5.31440        3.61830        2.48530
H         -6.24280        2.29600        1.77980
H         -5.55230        1.61680       -0.98420
H         -3.48680        0.60750       -1.82950
H          0.22600        4.11510       -3.18450
H         -2.08600       -0.76210       -0.18540
H          2.54570        0.54940        1.23760
H          2.60230       -2.10780        0.14440
H          4.53870       -3.50610       -0.38440
H          6.54020       -4.65810        0.43530
H          6.68020       -5.11600        2.13880
H          4.98310       -6.91270        1.79270
H          4.84390       -6.45710        0.09500
H          6.36200       -7.12180        0.70800
H          4.83170       -4.67160        3.70660
H          2.89680       -3.26080        4.24420
H          3.72040       -0.47290        3.26930
H          4.16870        0.98730        5.18360
H          3.26710        2.37680        6.98260
H          1.59960        2.16560        7.53610
H          2.24410        0.03060        8.65570
H          3.21020        1.38120        9.25930
H          3.90580        0.24010        8.10350
H          0.18720        0.38100        6.58410
H         -0.27250       -1.06530        4.66520
H          0.24360       -4.33840        4.22500
H         -1.92590       -5.69960        4.08490
H         -7.07940       -8.10710        3.38760
