
  xtb     02012215463D
 energy: -215.720871347567 gnorm: 0.000669599172 xtb: 6.4.1 (unknown)
126138  0     0  0            999 V2000
    2.8916    4.7668   -2.3711 C   0  0  0  0  0  0  0  0  0  0  0  0
    4.1949    5.0160   -2.0315 C   0  0  0  0  0  0  0  0  0  0  0  0
    5.0647    4.1940   -1.1407 C   0  0  0  0  0  0  0  0  0  0  0  0
    4.7844    3.1956   -0.5206 O   0  0  0  0  0  0  0  0  0  0  0  0
    6.3789    4.8575   -1.1942 C   0  0  0  0  0  0  0  0  0  0  0  0
    6.3125    6.0078   -2.0420 C   0  0  0  0  0  0  0  0  0  0  0  0
    7.4964    6.6701   -2.1417 C   0  0  0  0  0  0  0  0  0  0  0  0
    8.7226    5.9019   -1.2005 S   0  0  0  0  0  0  0  0  0  0  0  0
    7.6146    4.6595   -0.6608 C   0  0  0  0  0  0  0  0  0  0  0  0
    8.1201    3.4251    0.3851 Cl  0  0  0  0  0  0  0  0  0  0  0  0
    4.9635    6.1303   -2.5598 C   0  0  0  0  0  0  0  0  0  0  0  0
    4.5489    7.1504   -3.3787 C   0  0  0  0  0  0  0  0  0  0  0  0
    3.2525    7.3422   -3.8926 C   0  0  0  0  0  0  0  0  0  0  0  0
    2.2209    7.5706   -4.3444 N   0  0  0  0  0  0  0  0  0  0  0  0
    5.4395    8.1621   -3.7937 C   0  0  0  0  0  0  0  0  0  0  0  0
    6.1462    8.9951   -4.1457 N   0  0  0  0  0  0  0  0  0  0  0  0
    2.0122    3.7596   -1.9392 C   0  0  0  0  0  0  0  0  0  0  0  0
    2.3150    2.8489   -0.9735 O   0  0  0  0  0  0  0  0  0  0  0  0
    1.2528    2.0714   -0.8466 C   0  0  0  0  0  0  0  0  0  0  0  0
    0.8761    0.9429   -0.0608 C   0  0  0  0  0  0  0  0  0  0  0  0
   -0.4309    0.5854   -0.4835 C   0  0  0  0  0  0  0  0  0  0  0  0
   -0.9425    1.5120   -1.5815 C   0  0  0  0  0  0  0  0  0  0  0  0
   -1.1428    0.8291   -2.9237 C   0  0  0  0  0  0  0  0  0  0  0  0
   -1.7589    1.5402   -3.9471 C   0  0  0  0  0  0  0  0  0  0  0  0
   -1.9229    0.9730   -5.1952 C   0  0  0  0  0  0  0  0  0  0  0  0
   -1.4728   -0.3155   -5.4570 C   0  0  0  0  0  0  0  0  0  0  0  0
   -1.6111   -0.9133   -6.8272 C   0  0  0  0  0  0  0  0  0  0  0  0
   -0.3967   -0.5591   -7.6881 C   0  0  0  0  0  0  0  0  0  0  0  0
   -0.8466   -1.0149   -4.4352 C   0  0  0  0  0  0  0  0  0  0  0  0
   -0.6783   -0.4512   -3.1825 C   0  0  0  0  0  0  0  0  0  0  0  0
   -2.2202    2.1710   -1.0947 C   0  0  0  0  0  0  0  0  0  0  0  0
   -2.1876    3.3723   -0.4013 C   0  0  0  0  0  0  0  0  0  0  0  0
   -3.3570    3.9424    0.0677 C   0  0  0  0  0  0  0  0  0  0  0  0
   -4.5838    3.3260   -0.1364 C   0  0  0  0  0  0  0  0  0  0  0  0
   -5.8474    3.9243    0.4107 C   0  0  0  0  0  0  0  0  0  0  0  0
   -6.1333    3.3776    1.8110 C   0  0  0  0  0  0  0  0  0  0  0  0
   -4.6085    2.1160   -0.8182 C   0  0  0  0  0  0  0  0  0  0  0  0
   -3.4437    1.5431   -1.2913 C   0  0  0  0  0  0  0  0  0  0  0  0
    0.2257    2.4482   -1.7156 C   0  0  0  0  0  0  0  0  0  0  0  0
    0.7087    3.5370   -2.4228 C   0  0  0  0  0  0  0  0  0  0  0  0
   -1.0877   -0.4720    0.1012 C   0  0  0  0  0  0  0  0  0  0  0  0
   -0.4047   -1.1743    1.0925 C   0  0  0  0  0  0  0  0  0  0  0  0
   -0.7801   -2.3040    1.8775 C   0  0  0  0  0  0  0  0  0  0  0  0
    0.2322   -2.6558    2.7742 C   0  0  0  0  0  0  0  0  0  0  0  0
    1.4132   -1.7402    2.6154 C   0  0  0  0  0  0  0  0  0  0  0  0
    0.9072   -0.8245    1.5060 C   0  0  0  0  0  0  0  0  0  0  0  0
    1.5542    0.2484    0.9389 C   0  0  0  0  0  0  0  0  0  0  0  0
    2.6228   -2.5756    2.2358 C   0  0  0  0  0  0  0  0  0  0  0  0
    3.0879   -2.6637    0.9328 C   0  0  0  0  0  0  0  0  0  0  0  0
    4.1821   -3.4568    0.6346 C   0  0  0  0  0  0  0  0  0  0  0  0
    4.8309   -4.1834    1.6227 C   0  0  0  0  0  0  0  0  0  0  0  0
    5.9967   -5.0685    1.2887 C   0  0  0  0  0  0  0  0  0  0  0  0
    5.5170   -6.4811    0.9491 C   0  0  0  0  0  0  0  0  0  0  0  0
    4.3461   -4.1079    2.9230 C   0  0  0  0  0  0  0  0  0  0  0  0
    3.2560   -3.3170    3.2269 C   0  0  0  0  0  0  0  0  0  0  0  0
    1.6952   -0.8807    3.8360 C   0  0  0  0  0  0  0  0  0  0  0  0
    2.9404   -0.2854    3.9927 C   0  0  0  0  0  0  0  0  0  0  0  0
    3.1936    0.5342    5.0761 C   0  0  0  0  0  0  0  0  0  0  0  0
    2.2119    0.7868    6.0255 C   0  0  0  0  0  0  0  0  0  0  0  0
    2.5037    1.6362    7.2284 C   0  0  0  0  0  0  0  0  0  0  0  0
    2.9978    0.7675    8.3871 C   0  0  0  0  0  0  0  0  0  0  0  0
    0.9669    0.1956    5.8591 C   0  0  0  0  0  0  0  0  0  0  0  0
    0.7072   -0.6233    4.7757 C   0  0  0  0  0  0  0  0  0  0  0  0
   -0.2357   -3.7664    3.4566 C   0  0  0  0  0  0  0  0  0  0  0  0
   -1.5208   -4.0200    2.9396 C   0  0  0  0  0  0  0  0  0  0  0  0
   -1.8245   -3.1096    1.9738 O   0  0  0  0  0  0  0  0  0  0  0  0
   -2.3777   -5.0595    3.3384 C   0  0  0  0  0  0  0  0  0  0  0  0
   -3.6504   -5.3697    2.9380 C   0  0  0  0  0  0  0  0  0  0  0  0
   -4.5031   -4.6071    1.9805 C   0  0  0  0  0  0  0  0  0  0  0  0
   -4.2397   -3.5971    1.3716 O   0  0  0  0  0  0  0  0  0  0  0  0
   -5.7748   -5.3500    1.9462 C   0  0  0  0  0  0  0  0  0  0  0  0
   -5.7027   -6.4839    2.8155 C   0  0  0  0  0  0  0  0  0  0  0  0
   -6.8478   -7.2179    2.8360 C   0  0  0  0  0  0  0  0  0  0  0  0
   -8.0431   -6.5397    1.7917 S   0  0  0  0  0  0  0  0  0  0  0  0
   -6.9758   -5.2363    1.3175 C   0  0  0  0  0  0  0  0  0  0  0  0
   -7.4745   -4.0495    0.2151 Cl  0  0  0  0  0  0  0  0  0  0  0  0
   -4.3920   -6.5162    3.4353 C   0  0  0  0  0  0  0  0  0  0  0  0
   -3.9861   -7.4908    4.3123 C   0  0  0  0  0  0  0  0  0  0  0  0
   -2.7279   -7.5921    4.9351 C   0  0  0  0  0  0  0  0  0  0  0  0
   -1.7284   -7.7408    5.4826 N   0  0  0  0  0  0  0  0  0  0  0  0
   -4.8475   -8.5440    4.6835 C   0  0  0  0  0  0  0  0  0  0  0  0
   -5.5300   -9.4110    4.9996 N   0  0  0  0  0  0  0  0  0  0  0  0
    2.4353    5.4280   -3.0963 H   0  0  0  0  0  0  0  0  0  0  0  0
    7.7409    7.5518   -2.6997 H   0  0  0  0  0  0  0  0  0  0  0  0
   -2.1195    2.5407   -3.7571 H   0  0  0  0  0  0  0  0  0  0  0  0
   -2.4092    1.5372   -5.9781 H   0  0  0  0  0  0  0  0  0  0  0  0
   -1.6939   -1.9993   -6.7512 H   0  0  0  0  0  0  0  0  0  0  0  0
   -2.5151   -0.5338   -7.3075 H   0  0  0  0  0  0  0  0  0  0  0  0
   -0.4948   -0.9915   -8.6809 H   0  0  0  0  0  0  0  0  0  0  0  0
    0.5144   -0.9394   -7.2315 H   0  0  0  0  0  0  0  0  0  0  0  0
   -0.3045    0.5202   -7.7865 H   0  0  0  0  0  0  0  0  0  0  0  0
   -0.4853   -2.0168   -4.6185 H   0  0  0  0  0  0  0  0  0  0  0  0
   -0.1855   -1.0172   -2.4058 H   0  0  0  0  0  0  0  0  0  0  0  0
   -1.2449    3.8711   -0.2285 H   0  0  0  0  0  0  0  0  0  0  0  0
   -3.3140    4.8828    0.5985 H   0  0  0  0  0  0  0  0  0  0  0  0
   -6.6855    3.6843   -0.2466 H   0  0  0  0  0  0  0  0  0  0  0  0
   -5.7520    5.0107    0.4608 H   0  0  0  0  0  0  0  0  0  0  0  0
   -7.0492    3.8090    2.2081 H   0  0  0  0  0  0  0  0  0  0  0  0
   -5.3144    3.6183    2.4853 H   0  0  0  0  0  0  0  0  0  0  0  0
   -6.2428    2.2960    1.7798 H   0  0  0  0  0  0  0  0  0  0  0  0
   -5.5523    1.6168   -0.9842 H   0  0  0  0  0  0  0  0  0  0  0  0
   -3.4868    0.6075   -1.8295 H   0  0  0  0  0  0  0  0  0  0  0  0
    0.2260    4.1151   -3.1845 H   0  0  0  0  0  0  0  0  0  0  0  0
   -2.0860   -0.7621   -0.1854 H   0  0  0  0  0  0  0  0  0  0  0  0
    2.5457    0.5494    1.2376 H   0  0  0  0  0  0  0  0  0  0  0  0
    2.6023   -2.1078    0.1444 H   0  0  0  0  0  0  0  0  0  0  0  0
    4.5387   -3.5061   -0.3844 H   0  0  0  0  0  0  0  0  0  0  0  0
    6.5402   -4.6581    0.4353 H   0  0  0  0  0  0  0  0  0  0  0  0
    6.6802   -5.1160    2.1388 H   0  0  0  0  0  0  0  0  0  0  0  0
    4.9831   -6.9127    1.7927 H   0  0  0  0  0  0  0  0  0  0  0  0
    4.8439   -6.4571    0.0950 H   0  0  0  0  0  0  0  0  0  0  0  0
    6.3620   -7.1218    0.7080 H   0  0  0  0  0  0  0  0  0  0  0  0
    4.8317   -4.6716    3.7066 H   0  0  0  0  0  0  0  0  0  0  0  0
    2.8968   -3.2608    4.2442 H   0  0  0  0  0  0  0  0  0  0  0  0
    3.7204   -0.4729    3.2693 H   0  0  0  0  0  0  0  0  0  0  0  0
    4.1687    0.9873    5.1836 H   0  0  0  0  0  0  0  0  0  0  0  0
    3.2671    2.3768    6.9826 H   0  0  0  0  0  0  0  0  0  0  0  0
    1.5996    2.1656    7.5361 H   0  0  0  0  0  0  0  0  0  0  0  0
    2.2441    0.0306    8.6557 H   0  0  0  0  0  0  0  0  0  0  0  0
    3.2102    1.3812    9.2593 H   0  0  0  0  0  0  0  0  0  0  0  0
    3.9058    0.2401    8.1035 H   0  0  0  0  0  0  0  0  0  0  0  0
    0.1872    0.3810    6.5841 H   0  0  0  0  0  0  0  0  0  0  0  0
   -0.2725   -1.0653    4.6652 H   0  0  0  0  0  0  0  0  0  0  0  0
    0.2436   -4.3384    4.2250 H   0  0  0  0  0  0  0  0  0  0  0  0
   -1.9259   -5.6996    4.0849 H   0  0  0  0  0  0  0  0  0  0  0  0
   -7.0794   -8.1071    3.3876 H   0  0  0  0  0  0  0  0  0  0  0  0
  1  2  2  0  0  0  0
  2  3  1  0  0  0  0
  3  4  2  0  0  0  0
  3  5  1  0  0  0  0
  5  6  1  0  0  0  0
  6  7  2  0  0  0  0
  7  8  1  0  0  0  0
  8  9  1  0  0  0  0
  9 10  1  0  0  0  0
  6 11  1  0  0  0  0
 11 12  2  0  0  0  0
 12 13  1  0  0  0  0
 13 14  3  0  0  0  0
 12 15  1  0  0  0  0
 15 16  3  0  0  0  0
  1 17  1  0  0  0  0
 17 18  1  0  0  0  0
 18 19  1  0  0  0  0
 19 20  1  0  0  0  0
 20 21  2  0  0  0  0
 21 22  1  0  0  0  0
 22 23  1  0  0  0  0
 23 24  2  0  0  0  0
 24 25  1  0  0  0  0
 25 26  2  0  0  0  0
 26 27  1  0  0  0  0
 27 28  1  0  0  0  0
 26 29  1  0  0  0  0
 29 30  2  0  0  0  0
 22 31  1  0  0  0  0
 31 32  2  0  0  0  0
 32 33  1  0  0  0  0
 33 34  2  0  0  0  0
 34 35  1  0  0  0  0
 35 36  1  0  0  0  0
 34 37  1  0  0  0  0
 37 38  2  0  0  0  0
 22 39  1  0  0  0  0
 39 40  1  0  0  0  0
 21 41  1  0  0  0  0
 41 42  2  0  0  0  0
 42 43  1  0  0  0  0
 43 44  2  0  0  0  0
 44 45  1  0  0  0  0
 45 46  1  0  0  0  0
 46 47  2  0  0  0  0
 45 48  1  0  0  0  0
 48 49  2  0  0  0  0
 49 50  1  0  0  0  0
 50 51  2  0  0  0  0
 51 52  1  0  0  0  0
 52 53  1  0  0  0  0
 51 54  1  0  0  0  0
 54 55  2  0  0  0  0
 45 56  1  0  0  0  0
 56 57  2  0  0  0  0
 57 58  1  0  0  0  0
 58 59  2  0  0  0  0
 59 60  1  0  0  0  0
 60 61  1  0  0  0  0
 59 62  1  0  0  0  0
 62 63  2  0  0  0  0
 44 64  1  0  0  0  0
 64 65  2  0  0  0  0
 65 66  1  0  0  0  0
 65 67  1  0  0  0  0
 67 68  2  0  0  0  0
 68 69  1  0  0  0  0
 69 70  2  0  0  0  0
 69 71  1  0  0  0  0
 71 72  1  0  0  0  0
 72 73  2  0  0  0  0
 73 74  1  0  0  0  0
 74 75  1  0  0  0  0
 75 76  1  0  0  0  0
 72 77  1  0  0  0  0
 77 78  2  0  0  0  0
 78 79  1  0  0  0  0
 79 80  3  0  0  0  0
 78 81  1  0  0  0  0
 81 82  3  0  0  0  0
 11  2  1  0  0  0  0
 40 17  2  0  0  0  0
 46 42  1  0  0  0  0
 55 48  1  0  0  0  0
 63 56  1  0  0  0  0
 77 68  1  0  0  0  0
  9  5  2  0  0  0  0
 39 19  2  0  0  0  0
 66 43  1  0  0  0  0
 75 71  2  0  0  0  0
 47 20  1  0  0  0  0
 30 23  1  0  0  0  0
 38 31  1  0  0  0  0
  1 83  1  0  0  0  0
  7 84  1  0  0  0  0
 24 85  1  0  0  0  0
 25 86  1  0  0  0  0
 27 87  1  0  0  0  0
 27 88  1  0  0  0  0
 28 89  1  0  0  0  0
 28 90  1  0  0  0  0
 28 91  1  0  0  0  0
 29 92  1  0  0  0  0
 30 93  1  0  0  0  0
 32 94  1  0  0  0  0
 33 95  1  0  0  0  0
 35 96  1  0  0  0  0
 35 97  1  0  0  0  0
 36 98  1  0  0  0  0
 36 99  1  0  0  0  0
 36100  1  0  0  0  0
 37101  1  0  0  0  0
 38102  1  0  0  0  0
 40103  1  0  0  0  0
 41104  1  0  0  0  0
 47105  1  0  0  0  0
 49106  1  0  0  0  0
 50107  1  0  0  0  0
 52108  1  0  0  0  0
 52109  1  0  0  0  0
 53110  1  0  0  0  0
 53111  1  0  0  0  0
 53112  1  0  0  0  0
 54113  1  0  0  0  0
 55114  1  0  0  0  0
 57115  1  0  0  0  0
 58116  1  0  0  0  0
 60117  1  0  0  0  0
 60118  1  0  0  0  0
 61119  1  0  0  0  0
 61120  1  0  0  0  0
 61121  1  0  0  0  0
 62122  1  0  0  0  0
 63123  1  0  0  0  0
 64124  1  0  0  0  0
 67125  1  0  0  0  0
 73126  1  0  0  0  0
M  END
