94

C         -3.05740        7.62360       -2.26810
C         -2.98270        8.90570       -1.81850
C         -3.90400        9.94160       -2.37410
O         -4.85560        9.74800       -3.09240
C         -3.35390       11.21530       -1.88890
C         -2.25390       10.96080       -1.00440
C         -1.68720       12.09290       -0.51070
S         -2.47810       13.50210       -1.11940
C         -3.60620       12.54380       -2.05190
Cl        -4.81070       13.27320       -2.99400
C         -2.09090        9.52640       -0.85900
C         -1.40850        8.92350        0.16570
C         -0.64950        9.68000        1.08230
N         -0.01070       10.28060        1.82240
C         -1.44410        7.54910        0.46640
N         -1.46470        6.44820        0.79300
C         -2.08960        6.59210       -2.15850
C         -0.70770        6.63250       -2.28900
C          0.08970        7.82990       -2.70440
C          1.26340        8.12400       -1.77020
C         -0.15210        5.35470       -2.12640
S          1.49180        4.75730       -2.15480
C          0.91250        3.18350       -1.73800
C          1.41730        1.91100       -1.42090
C          2.72670        1.41070       -1.23270
C          2.90200        0.07870       -0.71500
N          4.17600       -0.21900       -0.51610
S          5.07790        1.05310       -0.94710
N          3.87910        2.03840       -1.40360
C          1.76910       -0.75110       -0.54800
C          1.60790       -2.09860       -0.18530
S          2.55850       -3.42200        0.38530
C          1.12310       -4.42460        0.42070
C          0.88640       -5.73860        0.84270
C          1.95030       -6.70760        1.23080
C          3.14610       -6.69140        0.28140
C         -0.46750       -6.05810        0.73660
S         -1.41680       -4.74670        0.02830
C         -0.02300       -3.74040       -0.01760
C          0.25210       -2.41510       -0.35520
N         -0.43890       -1.30940       -0.78750
C          0.47120       -0.27400       -0.87200
C          0.28660        1.09680       -1.14640
N         -0.86640        1.85500       -1.23680
C         -0.48040        3.11950       -1.60590
C         -1.08990        4.35300       -1.84410
S         -2.69660        4.96230       -1.88550
C         -2.07360        1.68060       -0.44950
C         -2.00580        2.48400        0.84920
C         -1.65280       -1.44880       -1.56750
C         -1.42160       -2.32290       -2.79960
C         -1.17070       -7.23620        1.04440
C         -0.91820       -8.10090        2.08010
C         -0.18550       -7.73870        3.30970
O          0.41290       -6.71230        3.55220
C         -0.44040       -8.85010        4.25640
C         -0.00070       -8.97930        5.55850
C         -0.38830      -10.11070        6.25880
F          0.01900      -10.27920        7.52290
C         -1.20020      -11.07460        5.66080
F         -1.56520      -12.15270        6.36410
C         -1.64450      -10.94340        4.35340
C         -1.25680       -9.81660        3.64590
C         -1.54660       -9.38810        2.27880
C         -2.21590      -10.11880        1.33200
C         -2.38120       -9.72000       -0.01140
N         -2.52840       -9.46720       -1.12170
C         -2.79520      -11.38200        1.57220
N         -3.29040      -12.40750        1.71380
H         -3.97140        7.36940       -2.79740
H         -0.85710       12.20200        0.15860
H         -0.56180        8.70180       -2.77490
H          0.48790        7.63190       -3.70490
H          0.93440        8.23370       -0.74020
H          1.99290        7.31980       -1.80680
H          1.75200        9.04610       -2.07460
H          2.28100       -6.46620        2.24560
H          1.52230       -7.71180        1.25740
H          2.82140       -6.85710       -0.74350
H          3.83670       -7.48460        0.55610
H          3.67800       -5.74590        0.33020
H         -2.19120        0.62840       -0.19860
H         -2.92590        2.01110       -1.05120
H         -1.14700        2.17010        1.43880
H         -2.90810        2.30980        1.42840
H         -1.92200        3.54960        0.65590
H         -2.42850       -1.89440       -0.93640
H         -1.97260       -0.46320       -1.90140
H         -0.61640       -1.91260       -3.40550
H         -2.32810       -2.35200       -3.39740
H         -1.16420       -3.33960       -2.51720
H         -2.04460       -7.42400        0.43060
H          0.62340       -8.23050        6.01960
H         -2.27570      -11.71150        3.93720
