97

C          1.08720       -7.45240       -3.50000
C         -0.18750       -7.90380       -3.68140
C         -0.46080       -9.36850       -3.62460
O          0.35880      -10.25690       -3.63130
C         -1.92390       -9.46050       -3.50700
C         -2.49910       -8.15030       -3.60780
C         -3.85400       -8.14780       -3.51320
S         -4.46550       -9.74770       -3.28800
C         -2.85790      -10.43640       -3.33710
Cl        -2.61350      -12.10680       -3.18830
C         -1.43650       -7.19270       -3.85150
C         -1.62230       -5.94810       -4.39860
C         -2.90590       -5.38810       -4.54040
N         -3.94260       -4.90340       -4.63170
C         -0.58360       -5.16740       -4.94080
N          0.23320       -4.53560       -5.44350
C          1.52630       -6.17050       -3.11160
C          2.79220       -5.63390       -3.32150
C          3.86690       -6.29380       -4.11610
C          3.58670       -6.15180       -5.61430
C          2.88980       -4.34000       -2.80350
S          4.17280       -3.15330       -2.83460
C          3.14310       -2.05670       -1.98930
C          3.14080       -0.71650       -1.57500
C          4.10180        0.30250       -1.80840
C          3.75130        1.63500       -1.47590
N          4.57270        2.65390       -1.75110
C          5.71770        2.35410       -2.32510
C          6.07470        1.03530       -2.62990
N          5.27720        0.01940       -2.38010
C          2.52150        1.85350       -0.80070
C          1.97940        3.03960       -0.28390
S          2.32890        4.73110       -0.25300
C          0.89440        4.97730        0.72710
C          0.31530        6.11340        1.27140
C          0.88780        7.48160        1.09720
C          1.76150        7.86710        2.29420
C         -0.83350        5.79400        2.02160
S         -1.17720        4.06190        2.00980
C          0.19650        3.78740        1.01090
C          0.81670        2.68920        0.41340
N          0.59620        1.33840        0.31600
C          1.62120        0.80790       -0.44400
C          1.87540       -0.48150       -0.96660
N          1.12000       -1.63310       -1.05530
C          1.88360       -2.58550       -1.67620
C          1.73250       -3.88890       -2.15180
S          0.48830       -5.08170       -2.19060
C         -0.30380       -1.83410       -0.90650
C         -0.63130       -2.72850        0.28880
C         -0.23540        0.71060        1.32060
C          0.48770        0.65070        2.66530
C         -1.60940        6.75660        2.66860
C         -2.71220        6.63030        3.48110
C         -3.30890        5.38180        3.94590
O         -3.03590        4.24850        3.59700
C         -4.30820        5.76710        4.96840
C         -5.05730        4.94870        5.79420
Cl        -5.03660        3.25140        5.62360
C         -5.83400        5.54970        6.79490
Cl        -6.80020        4.58190        7.82140
C         -5.78360        6.92950        6.98320
Cl        -6.66120        7.62950        8.27400
C         -5.01350        7.75430        6.14590
Cl        -4.86370        9.41280        6.55610
C         -4.32880        7.17200        5.08710
C         -3.47430        7.73070        4.04030
C         -3.53490        9.00120        3.52700
C         -2.68040        9.49540        2.51730
N         -2.01140        9.97890        1.71820
C         -4.54730        9.95070        3.78530
N         -5.37230       10.74670        3.83860
H          1.86050       -8.20850       -3.60170
H         -4.53650       -7.32210       -3.55020
H          3.93070       -7.35260       -3.85650
H          4.81930       -5.81690       -3.87690
H          3.51530       -5.10200       -5.88610
H          4.38810       -6.60910       -6.18830
H          2.64770       -6.63490       -5.87350
H          6.37420        3.18420       -2.54570
H          7.02450        0.79690       -3.08790
H          1.50310        7.47970        0.19560
H          0.09530        8.22060        0.96740
H          2.58290        7.16290        2.40350
H          1.18090        7.86670        3.21390
H          2.17340        8.86120        2.14460
H         -0.66570       -2.32270       -1.81830
H         -0.79510       -0.86250       -0.84160
H         -0.16930       -2.36110        1.20260
H         -1.70740       -2.77470        0.43020
H         -0.26590       -3.73640        0.11020
H         -1.14230        1.31410        1.41780
H         -0.51090       -0.29200        1.01690
H          0.73930        1.65050        3.00900
H         -0.15590        0.18480        3.40590
H          1.40460        0.07060        2.57900
H         -1.25300        7.76650        2.51760
