110

C          5.82980       -6.40610       -3.56100
C          6.36130       -6.98480       -2.43090
C          6.21790       -6.48980       -1.05430
O          5.59140       -5.51570       -0.67660
C          6.99440       -7.41880       -0.22540
C          7.56520       -8.43480       -1.05790
C          8.30130       -9.34340       -0.36580
S          8.31640       -8.97950        1.32330
C          7.30650       -7.57030        1.09050
Cl         6.84030       -6.59690        2.39780
C          7.17480       -8.18440       -2.43390
C          7.52870       -8.98560       -3.49150
C          8.32420      -10.13380       -3.30310
N          8.97030      -11.07320       -3.16990
C          7.16470       -8.79420       -4.83710
N          6.90100       -8.69620       -5.95180
C          5.01140       -5.28810       -3.72620
C          4.57430       -4.83990       -4.98790
C          4.97600       -5.41750       -6.30510
C          6.34000       -4.87620       -6.74270
C          3.74570       -3.73420       -4.87210
S          2.91130       -2.75230       -6.06340
C          2.25830       -1.80470       -4.77550
C          1.43270       -0.68530       -4.59850
C          0.86090        0.17320       -5.57380
C          0.14850        1.31170       -5.12300
N         -0.36010        2.19560       -5.98860
C         -0.17590        1.94560       -7.26700
C          0.50960        0.80960       -7.71260
N          1.02640       -0.06730       -6.87900
C         -0.05390        1.45960       -3.72590
C         -0.83580        2.39580       -3.03450
S         -1.82010        3.77670       -3.36770
C         -2.24300        3.84550       -1.66600
C         -3.06180        4.69950       -0.93830
C         -3.83860        5.80660       -1.57260
C         -5.25820        5.34790       -1.91710
C         -3.09650        4.34230        0.42070
S         -2.08280        2.94050        0.76690
C         -1.63740        2.83900       -0.89450
C         -0.82730        2.02040       -1.68590
N         -0.05470        0.90290       -1.51860
C          0.45290        0.55010       -2.75080
C          1.31730       -0.48050       -3.19280
N          2.08540       -1.42910       -2.54070
C          2.65900       -2.22390       -3.50160
C          3.51920       -3.32290       -3.54470
S          4.37070       -4.29980       -2.41040
C          2.71470       -1.38320       -1.23790
C          3.87530       -0.39030       -1.23070
C         -0.11010        0.17960       -0.26900
C          0.80650        0.79140        0.78920
C         -3.86410        5.02870        1.36880
C         -4.01980        4.82720        2.71750
C         -3.35030        3.80480        3.52510
O         -2.56910        2.94800        3.14340
C         -3.79520        4.01230        4.91240
C         -3.40190        3.28790        6.03560
C         -3.97800        3.71740        7.20680
C         -4.87760        4.79030        7.25700
C         -5.27120        5.51480        6.15660
C         -4.69870        5.09310        4.95270
C         -4.86490        5.61290        3.59540
C         -5.68910        6.65220        3.24370
C         -6.50150        7.36990        4.14650
N         -7.19220        7.99790        4.81530
C         -5.86540        7.16430        1.94170
N         -6.07080        7.64220        0.91650
C         -5.06040        4.67150        8.74970
C         -6.36340        4.00190        9.23500
C         -6.05270        3.59670       10.65790
C         -5.20010        2.58120       10.61130
C         -4.92010        2.28260        9.15590
C         -6.28440        2.63250        8.54770
C         -4.05660        3.47540        8.69370
H          6.07910       -6.89520       -4.49320
H          8.83750      -10.20080       -0.72090
H          4.22580       -5.13200       -7.04490
H          5.01630       -6.50700       -6.26160
H          6.30720       -3.79240       -6.82700
H          6.60850       -5.29410       -7.70870
H          7.11060       -5.14590       -6.02420
H         -0.58720        2.66680       -7.95970
H          0.64620        0.60710       -8.76580
H         -3.88900        6.67780       -0.91800
H         -3.32610        6.09800       -2.49160
H         -5.80230        6.16030       -2.38990
H         -5.79590        5.05180       -1.01950
H         -5.22690        4.50210       -2.60000
H          1.99970       -1.12530       -0.46440
H          3.09060       -2.38890       -1.03270
H          3.52390        0.61210       -1.46960
H          4.34340       -0.37710       -0.25040
H          4.62270       -0.67740       -1.96660
H         -1.14160        0.23640        0.09490
H          0.11240       -0.87160       -0.45810
H          0.43700        1.77350        1.07150
H          1.82370        0.90040        0.42220
H          0.81400        0.16480        1.67650
H         -4.42090        5.85420        0.94710
H         -2.70130        2.47190        5.95100
H         -5.95830        6.34180        6.21670
H         -4.79160        5.55090        9.33170
H         -7.26320        4.59050        9.07850
H         -6.42910        4.10960       11.52340
H         -4.72170        2.07630       11.43000
H         -4.50550        1.30420        8.92820
H         -7.06990        1.95770        8.88370
H         -6.28640        2.68080        7.46030
H         -3.11770        3.55770        9.23820
