
  xtb     02022208093D
 energy: -196.392186027927 gnorm: 0.000409950124 xtb: 6.4.1 (unknown)
110124  0     0  0            999 V2000
    5.8298   -6.4061   -3.5610 C   0  0  0  0  0  0  0  0  0  0  0  0
    6.3613   -6.9848   -2.4309 C   0  0  0  0  0  0  0  0  0  0  0  0
    6.2179   -6.4898   -1.0543 C   0  0  0  0  0  0  0  0  0  0  0  0
    5.5914   -5.5157   -0.6766 O   0  0  0  0  0  0  0  0  0  0  0  0
    6.9944   -7.4188   -0.2254 C   0  0  0  0  0  0  0  0  0  0  0  0
    7.5652   -8.4348   -1.0579 C   0  0  0  0  0  0  0  0  0  0  0  0
    8.3013   -9.3434   -0.3658 C   0  0  0  0  0  0  0  0  0  0  0  0
    8.3164   -8.9795    1.3233 S   0  0  0  0  0  0  0  0  0  0  0  0
    7.3065   -7.5703    1.0905 C   0  0  0  0  0  0  0  0  0  0  0  0
    6.8403   -6.5969    2.3978 Cl  0  0  0  0  0  0  0  0  0  0  0  0
    7.1748   -8.1844   -2.4339 C   0  0  0  0  0  0  0  0  0  0  0  0
    7.5287   -8.9856   -3.4915 C   0  0  0  0  0  0  0  0  0  0  0  0
    8.3242  -10.1338   -3.3031 C   0  0  0  0  0  0  0  0  0  0  0  0
    8.9703  -11.0732   -3.1699 N   0  0  0  0  0  0  0  0  0  0  0  0
    7.1647   -8.7942   -4.8371 C   0  0  0  0  0  0  0  0  0  0  0  0
    6.9010   -8.6962   -5.9518 N   0  0  0  0  0  0  0  0  0  0  0  0
    5.0114   -5.2881   -3.7262 C   0  0  0  0  0  0  0  0  0  0  0  0
    4.5743   -4.8399   -4.9879 C   0  0  0  0  0  0  0  0  0  0  0  0
    4.9760   -5.4175   -6.3051 C   0  0  0  0  0  0  0  0  0  0  0  0
    6.3400   -4.8762   -6.7427 C   0  0  0  0  0  0  0  0  0  0  0  0
    3.7457   -3.7342   -4.8721 C   0  0  0  0  0  0  0  0  0  0  0  0
    2.9113   -2.7523   -6.0634 S   0  0  0  0  0  0  0  0  0  0  0  0
    2.2583   -1.8047   -4.7755 C   0  0  0  0  0  0  0  0  0  0  0  0
    1.4327   -0.6853   -4.5985 C   0  0  0  0  0  0  0  0  0  0  0  0
    0.8609    0.1732   -5.5738 C   0  0  0  0  0  0  0  0  0  0  0  0
    0.1485    1.3117   -5.1230 C   0  0  0  0  0  0  0  0  0  0  0  0
   -0.3601    2.1956   -5.9886 N   0  0  0  0  0  0  0  0  0  0  0  0
   -0.1759    1.9456   -7.2670 C   0  0  0  0  0  0  0  0  0  0  0  0
    0.5096    0.8096   -7.7126 C   0  0  0  0  0  0  0  0  0  0  0  0
    1.0264   -0.0673   -6.8790 N   0  0  0  0  0  0  0  0  0  0  0  0
   -0.0539    1.4596   -3.7259 C   0  0  0  0  0  0  0  0  0  0  0  0
   -0.8358    2.3958   -3.0345 C   0  0  0  0  0  0  0  0  0  0  0  0
   -1.8201    3.7767   -3.3677 S   0  0  0  0  0  0  0  0  0  0  0  0
   -2.2430    3.8455   -1.6660 C   0  0  0  0  0  0  0  0  0  0  0  0
   -3.0618    4.6995   -0.9383 C   0  0  0  0  0  0  0  0  0  0  0  0
   -3.8386    5.8066   -1.5726 C   0  0  0  0  0  0  0  0  0  0  0  0
   -5.2582    5.3479   -1.9171 C   0  0  0  0  0  0  0  0  0  0  0  0
   -3.0965    4.3423    0.4207 C   0  0  0  0  0  0  0  0  0  0  0  0
   -2.0828    2.9405    0.7669 S   0  0  0  0  0  0  0  0  0  0  0  0
   -1.6374    2.8390   -0.8945 C   0  0  0  0  0  0  0  0  0  0  0  0
   -0.8273    2.0204   -1.6859 C   0  0  0  0  0  0  0  0  0  0  0  0
   -0.0547    0.9029   -1.5186 N   0  0  0  0  0  0  0  0  0  0  0  0
    0.4529    0.5501   -2.7508 C   0  0  0  0  0  0  0  0  0  0  0  0
    1.3173   -0.4805   -3.1928 C   0  0  0  0  0  0  0  0  0  0  0  0
    2.0854   -1.4291   -2.5407 N   0  0  0  0  0  0  0  0  0  0  0  0
    2.6590   -2.2239   -3.5016 C   0  0  0  0  0  0  0  0  0  0  0  0
    3.5192   -3.3229   -3.5447 C   0  0  0  0  0  0  0  0  0  0  0  0
    4.3707   -4.2998   -2.4104 S   0  0  0  0  0  0  0  0  0  0  0  0
    2.7147   -1.3832   -1.2379 C   0  0  0  0  0  0  0  0  0  0  0  0
    3.8753   -0.3903   -1.2307 C   0  0  0  0  0  0  0  0  0  0  0  0
   -0.1101    0.1796   -0.2690 C   0  0  0  0  0  0  0  0  0  0  0  0
    0.8065    0.7914    0.7892 C   0  0  0  0  0  0  0  0  0  0  0  0
   -3.8641    5.0287    1.3688 C   0  0  0  0  0  0  0  0  0  0  0  0
   -4.0198    4.8272    2.7175 C   0  0  0  0  0  0  0  0  0  0  0  0
   -3.3503    3.8048    3.5251 C   0  0  0  0  0  0  0  0  0  0  0  0
   -2.5691    2.9480    3.1434 O   0  0  0  0  0  0  0  0  0  0  0  0
   -3.7952    4.0123    4.9124 C   0  0  0  0  0  0  0  0  0  0  0  0
   -3.4019    3.2879    6.0356 C   0  0  0  0  0  0  0  0  0  0  0  0
   -3.9780    3.7174    7.2068 C   0  0  0  0  0  0  0  0  0  0  0  0
   -4.8776    4.7903    7.2570 C   0  0  0  0  0  0  0  0  0  0  0  0
   -5.2712    5.5148    6.1566 C   0  0  0  0  0  0  0  0  0  0  0  0
   -4.6987    5.0931    4.9527 C   0  0  0  0  0  0  0  0  0  0  0  0
   -4.8649    5.6129    3.5954 C   0  0  0  0  0  0  0  0  0  0  0  0
   -5.6891    6.6522    3.2437 C   0  0  0  0  0  0  0  0  0  0  0  0
   -6.5015    7.3699    4.1465 C   0  0  0  0  0  0  0  0  0  0  0  0
   -7.1922    7.9979    4.8153 N   0  0  0  0  0  0  0  0  0  0  0  0
   -5.8654    7.1643    1.9417 C   0  0  0  0  0  0  0  0  0  0  0  0
   -6.0708    7.6422    0.9165 N   0  0  0  0  0  0  0  0  0  0  0  0
   -5.0604    4.6715    8.7497 C   0  0  0  0  0  0  0  0  0  0  0  0
   -6.3634    4.0019    9.2350 C   0  0  0  0  0  0  0  0  0  0  0  0
   -6.0527    3.5967   10.6579 C   0  0  0  0  0  0  0  0  0  0  0  0
   -5.2001    2.5812   10.6113 C   0  0  0  0  0  0  0  0  0  0  0  0
   -4.9201    2.2826    9.1559 C   0  0  0  0  0  0  0  0  0  0  0  0
   -6.2844    2.6325    8.5477 C   0  0  0  0  0  0  0  0  0  0  0  0
   -4.0566    3.4754    8.6937 C   0  0  0  0  0  0  0  0  0  0  0  0
    6.0791   -6.8952   -4.4932 H   0  0  0  0  0  0  0  0  0  0  0  0
    8.8375  -10.2008   -0.7209 H   0  0  0  0  0  0  0  0  0  0  0  0
    4.2258   -5.1320   -7.0449 H   0  0  0  0  0  0  0  0  0  0  0  0
    5.0163   -6.5070   -6.2616 H   0  0  0  0  0  0  0  0  0  0  0  0
    6.3072   -3.7924   -6.8270 H   0  0  0  0  0  0  0  0  0  0  0  0
    6.6085   -5.2941   -7.7087 H   0  0  0  0  0  0  0  0  0  0  0  0
    7.1106   -5.1459   -6.0242 H   0  0  0  0  0  0  0  0  0  0  0  0
   -0.5872    2.6668   -7.9597 H   0  0  0  0  0  0  0  0  0  0  0  0
    0.6462    0.6071   -8.7658 H   0  0  0  0  0  0  0  0  0  0  0  0
   -3.8890    6.6778   -0.9180 H   0  0  0  0  0  0  0  0  0  0  0  0
   -3.3261    6.0980   -2.4916 H   0  0  0  0  0  0  0  0  0  0  0  0
   -5.8023    6.1603   -2.3899 H   0  0  0  0  0  0  0  0  0  0  0  0
   -5.7959    5.0518   -1.0195 H   0  0  0  0  0  0  0  0  0  0  0  0
   -5.2269    4.5021   -2.6000 H   0  0  0  0  0  0  0  0  0  0  0  0
    1.9997   -1.1253   -0.4644 H   0  0  0  0  0  0  0  0  0  0  0  0
    3.0906   -2.3889   -1.0327 H   0  0  0  0  0  0  0  0  0  0  0  0
    3.5239    0.6121   -1.4696 H   0  0  0  0  0  0  0  0  0  0  0  0
    4.3434   -0.3771   -0.2504 H   0  0  0  0  0  0  0  0  0  0  0  0
    4.6227   -0.6774   -1.9666 H   0  0  0  0  0  0  0  0  0  0  0  0
   -1.1416    0.2364    0.0949 H   0  0  0  0  0  0  0  0  0  0  0  0
    0.1124   -0.8716   -0.4581 H   0  0  0  0  0  0  0  0  0  0  0  0
    0.4370    1.7735    1.0715 H   0  0  0  0  0  0  0  0  0  0  0  0
    1.8237    0.9004    0.4222 H   0  0  0  0  0  0  0  0  0  0  0  0
    0.8140    0.1648    1.6765 H   0  0  0  0  0  0  0  0  0  0  0  0
   -4.4209    5.8542    0.9471 H   0  0  0  0  0  0  0  0  0  0  0  0
   -2.7013    2.4719    5.9510 H   0  0  0  0  0  0  0  0  0  0  0  0
   -5.9583    6.3418    6.2167 H   0  0  0  0  0  0  0  0  0  0  0  0
   -4.7916    5.5509    9.3317 H   0  0  0  0  0  0  0  0  0  0  0  0
   -7.2632    4.5905    9.0785 H   0  0  0  0  0  0  0  0  0  0  0  0
   -6.4291    4.1096   11.5234 H   0  0  0  0  0  0  0  0  0  0  0  0
   -4.7217    2.0763   11.4300 H   0  0  0  0  0  0  0  0  0  0  0  0
   -4.5055    1.3042    8.9282 H   0  0  0  0  0  0  0  0  0  0  0  0
   -7.0699    1.9577    8.8837 H   0  0  0  0  0  0  0  0  0  0  0  0
   -6.2864    2.6808    7.4603 H   0  0  0  0  0  0  0  0  0  0  0  0
   -3.1177    3.5577    9.2382 H   0  0  0  0  0  0  0  0  0  0  0  0
  1  2  2  0  0  0  0
  2  3  1  0  0  0  0
  3  4  2  0  0  0  0
  3  5  1  0  0  0  0
  5  6  1  0  0  0  0
  6  7  2  0  0  0  0
  7  8  1  0  0  0  0
  8  9  1  0  0  0  0
  9 10  1  0  0  0  0
  6 11  1  0  0  0  0
 11 12  2  0  0  0  0
 12 13  1  0  0  0  0
 13 14  3  0  0  0  0
 12 15  1  0  0  0  0
 15 16  3  0  0  0  0
  1 17  1  0  0  0  0
 17 18  2  0  0  0  0
 18 19  1  0  0  0  0
 19 20  1  0  0  0  0
 18 21  1  0  0  0  0
 21 22  1  0  0  0  0
 22 23  1  0  0  0  0
 23 24  1  0  0  0  0
 24 25  2  0  0  0  0
 25 26  1  0  0  0  0
 26 27  1  0  0  0  0
 27 28  2  0  0  0  0
 28 29  1  0  0  0  0
 29 30  2  0  0  0  0
 26 31  2  0  0  0  0
 31 32  1  0  0  0  0
 32 33  1  0  0  0  0
 33 34  1  0  0  0  0
 34 35  1  0  0  0  0
 35 36  1  0  0  0  0
 36 37  1  0  0  0  0
 35 38  2  0  0  0  0
 38 39  1  0  0  0  0
 39 40  1  0  0  0  0
 40 41  1  0  0  0  0
 41 42  1  0  0  0  0
 42 43  1  0  0  0  0
 43 44  2  0  0  0  0
 44 45  1  0  0  0  0
 45 46  1  0  0  0  0
 46 47  1  0  0  0  0
 47 48  1  0  0  0  0
 45 49  1  0  0  0  0
 49 50  1  0  0  0  0
 42 51  1  0  0  0  0
 51 52  1  0  0  0  0
 38 53  1  0  0  0  0
 53 54  2  0  0  0  0
 54 55  1  0  0  0  0
 55 56  2  0  0  0  0
 55 57  1  0  0  0  0
 57 58  2  0  0  0  0
 58 59  1  0  0  0  0
 59 60  2  0  0  0  0
 60 61  1  0  0  0  0
 61 62  2  0  0  0  0
 62 63  1  0  0  0  0
 63 64  2  0  0  0  0
 64 65  1  0  0  0  0
 65 66  3  0  0  0  0
 64 67  1  0  0  0  0
 67 68  3  0  0  0  0
 60 69  1  0  0  0  0
 69 70  1  0  0  0  0
 70 71  1  0  0  0  0
 71 72  2  0  0  0  0
 72 73  1  0  0  0  0
 73 74  1  0  0  0  0
 73 75  1  0  0  0  0
 11  2  1  0  0  0  0
 48 17  1  0  0  0  0
 63 54  1  0  0  0  0
 75 69  1  0  0  0  0
  9  5  2  0  0  0  0
 47 21  2  0  0  0  0
 62 57  1  0  0  0  0
 74 70  1  0  0  0  0
 46 23  2  0  0  0  0
 75 59  1  0  0  0  0
 44 24  1  0  0  0  0
 30 25  1  0  0  0  0
 43 31  1  0  0  0  0
 41 32  2  0  0  0  0
 40 34  2  0  0  0  0
  1 76  1  0  0  0  0
  7 77  1  0  0  0  0
 19 78  1  0  0  0  0
 19 79  1  0  0  0  0
 20 80  1  0  0  0  0
 20 81  1  0  0  0  0
 20 82  1  0  0  0  0
 28 83  1  0  0  0  0
 29 84  1  0  0  0  0
 36 85  1  0  0  0  0
 36 86  1  0  0  0  0
 37 87  1  0  0  0  0
 37 88  1  0  0  0  0
 37 89  1  0  0  0  0
 49 90  1  0  0  0  0
 49 91  1  0  0  0  0
 50 92  1  0  0  0  0
 50 93  1  0  0  0  0
 50 94  1  0  0  0  0
 51 95  1  0  0  0  0
 51 96  1  0  0  0  0
 52 97  1  0  0  0  0
 52 98  1  0  0  0  0
 52 99  1  0  0  0  0
 53100  1  0  0  0  0
 58101  1  0  0  0  0
 61102  1  0  0  0  0
 69103  1  0  0  0  0
 70104  1  0  0  0  0
 71105  1  0  0  0  0
 72106  1  0  0  0  0
 73107  1  0  0  0  0
 74108  1  0  0  0  0
 74109  1  0  0  0  0
 75110  1  0  0  0  0
M  END
