113

C         -5.85830        4.94910       -1.73030
C         -6.11890        4.41720       -2.97530
C         -5.36860        3.34760       -3.62970
O         -4.37230        2.77230       -3.22820
C         -6.06160        3.08730       -4.91010
C         -5.75830        2.15180       -5.87650
C         -6.57740        2.09990       -7.00030
C         -6.31330        1.06860       -8.06250
F         -6.66790        1.48120       -9.28810
F         -7.00260       -0.06780       -7.83540
F         -5.02280        0.71510       -8.13430
C         -7.66290        2.95770       -7.13780
C         -7.95870        3.89770       -6.16000
C         -7.15230        3.96370       -5.03460
C         -7.20530        4.81650       -3.84260
C         -8.13090        5.80730       -3.63010
C         -8.20730        6.63460       -2.49060
N         -8.34110        7.34440       -1.59680
C         -9.15150        6.14710       -4.54280
N        -10.00240        6.47830       -5.23840
C         -4.87100        4.64760       -0.79390
C         -4.80220        5.26740        0.47130
C         -5.76370        6.28090        0.99880
C         -7.00280        5.59980        1.58710
C         -3.74870        4.76880        1.22020
S         -3.18750        5.10550        2.84900
C         -1.93910        3.93000        2.63210
C         -0.87180        3.37010        3.35120
C         -0.29600        3.67820        4.60970
C          0.91300        2.99400        5.00800
N          1.41950        3.39240        6.15770
Se         0.39260        4.65880        6.82570
N         -0.71950        4.59180        5.45990
C          1.39700        1.93590        4.19790
C          2.43240        1.00150        4.37480
S          3.71990        0.66570        5.47750
C          4.14490       -0.73600        4.52360
C          5.15100       -1.70210        4.65430
C          6.13280       -1.71720        5.77880
C          5.51230       -2.35890        7.02250
C          5.11170       -2.61560        3.61330
S          3.79270       -2.28930        2.48660
C          3.31450       -0.91710        3.41170
C          2.33590        0.07510        3.32620
N          1.29500        0.40760        2.49670
C          0.73380        1.56520        2.99960
C         -0.29600        2.38930        2.49870
N         -0.93780        2.39930        1.27950
C         -1.95180        3.32160        1.36620
C         -2.98290        3.79230        0.55430
S         -3.58480        3.45670       -1.02270
C         -0.36690        2.05150       -0.00780
C          0.10840        3.29630       -0.75570
C          0.61970       -0.61450        1.72160
C          0.10430       -1.73790        2.62080
C          5.93200       -3.75810        3.43980
C          6.20050       -4.42740        2.28770
C          6.65330       -5.84440        2.32420
O          7.05280       -6.45120        3.29240
C          6.44820       -6.35130        0.95300
C          6.60400       -7.66130        0.50450
C          6.31990       -7.83560       -0.82880
C          5.91040       -6.78550       -1.66260
C          5.75930       -5.48730       -1.23800
C          6.04280       -5.29000        0.11520
C          6.03310       -4.05890        0.89810
C          6.13310       -2.78890        0.39170
C          6.04170       -2.46730       -0.97620
N          5.94520       -2.13950       -2.07260
C          6.42290       -1.66330        1.19100
N          6.71120       -0.73980        1.80910
C          5.78660       -7.68320       -2.86740
C          4.36480       -8.11990       -3.29910
C          3.50890       -8.08170       -2.05740
C          3.89520       -9.07550       -1.26860
C          5.01930       -9.80390       -1.96260
C          4.58700       -9.63520       -3.42810
C          6.24220       -8.85330       -1.93960
H         -6.53710        5.72400       -1.40150
H         -4.91380        1.49050       -5.75890
H         -8.28140        2.89330       -8.02000
H         -8.80510        4.55070       -6.29250
H         -6.06980        6.97760        0.21720
H         -5.26300        6.84800        1.78600
H         -7.68600        6.35080        1.97290
H         -7.52150        5.01980        0.82750
H         -6.71870        4.93460        2.39910
H          7.03200       -2.25900        5.48690
H          6.41100       -0.68670        6.00790
H          5.22390       -3.38790        6.81930
H          4.62920       -1.80590        7.33340
H          6.22900       -2.35470        7.83920
H         -1.12630        1.53230       -0.60080
H          0.49080        1.40010        0.14810
H          0.82560        3.84810       -0.15160
H         -0.72420        3.94970       -0.99880
H          0.59020        2.99590       -1.68170
H          1.32310       -1.01840        0.98660
H         -0.23100       -0.17100        1.20860
H         -0.55950       -1.33410        3.38240
H          0.92370       -2.25620        3.11050
H         -0.44790       -2.45620        2.02150
H          6.32330       -4.21050        4.34540
H          6.92480       -8.44270        1.17550
H          5.43890       -4.68580       -1.88360
H          6.41830       -7.42940       -3.71610
H          3.97560       -7.59460       -4.16710
H          2.77230       -7.32480       -1.86070
H          3.54590       -9.31460       -0.28120
H          5.22490      -10.81260       -1.61440
H          3.67170      -10.17670       -3.66220
H          5.36440       -9.90020       -4.14320
H          7.17050       -9.36570       -2.18420
