113

C         -3.96340        8.07700        0.47230
C         -5.19460        7.48060        0.43090
C         -6.33530        8.08990        1.15240
O         -6.38990        9.19660        1.63730
C         -7.36810        7.02470        1.20450
C         -8.58390        7.02980        1.85720
C         -9.36340        5.88090        1.77330
C        -10.70500        5.81210        2.44960
F        -10.95210        6.85780        3.24590
F        -10.82860        4.71100        3.21280
F        -11.71420        5.76110        1.56010
C         -8.93530        4.76720        1.05670
C         -7.71620        4.77160        0.39550
C         -6.92920        5.90940        0.46940
C         -5.63860        6.23390       -0.14090
C         -5.11460        5.62160       -1.25160
C         -5.61540        4.42930       -1.80710
N         -5.96570        3.44110       -2.27540
C         -4.06200        6.18250       -2.00500
N         -3.24690        6.64560       -2.66760
C         -2.69690        7.49670        0.28800
C         -1.49060        8.16660        0.09700
C         -1.33310        9.64570       -0.02910
C         -0.97590       10.25920        1.32710
C         -0.40970        7.28690        0.04450
Se         1.44910        7.55400       -0.19670
C          1.56270        5.70730       -0.03780
C          2.54370        4.70990       -0.02680
C          3.95010        4.82200       -0.05870
C          4.73700        3.63960        0.10660
N          6.03650        3.89040        0.11610
S          6.24870        5.48640       -0.07130
N          4.68780        5.91530       -0.16930
C          4.08000        2.39240        0.17230
C          4.60620        1.09710        0.18860
Se         6.26860        0.26340        0.23130
C          5.26410       -1.34210        0.09260
C          5.63670       -2.67940        0.04490
C          7.06710       -3.11000        0.05100
C          7.57880       -3.31270       -1.37710
C          4.52150       -3.52530       -0.06650
S          3.01110       -2.62080       -0.10510
C          3.87590       -1.13480        0.02540
C          3.51910        0.21800        0.08930
N          2.35120        0.93090        0.03360
C          2.66070        2.27370        0.10970
C          1.88010        3.46070        0.13390
N          0.52210        3.70780        0.25480
C          0.33280        5.06400        0.15900
C         -0.75620        5.93660        0.21370
S         -2.45660        5.75380        0.43080
C         -0.49660        2.91840        0.91240
C         -0.29630        2.92920        2.42670
C          1.12570        0.27440       -0.36300
C          0.44250       -0.43930        0.80300
C          4.62540       -4.92000       -0.13280
C          3.66000       -5.88920       -0.23480
C          2.21240       -5.67000       -0.29060
O          1.62040       -4.60260       -0.26560
C          1.59260       -7.00170       -0.37440
C          0.23110       -7.28980       -0.44320
C         -0.05240       -8.63250       -0.51340
C          0.94510       -9.61640       -0.50970
C          2.29110       -9.34550       -0.43800
C          2.60320       -7.98420       -0.37150
C          3.90240       -7.31790       -0.28940
C          5.11780       -7.95430       -0.27230
C          6.37880       -7.32700       -0.20170
N          7.44450       -6.89960       -0.14470
C          5.28980       -9.35340       -0.32840
N          5.51100      -10.47940       -0.36720
C         -0.05280      -10.74260       -0.61110
C         -0.21170      -11.39710       -1.99990
C         -1.54800      -12.09890       -1.91790
C         -2.49350      -11.16800       -1.92160
C         -1.81210       -9.82120       -2.00660
C         -0.59910      -10.19350       -2.86890
C         -1.16540       -9.64550       -0.61600
H         -3.96930        9.11460        0.79030
H         -8.90890        7.89680        2.41110
H         -9.56370        3.89020        1.01880
H         -7.39770        3.89910       -0.15130
H         -2.24500       10.09750       -0.41830
H         -0.52070        9.84260       -0.73460
H         -1.76660       10.07870        2.05180
H         -0.83640       11.33190        1.22510
H         -0.05250        9.82290        1.70430
H          7.20340       -4.03010        0.62080
H          7.65340       -2.31950        0.53050
H          8.62570       -3.60100       -1.35660
H          7.01640       -4.09590       -1.88000
H          7.47900       -2.39080       -1.94650
H         -1.46020        3.36980        0.66320
H         -0.50170        1.89930        0.54280
H         -1.07340        2.34200        2.90790
H          0.67480        2.51140        2.68580
H         -0.34420        3.94660        2.80810
H          0.47520        1.00800       -0.84230
H          1.38510       -0.47420       -1.11930
H          1.03280       -1.29870        1.10790
H         -0.53520       -0.79610        0.49170
H          0.32600        0.21570        1.66220
H          5.64720       -5.27100       -0.09230
H         -0.50330       -6.49960       -0.43800
H          3.04300      -10.11640       -0.43070
H         -0.03700      -11.46630        0.20140
H          0.63710      -11.99480       -2.32050
H         -1.66180      -13.16180       -1.81320
H         -3.55500      -11.29800       -1.82050
H         -2.42240       -8.98390       -2.33430
H         -0.88590      -10.48910       -3.87660
H          0.16390       -9.41880       -2.92030
H         -1.89250       -9.63700        0.19390
