
  xtb     02022216583D
 energy: -208.125685263767 gnorm: 0.000923435519 xtb: 6.4.1 (unknown)
113127  0     0  0            999 V2000
   -5.8583    4.9491   -1.7303 C   0  0  0  0  0  0  0  0  0  0  0  0
   -6.1189    4.4172   -2.9753 C   0  0  0  0  0  0  0  0  0  0  0  0
   -5.3686    3.3476   -3.6297 C   0  0  0  0  0  0  0  0  0  0  0  0
   -4.3723    2.7723   -3.2282 O   0  0  0  0  0  0  0  0  0  0  0  0
   -6.0616    3.0873   -4.9101 C   0  0  0  0  0  0  0  0  0  0  0  0
   -5.7583    2.1518   -5.8765 C   0  0  0  0  0  0  0  0  0  0  0  0
   -6.5774    2.0999   -7.0003 C   0  0  0  0  0  0  0  0  0  0  0  0
   -6.3133    1.0686   -8.0625 C   0  0  0  0  0  0  0  0  0  0  0  0
   -6.6679    1.4812   -9.2881 F   0  0  0  0  0  0  0  0  0  0  0  0
   -7.0026   -0.0678   -7.8354 F   0  0  0  0  0  0  0  0  0  0  0  0
   -5.0228    0.7151   -8.1343 F   0  0  0  0  0  0  0  0  0  0  0  0
   -7.6629    2.9577   -7.1378 C   0  0  0  0  0  0  0  0  0  0  0  0
   -7.9587    3.8977   -6.1600 C   0  0  0  0  0  0  0  0  0  0  0  0
   -7.1523    3.9637   -5.0346 C   0  0  0  0  0  0  0  0  0  0  0  0
   -7.2053    4.8165   -3.8426 C   0  0  0  0  0  0  0  0  0  0  0  0
   -8.1309    5.8073   -3.6301 C   0  0  0  0  0  0  0  0  0  0  0  0
   -8.2073    6.6346   -2.4906 C   0  0  0  0  0  0  0  0  0  0  0  0
   -8.3411    7.3444   -1.5968 N   0  0  0  0  0  0  0  0  0  0  0  0
   -9.1515    6.1471   -4.5428 C   0  0  0  0  0  0  0  0  0  0  0  0
  -10.0024    6.4783   -5.2384 N   0  0  0  0  0  0  0  0  0  0  0  0
   -4.8710    4.6476   -0.7939 C   0  0  0  0  0  0  0  0  0  0  0  0
   -4.8022    5.2674    0.4713 C   0  0  0  0  0  0  0  0  0  0  0  0
   -5.7637    6.2809    0.9988 C   0  0  0  0  0  0  0  0  0  0  0  0
   -7.0028    5.5998    1.5871 C   0  0  0  0  0  0  0  0  0  0  0  0
   -3.7487    4.7688    1.2202 C   0  0  0  0  0  0  0  0  0  0  0  0
   -3.1875    5.1055    2.8490 S   0  0  0  0  0  0  0  0  0  0  0  0
   -1.9391    3.9300    2.6321 C   0  0  0  0  0  0  0  0  0  0  0  0
   -0.8718    3.3701    3.3512 C   0  0  0  0  0  0  0  0  0  0  0  0
   -0.2960    3.6782    4.6097 C   0  0  0  0  0  0  0  0  0  0  0  0
    0.9130    2.9940    5.0080 C   0  0  0  0  0  0  0  0  0  0  0  0
    1.4195    3.3924    6.1577 N   0  0  0  0  0  0  0  0  0  0  0  0
    0.3926    4.6588    6.8257 Se  0  0  0  0  0  2  0  0  0  0  0  0
   -0.7195    4.5918    5.4599 N   0  0  0  0  0  0  0  0  0  0  0  0
    1.3970    1.9359    4.1979 C   0  0  0  0  0  0  0  0  0  0  0  0
    2.4324    1.0015    4.3748 C   0  0  0  0  0  0  0  0  0  0  0  0
    3.7199    0.6657    5.4775 S   0  0  0  0  0  0  0  0  0  0  0  0
    4.1449   -0.7360    4.5236 C   0  0  0  0  0  0  0  0  0  0  0  0
    5.1510   -1.7021    4.6543 C   0  0  0  0  0  0  0  0  0  0  0  0
    6.1328   -1.7172    5.7788 C   0  0  0  0  0  0  0  0  0  0  0  0
    5.5123   -2.3589    7.0225 C   0  0  0  0  0  0  0  0  0  0  0  0
    5.1117   -2.6156    3.6133 C   0  0  0  0  0  0  0  0  0  0  0  0
    3.7927   -2.2893    2.4866 S   0  0  0  0  0  0  0  0  0  0  0  0
    3.3145   -0.9171    3.4117 C   0  0  0  0  0  0  0  0  0  0  0  0
    2.3359    0.0751    3.3262 C   0  0  0  0  0  0  0  0  0  0  0  0
    1.2950    0.4076    2.4967 N   0  0  0  0  0  0  0  0  0  0  0  0
    0.7338    1.5652    2.9996 C   0  0  0  0  0  0  0  0  0  0  0  0
   -0.2960    2.3893    2.4987 C   0  0  0  0  0  0  0  0  0  0  0  0
   -0.9378    2.3993    1.2795 N   0  0  0  0  0  0  0  0  0  0  0  0
   -1.9518    3.3216    1.3662 C   0  0  0  0  0  0  0  0  0  0  0  0
   -2.9829    3.7923    0.5543 C   0  0  0  0  0  0  0  0  0  0  0  0
   -3.5848    3.4567   -1.0227 S   0  0  0  0  0  0  0  0  0  0  0  0
   -0.3669    2.0515   -0.0078 C   0  0  0  0  0  0  0  0  0  0  0  0
    0.1084    3.2963   -0.7557 C   0  0  0  0  0  0  0  0  0  0  0  0
    0.6197   -0.6145    1.7216 C   0  0  0  0  0  0  0  0  0  0  0  0
    0.1043   -1.7379    2.6208 C   0  0  0  0  0  0  0  0  0  0  0  0
    5.9320   -3.7581    3.4398 C   0  0  0  0  0  0  0  0  0  0  0  0
    6.2005   -4.4274    2.2877 C   0  0  0  0  0  0  0  0  0  0  0  0
    6.6533   -5.8444    2.3242 C   0  0  0  0  0  0  0  0  0  0  0  0
    7.0528   -6.4512    3.2924 O   0  0  0  0  0  0  0  0  0  0  0  0
    6.4482   -6.3513    0.9530 C   0  0  0  0  0  0  0  0  0  0  0  0
    6.6040   -7.6613    0.5045 C   0  0  0  0  0  0  0  0  0  0  0  0
    6.3199   -7.8356   -0.8288 C   0  0  0  0  0  0  0  0  0  0  0  0
    5.9104   -6.7855   -1.6626 C   0  0  0  0  0  0  0  0  0  0  0  0
    5.7593   -5.4873   -1.2380 C   0  0  0  0  0  0  0  0  0  0  0  0
    6.0428   -5.2900    0.1152 C   0  0  0  0  0  0  0  0  0  0  0  0
    6.0331   -4.0589    0.8981 C   0  0  0  0  0  0  0  0  0  0  0  0
    6.1331   -2.7889    0.3917 C   0  0  0  0  0  0  0  0  0  0  0  0
    6.0417   -2.4673   -0.9762 C   0  0  0  0  0  0  0  0  0  0  0  0
    5.9452   -2.1395   -2.0726 N   0  0  0  0  0  0  0  0  0  0  0  0
    6.4229   -1.6633    1.1910 C   0  0  0  0  0  0  0  0  0  0  0  0
    6.7112   -0.7398    1.8091 N   0  0  0  0  0  0  0  0  0  0  0  0
    5.7866   -7.6832   -2.8674 C   0  0  0  0  0  0  0  0  0  0  0  0
    4.3648   -8.1199   -3.2991 C   0  0  0  0  0  0  0  0  0  0  0  0
    3.5089   -8.0817   -2.0574 C   0  0  0  0  0  0  0  0  0  0  0  0
    3.8952   -9.0755   -1.2686 C   0  0  0  0  0  0  0  0  0  0  0  0
    5.0193   -9.8039   -1.9626 C   0  0  0  0  0  0  0  0  0  0  0  0
    4.5870   -9.6352   -3.4281 C   0  0  0  0  0  0  0  0  0  0  0  0
    6.2422   -8.8533   -1.9396 C   0  0  0  0  0  0  0  0  0  0  0  0
   -6.5371    5.7240   -1.4015 H   0  0  0  0  0  0  0  0  0  0  0  0
   -4.9138    1.4905   -5.7589 H   0  0  0  0  0  0  0  0  0  0  0  0
   -8.2814    2.8933   -8.0200 H   0  0  0  0  0  0  0  0  0  0  0  0
   -8.8051    4.5507   -6.2925 H   0  0  0  0  0  0  0  0  0  0  0  0
   -6.0698    6.9776    0.2172 H   0  0  0  0  0  0  0  0  0  0  0  0
   -5.2630    6.8480    1.7860 H   0  0  0  0  0  0  0  0  0  0  0  0
   -7.6860    6.3508    1.9729 H   0  0  0  0  0  0  0  0  0  0  0  0
   -7.5215    5.0198    0.8275 H   0  0  0  0  0  0  0  0  0  0  0  0
   -6.7187    4.9346    2.3991 H   0  0  0  0  0  0  0  0  0  0  0  0
    7.0320   -2.2590    5.4869 H   0  0  0  0  0  0  0  0  0  0  0  0
    6.4110   -0.6867    6.0079 H   0  0  0  0  0  0  0  0  0  0  0  0
    5.2239   -3.3879    6.8193 H   0  0  0  0  0  0  0  0  0  0  0  0
    4.6292   -1.8059    7.3334 H   0  0  0  0  0  0  0  0  0  0  0  0
    6.2290   -2.3547    7.8392 H   0  0  0  0  0  0  0  0  0  0  0  0
   -1.1263    1.5323   -0.6008 H   0  0  0  0  0  0  0  0  0  0  0  0
    0.4908    1.4001    0.1481 H   0  0  0  0  0  0  0  0  0  0  0  0
    0.8256    3.8481   -0.1516 H   0  0  0  0  0  0  0  0  0  0  0  0
   -0.7242    3.9497   -0.9988 H   0  0  0  0  0  0  0  0  0  0  0  0
    0.5902    2.9959   -1.6817 H   0  0  0  0  0  0  0  0  0  0  0  0
    1.3231   -1.0184    0.9866 H   0  0  0  0  0  0  0  0  0  0  0  0
   -0.2310   -0.1710    1.2086 H   0  0  0  0  0  0  0  0  0  0  0  0
   -0.5595   -1.3341    3.3824 H   0  0  0  0  0  0  0  0  0  0  0  0
    0.9237   -2.2562    3.1105 H   0  0  0  0  0  0  0  0  0  0  0  0
   -0.4479   -2.4562    2.0215 H   0  0  0  0  0  0  0  0  0  0  0  0
    6.3233   -4.2105    4.3454 H   0  0  0  0  0  0  0  0  0  0  0  0
    6.9248   -8.4427    1.1755 H   0  0  0  0  0  0  0  0  0  0  0  0
    5.4389   -4.6858   -1.8836 H   0  0  0  0  0  0  0  0  0  0  0  0
    6.4183   -7.4294   -3.7161 H   0  0  0  0  0  0  0  0  0  0  0  0
    3.9756   -7.5946   -4.1671 H   0  0  0  0  0  0  0  0  0  0  0  0
    2.7723   -7.3248   -1.8607 H   0  0  0  0  0  0  0  0  0  0  0  0
    3.5459   -9.3146   -0.2812 H   0  0  0  0  0  0  0  0  0  0  0  0
    5.2249  -10.8126   -1.6144 H   0  0  0  0  0  0  0  0  0  0  0  0
    3.6717  -10.1767   -3.6622 H   0  0  0  0  0  0  0  0  0  0  0  0
    5.3644   -9.9002   -4.1432 H   0  0  0  0  0  0  0  0  0  0  0  0
    7.1705   -9.3657   -2.1842 H   0  0  0  0  0  0  0  0  0  0  0  0
  1  2  2  0  0  0  0
  2  3  1  0  0  0  0
  3  4  2  0  0  0  0
  3  5  1  0  0  0  0
  5  6  2  0  0  0  0
  6  7  1  0  0  0  0
  7  8  1  0  0  0  0
  8  9  1  0  0  0  0
  8 10  1  0  0  0  0
  8 11  1  0  0  0  0
  7 12  2  0  0  0  0
 12 13  1  0  0  0  0
 13 14  2  0  0  0  0
 14 15  1  0  0  0  0
 15 16  2  0  0  0  0
 16 17  1  0  0  0  0
 17 18  3  0  0  0  0
 16 19  1  0  0  0  0
 19 20  3  0  0  0  0
  1 21  1  0  0  0  0
 21 22  2  0  0  0  0
 22 23  1  0  0  0  0
 23 24  1  0  0  0  0
 22 25  1  0  0  0  0
 25 26  1  0  0  0  0
 26 27  1  0  0  0  0
 27 28  1  0  0  0  0
 28 29  1  0  0  0  0
 29 30  1  0  0  0  0
 30 31  2  0  0  0  0
 31 32  1  0  0  0  0
 32 33  1  0  0  0  0
 30 34  1  0  0  0  0
 34 35  1  0  0  0  0
 35 36  1  0  0  0  0
 36 37  1  0  0  0  0
 37 38  1  0  0  0  0
 38 39  1  0  0  0  0
 39 40  1  0  0  0  0
 38 41  2  0  0  0  0
 41 42  1  0  0  0  0
 42 43  1  0  0  0  0
 43 44  1  0  0  0  0
 44 45  1  0  0  0  0
 45 46  1  0  0  0  0
 46 47  1  0  0  0  0
 47 48  1  0  0  0  0
 48 49  1  0  0  0  0
 49 50  1  0  0  0  0
 50 51  1  0  0  0  0
 48 52  1  0  0  0  0
 52 53  1  0  0  0  0
 45 54  1  0  0  0  0
 54 55  1  0  0  0  0
 41 56  1  0  0  0  0
 56 57  2  0  0  0  0
 57 58  1  0  0  0  0
 58 59  2  0  0  0  0
 58 60  1  0  0  0  0
 60 61  2  0  0  0  0
 61 62  1  0  0  0  0
 62 63  2  0  0  0  0
 63 64  1  0  0  0  0
 64 65  2  0  0  0  0
 65 66  1  0  0  0  0
 66 67  2  0  0  0  0
 67 68  1  0  0  0  0
 68 69  3  0  0  0  0
 67 70  1  0  0  0  0
 70 71  3  0  0  0  0
 63 72  1  0  0  0  0
 72 73  1  0  0  0  0
 73 74  1  0  0  0  0
 74 75  2  0  0  0  0
 75 76  1  0  0  0  0
 76 77  1  0  0  0  0
 76 78  1  0  0  0  0
 15  2  1  0  0  0  0
 51 21  1  0  0  0  0
 66 57  1  0  0  0  0
 78 72  1  0  0  0  0
 14  5  1  0  0  0  0
 50 25  2  0  0  0  0
 65 60  1  0  0  0  0
 77 73  1  0  0  0  0
 49 27  2  0  0  0  0
 78 62  1  0  0  0  0
 47 28  2  0  0  0  0
 33 29  2  0  0  0  0
 46 34  2  0  0  0  0
 44 35  2  0  0  0  0
 43 37  2  0  0  0  0
  1 79  1  0  0  0  0
  6 80  1  0  0  0  0
 12 81  1  0  0  0  0
 13 82  1  0  0  0  0
 23 83  1  0  0  0  0
 23 84  1  0  0  0  0
 24 85  1  0  0  0  0
 24 86  1  0  0  0  0
 24 87  1  0  0  0  0
 39 88  1  0  0  0  0
 39 89  1  0  0  0  0
 40 90  1  0  0  0  0
 40 91  1  0  0  0  0
 40 92  1  0  0  0  0
 52 93  1  0  0  0  0
 52 94  1  0  0  0  0
 53 95  1  0  0  0  0
 53 96  1  0  0  0  0
 53 97  1  0  0  0  0
 54 98  1  0  0  0  0
 54 99  1  0  0  0  0
 55100  1  0  0  0  0
 55101  1  0  0  0  0
 55102  1  0  0  0  0
 56103  1  0  0  0  0
 61104  1  0  0  0  0
 64105  1  0  0  0  0
 72106  1  0  0  0  0
 73107  1  0  0  0  0
 74108  1  0  0  0  0
 75109  1  0  0  0  0
 76110  1  0  0  0  0
 77111  1  0  0  0  0
 77112  1  0  0  0  0
 78113  1  0  0  0  0
M  END
