120

C          3.96140       -1.82750       -7.75210
C          5.07600       -2.57340       -7.44750
C          5.84390       -2.48740       -6.20280
O          5.75200       -1.65230       -5.32260
C          6.77560       -3.63460       -6.21920
C          7.65050       -4.04380       -5.23500
C          8.40160       -5.18960       -5.47910
C          9.32550       -5.70310       -4.40870
F          8.68310       -6.52140       -3.55110
F          9.85220       -4.72080       -3.66490
F         10.35360       -6.40870       -4.89970
C          8.27320       -5.89160       -6.67230
C          7.39460       -5.46750       -7.66010
C          6.63480       -4.33070       -7.43150
C          5.61410       -3.65870       -8.24200
C          5.26760       -4.01150       -9.52000
C          5.84610       -5.08600      -10.22890
N          6.27260       -5.94590      -10.85820
C          4.30790       -3.35490      -10.31960
N          3.54680       -2.87460      -11.03300
C          3.28450       -0.86700       -6.99120
C          2.02430       -0.38460       -7.36600
C          1.46580        0.43090       -6.40440
S         -0.10750        1.16660       -6.20240
C          0.34340        1.67700       -4.59910
C         -0.33740        2.20270       -3.50400
C         -1.75230        2.57470       -3.13720
C         -2.07040        3.88720       -3.83500
C         -2.11480        5.09340       -3.15210
C         -2.37370        6.27030       -3.83520
C         -2.58210        6.25330       -5.20260
C         -2.52950        5.05150       -5.88970
C         -2.27340        3.87550       -5.21050
C         -2.77000        1.50050       -3.46830
C         -2.40050        0.16280       -3.50700
C         -3.34080       -0.81640       -3.77360
C         -4.66320       -0.47130       -3.99040
C         -5.04190        0.85890       -3.93150
C         -4.10210        1.83940       -3.66980
C         -1.62780        2.69910       -1.62550
C         -0.27250        2.61770       -1.22830
C          0.48970        2.31350       -2.39640
S          2.11460        1.79220       -2.66320
C          1.67770        1.35720       -4.28490
C          2.31070        0.63330       -5.29410
S          3.79620       -0.21780       -5.43390
C          0.11090        2.65370        0.10890
C         -0.89470        2.64730        1.04470
C         -0.76360        2.52630        2.55220
C          0.09020        1.37410        3.04410
C          0.36600        0.27610        2.24190
C          1.09460       -0.78820        2.74490
C          1.53700       -0.77460        4.05610
C          1.24570        0.30910        4.86670
C          0.52630        1.37720        4.36410
C         -0.25620        3.86570        3.06620
C          1.10420        4.14440        3.01390
C          1.58430        5.37020        3.43610
C          0.71130        6.33390        3.91240
C         -0.64440        6.06320        3.96240
C         -1.12710        4.83710        3.53810
C         -2.19250        2.25120        2.92770
C         -3.02720        2.39900        1.83160
C         -2.25640        2.65180        0.65260
C         -2.63390        2.72620       -0.68760
S         -4.68450        2.00470        2.15420
C         -4.23360        1.53370        3.77510
C         -4.89400        0.90370        4.81090
C         -4.03400        0.56920        5.86230
S         -2.38970        1.13030        5.57160
C         -2.86110        1.73990        4.03580
C         -4.45960       -0.22170        6.93960
C         -3.73260       -0.83110        7.93160
C         -2.27910       -0.74120        8.11220
O         -1.49730       -0.00460        7.53990
C         -1.93710       -1.73150        9.15310
C         -0.68940       -2.07380        9.63050
C         -0.62550       -3.06150       10.60680
Cl         0.90680       -3.53660       11.23380
C         -1.77820       -3.67600       11.08340
C         -3.02830       -3.32050       10.59940
C         -3.11450       -2.33830        9.62310
C         -4.25600       -1.76590        8.91130
C         -5.57000       -2.07120        9.15360
C         -6.68280       -1.50850        8.49390
N         -7.64130       -1.09930        8.01060
C         -5.99840       -2.99880       10.12690
N         -6.41490       -3.74170       10.89660
H          3.46710       -2.05150       -8.68990
H          7.74070       -3.49180       -4.31210
H          8.86670       -6.77880       -6.83240
H          7.31300       -6.03160       -8.57410
H          1.54600       -0.66800       -8.28610
H         -1.95030        5.11810       -2.08490
H         -2.41110        7.20340       -3.29280
H         -2.78360        7.17230       -5.73230
H         -2.68770        5.02920       -6.95750
H         -2.23760        2.93810       -5.74700
H         -1.37310       -0.11910       -3.32680
H         -3.03780       -1.85240       -3.80980
H         -5.39620       -1.23570       -4.20010
H         -6.07340        1.13620       -4.09050
H         -4.40360        2.87620       -3.62970
H          1.15240        2.60390        0.38510
H          0.01140        0.24770        1.22170
H          1.31150       -1.63340        2.10820
H          2.10210       -1.60840        4.44520
H          1.57080        0.32420        5.89540
H          0.30280        2.22050        5.00050
H          1.79140        3.39240        2.65520
H          2.64420        5.57310        3.39390
H          1.08660        7.29040        4.24390
H         -1.33290        6.80790        4.33360
H         -2.18800        4.63910        3.58140
H         -3.67550        2.73470       -0.97050
H         -5.93750        0.64450        4.81050
H         -5.52310       -0.42810        6.91890
H          0.19750       -1.59150        9.25140
H         -1.69530       -4.44150       11.83880
H         -3.90450       -3.81550       10.98430
