137

C          0.55270        3.06490        5.36490
C          1.53120        4.03040        5.29830
C          2.34810        4.34170        4.12390
O          2.30300        3.83210        3.01840
C          3.25810        5.43040        4.53440
C          4.22930        6.06160        3.78660
C          4.96910        7.06250        4.40820
C          6.01990        7.79590        3.62050
F          5.51290        8.87800        2.99790
F          7.02800        8.24000        4.38350
F          6.56850        7.03560        2.66150
C          4.72710        7.41780        5.73050
C          3.74600        6.77620        6.47470
C          3.00420        5.77140        5.87310
C          1.92590        4.91400        6.37720
C          1.41590        4.96620        7.64810
C          1.85890        5.86360        8.64370
N          2.16870        6.56310        9.49930
C          0.38450        4.15030        8.16070
N         -0.44040        3.52740        8.66130
C          0.11830        2.14880        4.40000
C         -0.88480        1.20670        4.65660
C         -1.13970        0.37310        3.57740
O         -2.08320       -0.57870        3.54060
C         -1.90020       -1.64410        2.57740
C         -3.28220       -2.23130        2.33970
C         -4.38050       -1.38600        2.26870
C         -5.64090       -1.89750        2.02480
C         -5.83310       -3.25960        1.83360
C         -7.19570       -3.80680        1.52270
C         -7.44240       -3.79900        0.01250
C         -4.72690       -4.09730        1.89040
C         -3.46440       -3.59360        2.14350
C         -0.97250       -2.66650        3.22800
C         -1.30330       -3.10880        4.50430
C         -0.50550       -4.02690        5.15650
C          0.64030       -4.53020        4.55130
C          1.52480       -5.50390        5.27440
C          2.56970       -4.75960        6.10850
C          0.96990       -4.07640        3.28200
C          0.17690       -3.15220        2.62390
C         -1.33140       -1.15480        1.25850
C         -0.51820       -0.00670        1.24160
C         -0.34330        0.68690        2.47320
S          0.73410        1.98670        2.76910
C          0.05770        0.44110        0.04970
C         -0.13240       -0.25590       -1.11860
C         -0.90210       -1.43740       -1.09620
C         -1.51170       -1.86140        0.08780
C         -0.91210       -2.19490       -2.30580
S         -1.82870       -3.60000       -2.65660
C         -0.93950       -3.85650       -4.15440
C          0.00940       -2.86190       -4.34280
C          0.01810       -1.92260       -3.31420
O          0.86920       -0.88740       -3.24440
C          0.40120        0.22590       -2.45580
C         -0.70220        0.92280       -3.24630
C         -0.51140        1.10860       -4.60990
C         -1.47880        1.73170       -5.37310
C         -2.65670        2.18890       -4.79480
C         -3.68230        2.91520       -5.61550
C         -3.37020        4.41310       -5.64960
C         -2.83760        2.00540       -3.43070
C         -1.87540        1.37650       -2.66090
C          1.57900        1.15380       -2.22610
C          1.38010        2.52150       -2.08570
C          2.43290        3.34570       -1.73690
C          3.70540        2.83020       -1.52770
C          4.81980        3.71780       -1.05700
C          4.89730        3.69780        0.47210
C          3.90220        1.46630       -1.70190
C          2.85170        0.63360       -2.04010
C         -1.32410       -4.98300       -4.90070
C         -0.83640       -5.52500       -6.06380
C          0.30420       -5.06600       -6.88400
O          1.01350       -4.09310       -6.74150
C          0.43830       -6.06200       -7.96980
C          1.37200       -6.09270       -8.98400
C          1.31610       -7.13800       -9.89620
Br         2.58160       -7.21310      -11.29790
C          0.33380       -8.12260       -9.77660
Br         0.26410       -9.54670      -11.01880
C         -0.60780       -8.08520       -8.75420
C         -0.55590       -7.04450       -7.84080
C         -1.38040       -6.72670       -6.67540
C         -2.47480       -7.45230       -6.28040
C         -3.32200       -7.17710       -5.18530
N         -4.07050       -7.03870       -4.32480
C         -2.93290       -8.61120       -6.94460
N         -3.35600       -9.55900       -7.43440
H          0.02340        2.97200        6.30530
H          4.40730        5.77700        2.76120
H          5.31570        8.19930        6.18630
H          3.58230        7.06970        7.49800
H         -1.39870        1.14470        5.59830
H         -4.24670       -0.32530        2.41880
H         -6.48830       -1.22830        1.98280
H         -7.95890       -3.20120        2.01550
H         -7.27730       -4.82970        1.89480
H         -7.37800       -2.78530       -0.37660
H         -6.69950       -4.40860       -0.49650
H         -8.42960       -4.19520       -0.21200
H         -4.85420       -5.15950        1.74010
H         -2.61910       -4.26460        2.19410
H         -2.19540       -2.72540        4.97690
H         -0.77880       -4.36430        6.14570
H          0.92170       -6.13280        5.93200
H          2.03200       -6.14880        4.55420
H          3.19060       -4.13610        5.46900
H          3.20940       -5.46530        6.63290
H          2.08350       -4.12000        6.84170
H          1.85920       -4.45140        2.79580
H          0.45970       -2.82060        1.63550
H          0.64810        1.34390        0.06990
H         -2.10200       -2.76550        0.07490
H          0.66790       -2.82710       -5.19030
H          0.40220        0.75760       -5.06670
H         -1.31710        1.86620       -6.43280
H         -3.68460        2.52500       -6.63520
H         -4.67540        2.76330       -5.18810
H         -4.11010        4.94180       -6.24570
H         -2.38730        4.58520       -6.08250
H         -3.37690        4.82420       -4.64240
H         -3.74580        2.35550       -2.96120
H         -2.04220        1.24710       -1.60130
H          0.39590        2.94090       -2.23480
H          2.26000        4.40510       -1.61570
H          5.77120        3.37760       -1.47060
H          4.64590        4.74080       -1.39550
H          3.94080        3.98260        0.90530
H          5.66750        4.38380        0.81900
H          5.13940        2.69830        0.82610
H          4.88770        1.04770       -1.55700
H          3.01460       -0.42680       -2.15900
H         -2.15160       -5.51590       -4.44820
H          2.12530       -5.32400       -9.06210
H         -1.34820       -8.86600       -8.69770
