
  xtb     02012215533D
 energy: -241.270447789444 gnorm: 0.000710818206 xtb: 6.4.1 (unknown)
137149  0     0  0            999 V2000
    0.5527    3.0649    5.3649 C   0  0  0  0  0  0  0  0  0  0  0  0
    1.5312    4.0304    5.2983 C   0  0  0  0  0  0  0  0  0  0  0  0
    2.3481    4.3417    4.1239 C   0  0  0  0  0  0  0  0  0  0  0  0
    2.3030    3.8321    3.0184 O   0  0  0  0  0  0  0  0  0  0  0  0
    3.2581    5.4304    4.5344 C   0  0  0  0  0  0  0  0  0  0  0  0
    4.2293    6.0616    3.7866 C   0  0  0  0  0  0  0  0  0  0  0  0
    4.9691    7.0625    4.4082 C   0  0  0  0  0  0  0  0  0  0  0  0
    6.0199    7.7959    3.6205 C   0  0  0  0  0  0  0  0  0  0  0  0
    5.5129    8.8780    2.9979 F   0  0  0  0  0  0  0  0  0  0  0  0
    7.0280    8.2400    4.3835 F   0  0  0  0  0  0  0  0  0  0  0  0
    6.5685    7.0356    2.6615 F   0  0  0  0  0  0  0  0  0  0  0  0
    4.7271    7.4178    5.7305 C   0  0  0  0  0  0  0  0  0  0  0  0
    3.7460    6.7762    6.4747 C   0  0  0  0  0  0  0  0  0  0  0  0
    3.0042    5.7714    5.8731 C   0  0  0  0  0  0  0  0  0  0  0  0
    1.9259    4.9140    6.3772 C   0  0  0  0  0  0  0  0  0  0  0  0
    1.4159    4.9662    7.6481 C   0  0  0  0  0  0  0  0  0  0  0  0
    1.8589    5.8636    8.6437 C   0  0  0  0  0  0  0  0  0  0  0  0
    2.1687    6.5631    9.4993 N   0  0  0  0  0  0  0  0  0  0  0  0
    0.3845    4.1503    8.1607 C   0  0  0  0  0  0  0  0  0  0  0  0
   -0.4404    3.5274    8.6613 N   0  0  0  0  0  0  0  0  0  0  0  0
    0.1183    2.1488    4.4000 C   0  0  0  0  0  0  0  0  0  0  0  0
   -0.8848    1.2067    4.6566 C   0  0  0  0  0  0  0  0  0  0  0  0
   -1.1397    0.3731    3.5774 C   0  0  0  0  0  0  0  0  0  0  0  0
   -2.0832   -0.5787    3.5406 O   0  0  0  0  0  0  0  0  0  0  0  0
   -1.9002   -1.6441    2.5774 C   0  0  0  0  0  0  0  0  0  0  0  0
   -3.2822   -2.2313    2.3397 C   0  0  0  0  0  0  0  0  0  0  0  0
   -4.3805   -1.3860    2.2687 C   0  0  0  0  0  0  0  0  0  0  0  0
   -5.6409   -1.8975    2.0248 C   0  0  0  0  0  0  0  0  0  0  0  0
   -5.8331   -3.2596    1.8336 C   0  0  0  0  0  0  0  0  0  0  0  0
   -7.1957   -3.8068    1.5227 C   0  0  0  0  0  0  0  0  0  0  0  0
   -7.4424   -3.7990    0.0125 C   0  0  0  0  0  0  0  0  0  0  0  0
   -4.7269   -4.0973    1.8904 C   0  0  0  0  0  0  0  0  0  0  0  0
   -3.4644   -3.5936    2.1435 C   0  0  0  0  0  0  0  0  0  0  0  0
   -0.9725   -2.6665    3.2280 C   0  0  0  0  0  0  0  0  0  0  0  0
   -1.3033   -3.1088    4.5043 C   0  0  0  0  0  0  0  0  0  0  0  0
   -0.5055   -4.0269    5.1565 C   0  0  0  0  0  0  0  0  0  0  0  0
    0.6403   -4.5302    4.5513 C   0  0  0  0  0  0  0  0  0  0  0  0
    1.5248   -5.5039    5.2744 C   0  0  0  0  0  0  0  0  0  0  0  0
    2.5697   -4.7596    6.1085 C   0  0  0  0  0  0  0  0  0  0  0  0
    0.9699   -4.0764    3.2820 C   0  0  0  0  0  0  0  0  0  0  0  0
    0.1769   -3.1522    2.6239 C   0  0  0  0  0  0  0  0  0  0  0  0
   -1.3314   -1.1548    1.2585 C   0  0  0  0  0  0  0  0  0  0  0  0
   -0.5182   -0.0067    1.2416 C   0  0  0  0  0  0  0  0  0  0  0  0
   -0.3433    0.6869    2.4732 C   0  0  0  0  0  0  0  0  0  0  0  0
    0.7341    1.9867    2.7691 S   0  0  0  0  0  0  0  0  0  0  0  0
    0.0577    0.4411    0.0497 C   0  0  0  0  0  0  0  0  0  0  0  0
   -0.1324   -0.2559   -1.1186 C   0  0  0  0  0  0  0  0  0  0  0  0
   -0.9021   -1.4374   -1.0962 C   0  0  0  0  0  0  0  0  0  0  0  0
   -1.5117   -1.8614    0.0878 C   0  0  0  0  0  0  0  0  0  0  0  0
   -0.9121   -2.1949   -2.3058 C   0  0  0  0  0  0  0  0  0  0  0  0
   -1.8287   -3.6000   -2.6566 S   0  0  0  0  0  0  0  0  0  0  0  0
   -0.9395   -3.8565   -4.1544 C   0  0  0  0  0  0  0  0  0  0  0  0
    0.0094   -2.8619   -4.3428 C   0  0  0  0  0  0  0  0  0  0  0  0
    0.0181   -1.9226   -3.3142 C   0  0  0  0  0  0  0  0  0  0  0  0
    0.8692   -0.8874   -3.2444 O   0  0  0  0  0  0  0  0  0  0  0  0
    0.4012    0.2259   -2.4558 C   0  0  0  0  0  0  0  0  0  0  0  0
   -0.7022    0.9228   -3.2463 C   0  0  0  0  0  0  0  0  0  0  0  0
   -0.5114    1.1086   -4.6099 C   0  0  0  0  0  0  0  0  0  0  0  0
   -1.4788    1.7317   -5.3731 C   0  0  0  0  0  0  0  0  0  0  0  0
   -2.6567    2.1889   -4.7948 C   0  0  0  0  0  0  0  0  0  0  0  0
   -3.6823    2.9152   -5.6155 C   0  0  0  0  0  0  0  0  0  0  0  0
   -3.3702    4.4131   -5.6496 C   0  0  0  0  0  0  0  0  0  0  0  0
   -2.8376    2.0054   -3.4307 C   0  0  0  0  0  0  0  0  0  0  0  0
   -1.8754    1.3765   -2.6609 C   0  0  0  0  0  0  0  0  0  0  0  0
    1.5790    1.1538   -2.2261 C   0  0  0  0  0  0  0  0  0  0  0  0
    1.3801    2.5215   -2.0857 C   0  0  0  0  0  0  0  0  0  0  0  0
    2.4329    3.3457   -1.7369 C   0  0  0  0  0  0  0  0  0  0  0  0
    3.7054    2.8302   -1.5277 C   0  0  0  0  0  0  0  0  0  0  0  0
    4.8198    3.7178   -1.0570 C   0  0  0  0  0  0  0  0  0  0  0  0
    4.8973    3.6978    0.4721 C   0  0  0  0  0  0  0  0  0  0  0  0
    3.9022    1.4663   -1.7019 C   0  0  0  0  0  0  0  0  0  0  0  0
    2.8517    0.6336   -2.0401 C   0  0  0  0  0  0  0  0  0  0  0  0
   -1.3241   -4.9830   -4.9007 C   0  0  0  0  0  0  0  0  0  0  0  0
   -0.8364   -5.5250   -6.0638 C   0  0  0  0  0  0  0  0  0  0  0  0
    0.3042   -5.0660   -6.8840 C   0  0  0  0  0  0  0  0  0  0  0  0
    1.0135   -4.0931   -6.7415 O   0  0  0  0  0  0  0  0  0  0  0  0
    0.4383   -6.0620   -7.9698 C   0  0  0  0  0  0  0  0  0  0  0  0
    1.3720   -6.0927   -8.9840 C   0  0  0  0  0  0  0  0  0  0  0  0
    1.3161   -7.1380   -9.8962 C   0  0  0  0  0  0  0  0  0  0  0  0
    2.5816   -7.2131  -11.2979 Br  0  0  0  0  0  0  0  0  0  0  0  0
    0.3338   -8.1226   -9.7766 C   0  0  0  0  0  0  0  0  0  0  0  0
    0.2641   -9.5467  -11.0188 Br  0  0  0  0  0  0  0  0  0  0  0  0
   -0.6078   -8.0852   -8.7542 C   0  0  0  0  0  0  0  0  0  0  0  0
   -0.5559   -7.0445   -7.8408 C   0  0  0  0  0  0  0  0  0  0  0  0
   -1.3804   -6.7267   -6.6754 C   0  0  0  0  0  0  0  0  0  0  0  0
   -2.4748   -7.4523   -6.2804 C   0  0  0  0  0  0  0  0  0  0  0  0
   -3.3220   -7.1771   -5.1853 C   0  0  0  0  0  0  0  0  0  0  0  0
   -4.0705   -7.0387   -4.3248 N   0  0  0  0  0  0  0  0  0  0  0  0
   -2.9329   -8.6112   -6.9446 C   0  0  0  0  0  0  0  0  0  0  0  0
   -3.3560   -9.5590   -7.4344 N   0  0  0  0  0  0  0  0  0  0  0  0
    0.0234    2.9720    6.3053 H   0  0  0  0  0  0  0  0  0  0  0  0
    4.4073    5.7770    2.7612 H   0  0  0  0  0  0  0  0  0  0  0  0
    5.3157    8.1993    6.1863 H   0  0  0  0  0  0  0  0  0  0  0  0
    3.5823    7.0697    7.4980 H   0  0  0  0  0  0  0  0  0  0  0  0
   -1.3987    1.1447    5.5983 H   0  0  0  0  0  0  0  0  0  0  0  0
   -4.2467   -0.3253    2.4188 H   0  0  0  0  0  0  0  0  0  0  0  0
   -6.4883   -1.2283    1.9828 H   0  0  0  0  0  0  0  0  0  0  0  0
   -7.9589   -3.2012    2.0155 H   0  0  0  0  0  0  0  0  0  0  0  0
   -7.2773   -4.8297    1.8948 H   0  0  0  0  0  0  0  0  0  0  0  0
   -7.3780   -2.7853   -0.3766 H   0  0  0  0  0  0  0  0  0  0  0  0
   -6.6995   -4.4086   -0.4965 H   0  0  0  0  0  0  0  0  0  0  0  0
   -8.4296   -4.1952   -0.2120 H   0  0  0  0  0  0  0  0  0  0  0  0
   -4.8542   -5.1595    1.7401 H   0  0  0  0  0  0  0  0  0  0  0  0
   -2.6191   -4.2646    2.1941 H   0  0  0  0  0  0  0  0  0  0  0  0
   -2.1954   -2.7254    4.9769 H   0  0  0  0  0  0  0  0  0  0  0  0
   -0.7788   -4.3643    6.1457 H   0  0  0  0  0  0  0  0  0  0  0  0
    0.9217   -6.1328    5.9320 H   0  0  0  0  0  0  0  0  0  0  0  0
    2.0320   -6.1488    4.5542 H   0  0  0  0  0  0  0  0  0  0  0  0
    3.1906   -4.1361    5.4690 H   0  0  0  0  0  0  0  0  0  0  0  0
    3.2094   -5.4653    6.6329 H   0  0  0  0  0  0  0  0  0  0  0  0
    2.0835   -4.1200    6.8417 H   0  0  0  0  0  0  0  0  0  0  0  0
    1.8592   -4.4514    2.7958 H   0  0  0  0  0  0  0  0  0  0  0  0
    0.4597   -2.8206    1.6355 H   0  0  0  0  0  0  0  0  0  0  0  0
    0.6481    1.3439    0.0699 H   0  0  0  0  0  0  0  0  0  0  0  0
   -2.1020   -2.7655    0.0749 H   0  0  0  0  0  0  0  0  0  0  0  0
    0.6679   -2.8271   -5.1903 H   0  0  0  0  0  0  0  0  0  0  0  0
    0.4022    0.7576   -5.0667 H   0  0  0  0  0  0  0  0  0  0  0  0
   -1.3171    1.8662   -6.4328 H   0  0  0  0  0  0  0  0  0  0  0  0
   -3.6846    2.5250   -6.6352 H   0  0  0  0  0  0  0  0  0  0  0  0
   -4.6754    2.7633   -5.1881 H   0  0  0  0  0  0  0  0  0  0  0  0
   -4.1101    4.9418   -6.2457 H   0  0  0  0  0  0  0  0  0  0  0  0
   -2.3873    4.5852   -6.0825 H   0  0  0  0  0  0  0  0  0  0  0  0
   -3.3769    4.8242   -4.6424 H   0  0  0  0  0  0  0  0  0  0  0  0
   -3.7458    2.3555   -2.9612 H   0  0  0  0  0  0  0  0  0  0  0  0
   -2.0422    1.2471   -1.6013 H   0  0  0  0  0  0  0  0  0  0  0  0
    0.3959    2.9409   -2.2348 H   0  0  0  0  0  0  0  0  0  0  0  0
    2.2600    4.4051   -1.6157 H   0  0  0  0  0  0  0  0  0  0  0  0
    5.7712    3.3776   -1.4706 H   0  0  0  0  0  0  0  0  0  0  0  0
    4.6459    4.7408   -1.3955 H   0  0  0  0  0  0  0  0  0  0  0  0
    3.9408    3.9826    0.9053 H   0  0  0  0  0  0  0  0  0  0  0  0
    5.6675    4.3838    0.8190 H   0  0  0  0  0  0  0  0  0  0  0  0
    5.1394    2.6983    0.8261 H   0  0  0  0  0  0  0  0  0  0  0  0
    4.8877    1.0477   -1.5570 H   0  0  0  0  0  0  0  0  0  0  0  0
    3.0146   -0.4268   -2.1590 H   0  0  0  0  0  0  0  0  0  0  0  0
   -2.1516   -5.5159   -4.4482 H   0  0  0  0  0  0  0  0  0  0  0  0
    2.1253   -5.3240   -9.0621 H   0  0  0  0  0  0  0  0  0  0  0  0
   -1.3482   -8.8660   -8.6977 H   0  0  0  0  0  0  0  0  0  0  0  0
  1  2  2  0  0  0  0
  2  3  1  0  0  0  0
  3  4  2  0  0  0  0
  3  5  1  0  0  0  0
  5  6  2  0  0  0  0
  6  7  1  0  0  0  0
  7  8  1  0  0  0  0
  8  9  1  0  0  0  0
  8 10  1  0  0  0  0
  8 11  1  0  0  0  0
  7 12  2  0  0  0  0
 12 13  1  0  0  0  0
 13 14  2  0  0  0  0
 14 15  1  0  0  0  0
 15 16  2  0  0  0  0
 16 17  1  0  0  0  0
 17 18  3  0  0  0  0
 16 19  1  0  0  0  0
 19 20  3  0  0  0  0
  1 21  1  0  0  0  0
 21 22  2  0  0  0  0
 22 23  1  0  0  0  0
 23 24  1  0  0  0  0
 24 25  1  0  0  0  0
 25 26  1  0  0  0  0
 26 27  2  0  0  0  0
 27 28  1  0  0  0  0
 28 29  2  0  0  0  0
 29 30  1  0  0  0  0
 30 31  1  0  0  0  0
 29 32  1  0  0  0  0
 32 33  2  0  0  0  0
 25 34  1  0  0  0  0
 34 35  2  0  0  0  0
 35 36  1  0  0  0  0
 36 37  2  0  0  0  0
 37 38  1  0  0  0  0
 38 39  1  0  0  0  0
 37 40  1  0  0  0  0
 40 41  2  0  0  0  0
 25 42  1  0  0  0  0
 42 43  2  0  0  0  0
 43 44  1  0  0  0  0
 44 45  1  0  0  0  0
 43 46  1  0  0  0  0
 46 47  2  0  0  0  0
 47 48  1  0  0  0  0
 48 49  2  0  0  0  0
 48 50  1  0  0  0  0
 50 51  1  0  0  0  0
 51 52  1  0  0  0  0
 52 53  2  0  0  0  0
 53 54  1  0  0  0  0
 54 55  1  0  0  0  0
 55 56  1  0  0  0  0
 56 57  1  0  0  0  0
 57 58  2  0  0  0  0
 58 59  1  0  0  0  0
 59 60  2  0  0  0  0
 60 61  1  0  0  0  0
 61 62  1  0  0  0  0
 60 63  1  0  0  0  0
 63 64  2  0  0  0  0
 56 65  1  0  0  0  0
 65 66  2  0  0  0  0
 66 67  1  0  0  0  0
 67 68  2  0  0  0  0
 68 69  1  0  0  0  0
 69 70  1  0  0  0  0
 68 71  1  0  0  0  0
 71 72  2  0  0  0  0
 52 73  1  0  0  0  0
 73 74  2  0  0  0  0
 74 75  1  0  0  0  0
 75 76  2  0  0  0  0
 75 77  1  0  0  0  0
 77 78  2  0  0  0  0
 78 79  1  0  0  0  0
 79 80  1  0  0  0  0
 79 81  2  0  0  0  0
 81 82  1  0  0  0  0
 81 83  1  0  0  0  0
 83 84  2  0  0  0  0
 84 85  1  0  0  0  0
 85 86  2  0  0  0  0
 86 87  1  0  0  0  0
 87 88  3  0  0  0  0
 86 89  1  0  0  0  0
 89 90  3  0  0  0  0
 15  2  1  0  0  0  0
 45 21  1  0  0  0  0
 56 47  1  0  0  0  0
 64 57  1  0  0  0  0
 72 65  1  0  0  0  0
 85 74  1  0  0  0  0
 14  5  1  0  0  0  0
 44 23  2  0  0  0  0
 54 50  2  0  0  0  0
 84 77  1  0  0  0  0
 33 26  1  0  0  0  0
 41 34  1  0  0  0  0
 49 42  1  0  0  0  0
  1 91  1  0  0  0  0
  6 92  1  0  0  0  0
 12 93  1  0  0  0  0
 13 94  1  0  0  0  0
 22 95  1  0  0  0  0
 27 96  1  0  0  0  0
 28 97  1  0  0  0  0
 30 98  1  0  0  0  0
 30 99  1  0  0  0  0
 31100  1  0  0  0  0
 31101  1  0  0  0  0
 31102  1  0  0  0  0
 32103  1  0  0  0  0
 33104  1  0  0  0  0
 35105  1  0  0  0  0
 36106  1  0  0  0  0
 38107  1  0  0  0  0
 38108  1  0  0  0  0
 39109  1  0  0  0  0
 39110  1  0  0  0  0
 39111  1  0  0  0  0
 40112  1  0  0  0  0
 41113  1  0  0  0  0
 46114  1  0  0  0  0
 49115  1  0  0  0  0
 53116  1  0  0  0  0
 58117  1  0  0  0  0
 59118  1  0  0  0  0
 61119  1  0  0  0  0
 61120  1  0  0  0  0
 62121  1  0  0  0  0
 62122  1  0  0  0  0
 62123  1  0  0  0  0
 63124  1  0  0  0  0
 64125  1  0  0  0  0
 66126  1  0  0  0  0
 67127  1  0  0  0  0
 69128  1  0  0  0  0
 69129  1  0  0  0  0
 70130  1  0  0  0  0
 70131  1  0  0  0  0
 70132  1  0  0  0  0
 71133  1  0  0  0  0
 72134  1  0  0  0  0
 73135  1  0  0  0  0
 78136  1  0  0  0  0
 83137  1  0  0  0  0
M  END
