
  xtb     02022221243D
 energy: -208.051436599602 gnorm: 0.000865384314 xtb: 6.4.1 (unknown)
113127  0     0  0            999 V2000
   -3.9634    8.0770    0.4723 C   0  0  0  0  0  0  0  0  0  0  0  0
   -5.1946    7.4806    0.4309 C   0  0  0  0  0  0  0  0  0  0  0  0
   -6.3353    8.0899    1.1524 C   0  0  0  0  0  0  0  0  0  0  0  0
   -6.3899    9.1966    1.6373 O   0  0  0  0  0  0  0  0  0  0  0  0
   -7.3681    7.0247    1.2045 C   0  0  0  0  0  0  0  0  0  0  0  0
   -8.5839    7.0298    1.8572 C   0  0  0  0  0  0  0  0  0  0  0  0
   -9.3634    5.8809    1.7733 C   0  0  0  0  0  0  0  0  0  0  0  0
  -10.7050    5.8121    2.4496 C   0  0  0  0  0  0  0  0  0  0  0  0
  -10.9521    6.8578    3.2459 F   0  0  0  0  0  0  0  0  0  0  0  0
  -10.8286    4.7110    3.2128 F   0  0  0  0  0  0  0  0  0  0  0  0
  -11.7142    5.7611    1.5601 F   0  0  0  0  0  0  0  0  0  0  0  0
   -8.9353    4.7672    1.0567 C   0  0  0  0  0  0  0  0  0  0  0  0
   -7.7162    4.7716    0.3955 C   0  0  0  0  0  0  0  0  0  0  0  0
   -6.9292    5.9094    0.4694 C   0  0  0  0  0  0  0  0  0  0  0  0
   -5.6386    6.2339   -0.1409 C   0  0  0  0  0  0  0  0  0  0  0  0
   -5.1146    5.6216   -1.2516 C   0  0  0  0  0  0  0  0  0  0  0  0
   -5.6154    4.4293   -1.8071 C   0  0  0  0  0  0  0  0  0  0  0  0
   -5.9657    3.4411   -2.2754 N   0  0  0  0  0  0  0  0  0  0  0  0
   -4.0620    6.1825   -2.0050 C   0  0  0  0  0  0  0  0  0  0  0  0
   -3.2469    6.6456   -2.6676 N   0  0  0  0  0  0  0  0  0  0  0  0
   -2.6969    7.4967    0.2880 C   0  0  0  0  0  0  0  0  0  0  0  0
   -1.4906    8.1666    0.0970 C   0  0  0  0  0  0  0  0  0  0  0  0
   -1.3331    9.6457   -0.0291 C   0  0  0  0  0  0  0  0  0  0  0  0
   -0.9759   10.2592    1.3271 C   0  0  0  0  0  0  0  0  0  0  0  0
   -0.4097    7.2869    0.0445 C   0  0  0  0  0  0  0  0  0  0  0  0
    1.4491    7.5540   -0.1967 Se  0  0  0  0  0  2  0  0  0  0  0  0
    1.5627    5.7073   -0.0378 C   0  0  0  0  0  0  0  0  0  0  0  0
    2.5437    4.7099   -0.0268 C   0  0  0  0  0  0  0  0  0  0  0  0
    3.9501    4.8220   -0.0587 C   0  0  0  0  0  0  0  0  0  0  0  0
    4.7370    3.6396    0.1066 C   0  0  0  0  0  0  0  0  0  0  0  0
    6.0365    3.8904    0.1161 N   0  0  0  0  0  0  0  0  0  0  0  0
    6.2487    5.4864   -0.0713 S   0  0  0  0  0  0  0  0  0  0  0  0
    4.6878    5.9153   -0.1693 N   0  0  0  0  0  0  0  0  0  0  0  0
    4.0800    2.3924    0.1723 C   0  0  0  0  0  0  0  0  0  0  0  0
    4.6062    1.0971    0.1886 C   0  0  0  0  0  0  0  0  0  0  0  0
    6.2686    0.2634    0.2313 Se  0  0  0  0  0  2  0  0  0  0  0  0
    5.2641   -1.3421    0.0926 C   0  0  0  0  0  0  0  0  0  0  0  0
    5.6367   -2.6794    0.0449 C   0  0  0  0  0  0  0  0  0  0  0  0
    7.0671   -3.1100    0.0510 C   0  0  0  0  0  0  0  0  0  0  0  0
    7.5788   -3.3127   -1.3771 C   0  0  0  0  0  0  0  0  0  0  0  0
    4.5215   -3.5253   -0.0665 C   0  0  0  0  0  0  0  0  0  0  0  0
    3.0111   -2.6208   -0.1051 S   0  0  0  0  0  0  0  0  0  0  0  0
    3.8759   -1.1348    0.0254 C   0  0  0  0  0  0  0  0  0  0  0  0
    3.5191    0.2180    0.0893 C   0  0  0  0  0  0  0  0  0  0  0  0
    2.3512    0.9309    0.0336 N   0  0  0  0  0  0  0  0  0  0  0  0
    2.6607    2.2737    0.1097 C   0  0  0  0  0  0  0  0  0  0  0  0
    1.8801    3.4607    0.1339 C   0  0  0  0  0  0  0  0  0  0  0  0
    0.5221    3.7078    0.2548 N   0  0  0  0  0  0  0  0  0  0  0  0
    0.3328    5.0640    0.1590 C   0  0  0  0  0  0  0  0  0  0  0  0
   -0.7562    5.9366    0.2137 C   0  0  0  0  0  0  0  0  0  0  0  0
   -2.4566    5.7538    0.4308 S   0  0  0  0  0  0  0  0  0  0  0  0
   -0.4966    2.9184    0.9124 C   0  0  0  0  0  0  0  0  0  0  0  0
   -0.2963    2.9292    2.4267 C   0  0  0  0  0  0  0  0  0  0  0  0
    1.1257    0.2744   -0.3630 C   0  0  0  0  0  0  0  0  0  0  0  0
    0.4425   -0.4393    0.8030 C   0  0  0  0  0  0  0  0  0  0  0  0
    4.6254   -4.9200   -0.1328 C   0  0  0  0  0  0  0  0  0  0  0  0
    3.6600   -5.8892   -0.2348 C   0  0  0  0  0  0  0  0  0  0  0  0
    2.2124   -5.6700   -0.2906 C   0  0  0  0  0  0  0  0  0  0  0  0
    1.6204   -4.6026   -0.2656 O   0  0  0  0  0  0  0  0  0  0  0  0
    1.5926   -7.0017   -0.3744 C   0  0  0  0  0  0  0  0  0  0  0  0
    0.2311   -7.2898   -0.4432 C   0  0  0  0  0  0  0  0  0  0  0  0
   -0.0524   -8.6325   -0.5134 C   0  0  0  0  0  0  0  0  0  0  0  0
    0.9451   -9.6164   -0.5097 C   0  0  0  0  0  0  0  0  0  0  0  0
    2.2911   -9.3455   -0.4380 C   0  0  0  0  0  0  0  0  0  0  0  0
    2.6032   -7.9842   -0.3715 C   0  0  0  0  0  0  0  0  0  0  0  0
    3.9024   -7.3179   -0.2894 C   0  0  0  0  0  0  0  0  0  0  0  0
    5.1178   -7.9543   -0.2723 C   0  0  0  0  0  0  0  0  0  0  0  0
    6.3788   -7.3270   -0.2017 C   0  0  0  0  0  0  0  0  0  0  0  0
    7.4445   -6.8996   -0.1447 N   0  0  0  0  0  0  0  0  0  0  0  0
    5.2898   -9.3534   -0.3284 C   0  0  0  0  0  0  0  0  0  0  0  0
    5.5110  -10.4794   -0.3672 N   0  0  0  0  0  0  0  0  0  0  0  0
   -0.0528  -10.7426   -0.6111 C   0  0  0  0  0  0  0  0  0  0  0  0
   -0.2117  -11.3971   -1.9999 C   0  0  0  0  0  0  0  0  0  0  0  0
   -1.5480  -12.0989   -1.9179 C   0  0  0  0  0  0  0  0  0  0  0  0
   -2.4935  -11.1680   -1.9216 C   0  0  0  0  0  0  0  0  0  0  0  0
   -1.8121   -9.8212   -2.0066 C   0  0  0  0  0  0  0  0  0  0  0  0
   -0.5991  -10.1935   -2.8689 C   0  0  0  0  0  0  0  0  0  0  0  0
   -1.1654   -9.6455   -0.6160 C   0  0  0  0  0  0  0  0  0  0  0  0
   -3.9693    9.1146    0.7903 H   0  0  0  0  0  0  0  0  0  0  0  0
   -8.9089    7.8968    2.4111 H   0  0  0  0  0  0  0  0  0  0  0  0
   -9.5637    3.8902    1.0188 H   0  0  0  0  0  0  0  0  0  0  0  0
   -7.3977    3.8991   -0.1513 H   0  0  0  0  0  0  0  0  0  0  0  0
   -2.2450   10.0975   -0.4183 H   0  0  0  0  0  0  0  0  0  0  0  0
   -0.5207    9.8426   -0.7346 H   0  0  0  0  0  0  0  0  0  0  0  0
   -1.7666   10.0787    2.0518 H   0  0  0  0  0  0  0  0  0  0  0  0
   -0.8364   11.3319    1.2251 H   0  0  0  0  0  0  0  0  0  0  0  0
   -0.0525    9.8229    1.7043 H   0  0  0  0  0  0  0  0  0  0  0  0
    7.2034   -4.0301    0.6208 H   0  0  0  0  0  0  0  0  0  0  0  0
    7.6534   -2.3195    0.5305 H   0  0  0  0  0  0  0  0  0  0  0  0
    8.6257   -3.6010   -1.3566 H   0  0  0  0  0  0  0  0  0  0  0  0
    7.0164   -4.0959   -1.8800 H   0  0  0  0  0  0  0  0  0  0  0  0
    7.4790   -2.3908   -1.9465 H   0  0  0  0  0  0  0  0  0  0  0  0
   -1.4602    3.3698    0.6632 H   0  0  0  0  0  0  0  0  0  0  0  0
   -0.5017    1.8993    0.5428 H   0  0  0  0  0  0  0  0  0  0  0  0
   -1.0734    2.3420    2.9079 H   0  0  0  0  0  0  0  0  0  0  0  0
    0.6748    2.5114    2.6858 H   0  0  0  0  0  0  0  0  0  0  0  0
   -0.3442    3.9466    2.8081 H   0  0  0  0  0  0  0  0  0  0  0  0
    0.4752    1.0080   -0.8423 H   0  0  0  0  0  0  0  0  0  0  0  0
    1.3851   -0.4742   -1.1193 H   0  0  0  0  0  0  0  0  0  0  0  0
    1.0328   -1.2987    1.1079 H   0  0  0  0  0  0  0  0  0  0  0  0
   -0.5352   -0.7961    0.4917 H   0  0  0  0  0  0  0  0  0  0  0  0
    0.3260    0.2157    1.6622 H   0  0  0  0  0  0  0  0  0  0  0  0
    5.6472   -5.2710   -0.0923 H   0  0  0  0  0  0  0  0  0  0  0  0
   -0.5033   -6.4996   -0.4380 H   0  0  0  0  0  0  0  0  0  0  0  0
    3.0430  -10.1164   -0.4307 H   0  0  0  0  0  0  0  0  0  0  0  0
   -0.0370  -11.4663    0.2014 H   0  0  0  0  0  0  0  0  0  0  0  0
    0.6371  -11.9948   -2.3205 H   0  0  0  0  0  0  0  0  0  0  0  0
   -1.6618  -13.1618   -1.8132 H   0  0  0  0  0  0  0  0  0  0  0  0
   -3.5550  -11.2980   -1.8205 H   0  0  0  0  0  0  0  0  0  0  0  0
   -2.4224   -8.9839   -2.3343 H   0  0  0  0  0  0  0  0  0  0  0  0
   -0.8859  -10.4891   -3.8766 H   0  0  0  0  0  0  0  0  0  0  0  0
    0.1639   -9.4188   -2.9203 H   0  0  0  0  0  0  0  0  0  0  0  0
   -1.8925   -9.6370    0.1939 H   0  0  0  0  0  0  0  0  0  0  0  0
  1  2  2  0  0  0  0
  2  3  1  0  0  0  0
  3  4  2  0  0  0  0
  3  5  1  0  0  0  0
  5  6  2  0  0  0  0
  6  7  1  0  0  0  0
  7  8  1  0  0  0  0
  8  9  1  0  0  0  0
  8 10  1  0  0  0  0
  8 11  1  0  0  0  0
  7 12  2  0  0  0  0
 12 13  1  0  0  0  0
 13 14  2  0  0  0  0
 14 15  1  0  0  0  0
 15 16  2  0  0  0  0
 16 17  1  0  0  0  0
 17 18  3  0  0  0  0
 16 19  1  0  0  0  0
 19 20  3  0  0  0  0
  1 21  1  0  0  0  0
 21 22  2  0  0  0  0
 22 23  1  0  0  0  0
 23 24  1  0  0  0  0
 22 25  1  0  0  0  0
 25 26  1  0  0  0  0
 26 27  1  0  0  0  0
 27 28  1  0  0  0  0
 28 29  1  0  0  0  0
 29 30  1  0  0  0  0
 30 31  2  0  0  0  0
 31 32  1  0  0  0  0
 32 33  1  0  0  0  0
 30 34  1  0  0  0  0
 34 35  1  0  0  0  0
 35 36  1  0  0  0  0
 36 37  1  0  0  0  0
 37 38  1  0  0  0  0
 38 39  1  0  0  0  0
 39 40  1  0  0  0  0
 38 41  2  0  0  0  0
 41 42  1  0  0  0  0
 42 43  1  0  0  0  0
 43 44  1  0  0  0  0
 44 45  1  0  0  0  0
 45 46  1  0  0  0  0
 46 47  1  0  0  0  0
 47 48  1  0  0  0  0
 48 49  1  0  0  0  0
 49 50  1  0  0  0  0
 50 51  1  0  0  0  0
 48 52  1  0  0  0  0
 52 53  1  0  0  0  0
 45 54  1  0  0  0  0
 54 55  1  0  0  0  0
 41 56  1  0  0  0  0
 56 57  2  0  0  0  0
 57 58  1  0  0  0  0
 58 59  2  0  0  0  0
 58 60  1  0  0  0  0
 60 61  2  0  0  0  0
 61 62  1  0  0  0  0
 62 63  2  0  0  0  0
 63 64  1  0  0  0  0
 64 65  2  0  0  0  0
 65 66  1  0  0  0  0
 66 67  2  0  0  0  0
 67 68  1  0  0  0  0
 68 69  3  0  0  0  0
 67 70  1  0  0  0  0
 70 71  3  0  0  0  0
 63 72  1  0  0  0  0
 72 73  1  0  0  0  0
 73 74  1  0  0  0  0
 74 75  2  0  0  0  0
 75 76  1  0  0  0  0
 76 77  1  0  0  0  0
 76 78  1  0  0  0  0
 15  2  1  0  0  0  0
 51 21  1  0  0  0  0
 66 57  1  0  0  0  0
 78 72  1  0  0  0  0
 14  5  1  0  0  0  0
 50 25  2  0  0  0  0
 65 60  1  0  0  0  0
 77 73  1  0  0  0  0
 49 27  2  0  0  0  0
 78 62  1  0  0  0  0
 47 28  2  0  0  0  0
 33 29  2  0  0  0  0
 46 34  2  0  0  0  0
 44 35  2  0  0  0  0
 43 37  2  0  0  0  0
  1 79  1  0  0  0  0
  6 80  1  0  0  0  0
 12 81  1  0  0  0  0
 13 82  1  0  0  0  0
 23 83  1  0  0  0  0
 23 84  1  0  0  0  0
 24 85  1  0  0  0  0
 24 86  1  0  0  0  0
 24 87  1  0  0  0  0
 39 88  1  0  0  0  0
 39 89  1  0  0  0  0
 40 90  1  0  0  0  0
 40 91  1  0  0  0  0
 40 92  1  0  0  0  0
 52 93  1  0  0  0  0
 52 94  1  0  0  0  0
 53 95  1  0  0  0  0
 53 96  1  0  0  0  0
 53 97  1  0  0  0  0
 54 98  1  0  0  0  0
 54 99  1  0  0  0  0
 55100  1  0  0  0  0
 55101  1  0  0  0  0
 55102  1  0  0  0  0
 56103  1  0  0  0  0
 61104  1  0  0  0  0
 64105  1  0  0  0  0
 72106  1  0  0  0  0
 73107  1  0  0  0  0
 74108  1  0  0  0  0
 75109  1  0  0  0  0
 76110  1  0  0  0  0
 77111  1  0  0  0  0
 77112  1  0  0  0  0
 78113  1  0  0  0  0
M  END
