
  xtb     02022219343D
 energy: -215.913283239810 gnorm: 0.000348732879 xtb: 6.4.1 (unknown)
117132  0     0  0            999 V2000
    5.4609   -0.3382    8.5525 C   0  0  0  0  0  0  0  0  0  0  0  0
    6.2735    0.5065    9.2764 C   0  0  0  0  0  0  0  0  0  0  0  0
    6.2614    1.9686    9.2094 C   0  0  0  0  0  0  0  0  0  0  0  0
    5.5187    2.6843    8.5644 O   0  0  0  0  0  0  0  0  0  0  0  0
    7.3529    2.4240   10.0998 C   0  0  0  0  0  0  0  0  0  0  0  0
    7.7684    3.7128   10.3602 C   0  0  0  0  0  0  0  0  0  0  0  0
    8.8381    3.8783   11.2347 C   0  0  0  0  0  0  0  0  0  0  0  0
    9.3634    5.2572   11.5242 C   0  0  0  0  0  0  0  0  0  0  0  0
    9.7868    5.3933   12.7908 F   0  0  0  0  0  0  0  0  0  0  0  0
    8.4544    6.2184   11.3185 F   0  0  0  0  0  0  0  0  0  0  0  0
   10.4197    5.5622   10.7437 F   0  0  0  0  0  0  0  0  0  0  0  0
    9.4640    2.7830   11.8197 C   0  0  0  0  0  0  0  0  0  0  0  0
    9.0365    1.4897   11.5534 C   0  0  0  0  0  0  0  0  0  0  0  0
    7.9726    1.3069   10.6838 C   0  0  0  0  0  0  0  0  0  0  0  0
    7.3075    0.0937   10.1971 C   0  0  0  0  0  0  0  0  0  0  0  0
    7.6399   -1.1849   10.5710 C   0  0  0  0  0  0  0  0  0  0  0  0
    8.6758   -1.5043   11.4733 C   0  0  0  0  0  0  0  0  0  0  0  0
    9.5032   -1.8388   12.1958 N   0  0  0  0  0  0  0  0  0  0  0  0
    7.0124   -2.3654   10.1231 C   0  0  0  0  0  0  0  0  0  0  0  0
    6.5594   -3.3746    9.8111 N   0  0  0  0  0  0  0  0  0  0  0  0
    4.4774   -0.0659    7.6003 C   0  0  0  0  0  0  0  0  0  0  0  0
    3.9392    1.5309    7.0663 S   0  0  0  0  0  0  0  0  0  0  0  0
    2.8707    0.7880    5.9452 C   0  0  0  0  0  0  0  0  0  0  0  0
    1.9423    1.1014    4.9610 C   0  0  0  0  0  0  0  0  0  0  0  0
    1.2546    2.5522    4.3021 S   0  0  0  0  0  0  0  0  0  0  0  0
    0.3243    1.5516    3.2550 C   0  0  0  0  0  0  0  0  0  0  0  0
   -0.6511    1.7671    2.2768 C   0  0  0  0  0  0  0  0  0  0  0  0
   -1.3059    2.9572    1.8945 C   0  0  0  0  0  0  0  0  0  0  0  0
   -2.3867    2.8715    0.9607 C   0  0  0  0  0  0  0  0  0  0  0  0
   -2.9578    4.0451    0.7365 N   0  0  0  0  0  0  0  0  0  0  0  0
   -2.1933    5.1621    1.6238 S   0  0  0  0  0  0  0  0  0  0  0  0
   -1.1068    4.1919    2.3286 N   0  0  0  0  0  0  0  0  0  0  0  0
   -2.6676    1.6234    0.3647 C   0  0  0  0  0  0  0  0  0  0  0  0
   -3.5470    1.3050   -0.6802 C   0  0  0  0  0  0  0  0  0  0  0  0
   -4.6949    2.0878   -1.7062 S   0  0  0  0  0  0  0  0  0  0  0  0
   -4.8626    0.6031   -2.6159 C   0  0  0  0  0  0  0  0  0  0  0  0
   -5.5564    0.2866   -3.7946 C   0  0  0  0  0  0  0  0  0  0  0  0
   -6.5376    1.1983   -4.4510 C   0  0  0  0  0  0  0  0  0  0  0  0
   -7.6228    1.6568   -3.4775 C   0  0  0  0  0  0  0  0  0  0  0  0
   -5.2938   -1.0154   -4.1906 C   0  0  0  0  0  0  0  0  0  0  0  0
   -4.2591   -1.8735   -3.0476 S   0  0  0  0  0  0  0  0  0  0  0  0
   -4.0808   -0.4412   -2.1055 C   0  0  0  0  0  0  0  0  0  0  0  0
   -3.3302   -0.0369   -0.9964 C   0  0  0  0  0  0  0  0  0  0  0  0
   -2.3811   -0.5757   -0.1629 N   0  0  0  0  0  0  0  0  0  0  0  0
   -1.9476    0.4361    0.6894 C   0  0  0  0  0  0  0  0  0  0  0  0
   -1.0044    0.4943    1.7550 C   0  0  0  0  0  0  0  0  0  0  0  0
   -0.2914   -0.4643    2.4568 N   0  0  0  0  0  0  0  0  0  0  0  0
    0.5250    0.1665    3.3788 C   0  0  0  0  0  0  0  0  0  0  0  0
    1.4624   -0.1149    4.3979 C   0  0  0  0  0  0  0  0  0  0  0  0
    2.0729   -1.1675    5.0538 N   0  0  0  0  0  0  0  0  0  0  0  0
    2.9315   -0.6278    5.9828 C   0  0  0  0  0  0  0  0  0  0  0  0
    3.8212   -1.1047    6.9219 C   0  0  0  0  0  0  0  0  0  0  0  0
    2.0063   -2.5986    4.8816 C   0  0  0  0  0  0  0  0  0  0  0  0
    3.2578   -3.1442    4.1928 C   0  0  0  0  0  0  0  0  0  0  0  0
   -0.5222   -1.8860    2.4762 C   0  0  0  0  0  0  0  0  0  0  0  0
    0.5887   -2.6513    1.7560 C   0  0  0  0  0  0  0  0  0  0  0  0
   -1.6921   -1.7534   -0.6467 C   0  0  0  0  0  0  0  0  0  0  0  0
   -0.5003   -1.3655   -1.5201 C   0  0  0  0  0  0  0  0  0  0  0  0
   -5.7081   -1.7310   -5.3395 C   0  0  0  0  0  0  0  0  0  0  0  0
   -5.7763   -1.2182   -6.6023 C   0  0  0  0  0  0  0  0  0  0  0  0
   -5.0571    0.0023   -7.0439 C   0  0  0  0  0  0  0  0  0  0  0  0
   -4.4999    0.8298   -6.3534 O   0  0  0  0  0  0  0  0  0  0  0  0
   -5.0485   -0.0600   -8.5174 C   0  0  0  0  0  0  0  0  0  0  0  0
   -4.4228    0.8348   -9.3820 C   0  0  0  0  0  0  0  0  0  0  0  0
   -4.5471    0.5083  -10.7108 C   0  0  0  0  0  0  0  0  0  0  0  0
   -5.2375   -0.6295  -11.1507 C   0  0  0  0  0  0  0  0  0  0  0  0
   -5.8658   -1.5167  -10.3093 C   0  0  0  0  0  0  0  0  0  0  0  0
   -5.7538   -1.2006   -8.9524 C   0  0  0  0  0  0  0  0  0  0  0  0
   -6.2663   -1.9027   -7.7811 C   0  0  0  0  0  0  0  0  0  0  0  0
   -7.1315   -2.9653   -7.7810 C   0  0  0  0  0  0  0  0  0  0  0  0
   -7.6814   -3.5307   -6.6111 C   0  0  0  0  0  0  0  0  0  0  0  0
   -8.1817   -4.0172   -5.6992 N   0  0  0  0  0  0  0  0  0  0  0  0
   -7.6167   -3.5994   -8.9427 C   0  0  0  0  0  0  0  0  0  0  0  0
   -8.0395   -4.1594   -9.8514 N   0  0  0  0  0  0  0  0  0  0  0  0
   -4.9271   -0.3543  -12.6003 C   0  0  0  0  0  0  0  0  0  0  0  0
   -3.8038   -1.1882  -13.2659 C   0  0  0  0  0  0  0  0  0  0  0  0
   -2.8630   -1.6040  -12.1624 C   0  0  0  0  0  0  0  0  0  0  0  0
   -2.2175   -0.5211  -11.7504 C   0  0  0  0  0  0  0  0  0  0  0  0
   -2.7113    0.6472  -12.5675 C   0  0  0  0  0  0  0  0  0  0  0  0
   -2.9852   -0.0557  -13.9065 C   0  0  0  0  0  0  0  0  0  0  0  0
   -4.1663    0.9183  -12.1112 C   0  0  0  0  0  0  0  0  0  0  0  0
    5.6102   -1.3989    8.7139 H   0  0  0  0  0  0  0  0  0  0  0  0
    7.2750    4.5548    9.8999 H   0  0  0  0  0  0  0  0  0  0  0  0
   10.2921    2.9433   12.4934 H   0  0  0  0  0  0  0  0  0  0  0  0
    9.5383    0.6590   12.0208 H   0  0  0  0  0  0  0  0  0  0  0  0
   -5.9974    2.0652   -4.8396 H   0  0  0  0  0  0  0  0  0  0  0  0
   -7.0016    0.6861   -5.2947 H   0  0  0  0  0  0  0  0  0  0  0  0
   -7.1977    2.2273   -2.6564 H   0  0  0  0  0  0  0  0  0  0  0  0
   -8.1524    0.7984   -3.0694 H   0  0  0  0  0  0  0  0  0  0  0  0
   -8.3385    2.2871   -3.9990 H   0  0  0  0  0  0  0  0  0  0  0  0
    4.0264   -2.1378    7.1388 H   0  0  0  0  0  0  0  0  0  0  0  0
    1.1154   -2.8627    4.3181 H   0  0  0  0  0  0  0  0  0  0  0  0
    1.9194   -3.0473    5.8772 H   0  0  0  0  0  0  0  0  0  0  0  0
    4.1367   -2.9683    4.8063 H   0  0  0  0  0  0  0  0  0  0  0  0
    3.1541   -4.2136    4.0320 H   0  0  0  0  0  0  0  0  0  0  0  0
    3.4189   -2.6594    3.2326 H   0  0  0  0  0  0  0  0  0  0  0  0
   -1.5042   -2.0846    2.0444 H   0  0  0  0  0  0  0  0  0  0  0  0
   -0.5757   -2.2000    3.5248 H   0  0  0  0  0  0  0  0  0  0  0  0
    0.4439   -3.7227    1.8686 H   0  0  0  0  0  0  0  0  0  0  0  0
    0.6182   -2.4114    0.6985 H   0  0  0  0  0  0  0  0  0  0  0  0
    1.5528   -2.3799    2.1723 H   0  0  0  0  0  0  0  0  0  0  0  0
   -2.4155   -2.3122   -1.2458 H   0  0  0  0  0  0  0  0  0  0  0  0
   -1.3821   -2.3980    0.1689 H   0  0  0  0  0  0  0  0  0  0  0  0
    0.2076   -0.7583   -0.9590 H   0  0  0  0  0  0  0  0  0  0  0  0
    0.0031   -2.2575   -1.8835 H   0  0  0  0  0  0  0  0  0  0  0  0
   -0.8387   -0.7876   -2.3769 H   0  0  0  0  0  0  0  0  0  0  0  0
   -5.8907   -2.7900   -5.1954 H   0  0  0  0  0  0  0  0  0  0  0  0
   -3.8955    1.6955   -9.0014 H   0  0  0  0  0  0  0  0  0  0  0  0
   -6.3903   -2.3906  -10.6591 H   0  0  0  0  0  0  0  0  0  0  0  0
   -5.7845   -0.2175  -13.2560 H   0  0  0  0  0  0  0  0  0  0  0  0
   -4.1579   -1.9817  -13.9183 H   0  0  0  0  0  0  0  0  0  0  0  0
   -2.8062   -2.6018  -11.7681 H   0  0  0  0  0  0  0  0  0  0  0  0
   -1.5140   -0.4330  -10.9431 H   0  0  0  0  0  0  0  0  0  0  0  0
   -2.0719    1.5259  -12.5846 H   0  0  0  0  0  0  0  0  0  0  0  0
   -2.0762   -0.4133  -14.3877 H   0  0  0  0  0  0  0  0  0  0  0  0
   -3.5577    0.5514  -14.6063 H   0  0  0  0  0  0  0  0  0  0  0  0
   -4.5323    1.8884  -12.4413 H   0  0  0  0  0  0  0  0  0  0  0  0
  1  2  2  0  0  0  0
  2  3  1  0  0  0  0
  3  4  2  0  0  0  0
  3  5  1  0  0  0  0
  5  6  2  0  0  0  0
  6  7  1  0  0  0  0
  7  8  1  0  0  0  0
  8  9  1  0  0  0  0
  8 10  1  0  0  0  0
  8 11  1  0  0  0  0
  7 12  2  0  0  0  0
 12 13  1  0  0  0  0
 13 14  2  0  0  0  0
 14 15  1  0  0  0  0
 15 16  2  0  0  0  0
 16 17  1  0  0  0  0
 17 18  3  0  0  0  0
 16 19  1  0  0  0  0
 19 20  3  0  0  0  0
  1 21  1  0  0  0  0
 21 22  1  0  0  0  0
 22 23  1  0  0  0  0
 23 24  1  0  0  0  0
 24 25  1  0  0  0  0
 25 26  1  0  0  0  0
 26 27  1  0  0  0  0
 27 28  1  0  0  0  0
 28 29  1  0  0  0  0
 29 30  2  0  0  0  0
 30 31  1  0  0  0  0
 31 32  1  0  0  0  0
 29 33  1  0  0  0  0
 33 34  1  0  0  0  0
 34 35  1  0  0  0  0
 35 36  1  0  0  0  0
 36 37  1  0  0  0  0
 37 38  1  0  0  0  0
 38 39  1  0  0  0  0
 37 40  2  0  0  0  0
 40 41  1  0  0  0  0
 41 42  1  0  0  0  0
 42 43  1  0  0  0  0
 43 44  1  0  0  0  0
 44 45  1  0  0  0  0
 45 46  1  0  0  0  0
 46 47  1  0  0  0  0
 47 48  1  0  0  0  0
 48 49  1  0  0  0  0
 49 50  1  0  0  0  0
 50 51  1  0  0  0  0
 51 52  1  0  0  0  0
 50 53  1  0  0  0  0
 53 54  1  0  0  0  0
 47 55  1  0  0  0  0
 55 56  1  0  0  0  0
 44 57  1  0  0  0  0
 57 58  1  0  0  0  0
 40 59  1  0  0  0  0
 59 60  2  0  0  0  0
 60 61  1  0  0  0  0
 61 62  2  0  0  0  0
 61 63  1  0  0  0  0
 63 64  2  0  0  0  0
 64 65  1  0  0  0  0
 65 66  2  0  0  0  0
 66 67  1  0  0  0  0
 67 68  2  0  0  0  0
 68 69  1  0  0  0  0
 69 70  2  0  0  0  0
 70 71  1  0  0  0  0
 71 72  3  0  0  0  0
 70 73  1  0  0  0  0
 73 74  3  0  0  0  0
 66 75  1  0  0  0  0
 75 76  1  0  0  0  0
 76 77  1  0  0  0  0
 77 78  2  0  0  0  0
 78 79  1  0  0  0  0
 79 80  1  0  0  0  0
 79 81  1  0  0  0  0
 15  2  1  0  0  0  0
 52 21  2  0  0  0  0
 69 60  1  0  0  0  0
 81 75  1  0  0  0  0
 14  5  1  0  0  0  0
 51 23  2  0  0  0  0
 68 63  1  0  0  0  0
 80 76  1  0  0  0  0
 49 24  2  0  0  0  0
 81 65  1  0  0  0  0
 48 26  2  0  0  0  0
 46 27  2  0  0  0  0
 32 28  2  0  0  0  0
 45 33  2  0  0  0  0
 43 34  2  0  0  0  0
 42 36  2  0  0  0  0
  1 82  1  0  0  0  0
  6 83  1  0  0  0  0
 12 84  1  0  0  0  0
 13 85  1  0  0  0  0
 38 86  1  0  0  0  0
 38 87  1  0  0  0  0
 39 88  1  0  0  0  0
 39 89  1  0  0  0  0
 39 90  1  0  0  0  0
 52 91  1  0  0  0  0
 53 92  1  0  0  0  0
 53 93  1  0  0  0  0
 54 94  1  0  0  0  0
 54 95  1  0  0  0  0
 54 96  1  0  0  0  0
 55 97  1  0  0  0  0
 55 98  1  0  0  0  0
 56 99  1  0  0  0  0
 56100  1  0  0  0  0
 56101  1  0  0  0  0
 57102  1  0  0  0  0
 57103  1  0  0  0  0
 58104  1  0  0  0  0
 58105  1  0  0  0  0
 58106  1  0  0  0  0
 59107  1  0  0  0  0
 64108  1  0  0  0  0
 67109  1  0  0  0  0
 75110  1  0  0  0  0
 76111  1  0  0  0  0
 77112  1  0  0  0  0
 78113  1  0  0  0  0
 79114  1  0  0  0  0
 80115  1  0  0  0  0
 80116  1  0  0  0  0
 81117  1  0  0  0  0
M  END
