152

C         -2.17530       -1.41130        5.93930
C         -2.60450       -2.66130        6.32740
C         -2.29400       -3.89120        5.57440
O         -1.77700       -3.98920        4.48110
C         -2.63500       -5.00340        6.49670
C         -2.50410       -6.36030        6.29030
C         -2.88560       -7.20910        7.32560
C         -2.80360       -8.69840        7.13280
F         -3.96490       -9.20560        6.67270
F         -1.86190       -9.05810        6.25010
F         -2.53470       -9.35480        8.27100
C         -3.37810       -6.70730        8.52520
C         -3.50340       -5.33990        8.72670
C         -3.13310       -4.48250        7.70330
C         -3.16000       -3.02250        7.60510
C         -3.71830       -2.16070        8.51470
C         -4.27850       -2.55880        9.74460
N         -4.73700       -2.82660       10.76240
C         -3.84370       -0.77280        8.29650
N         -4.00810        0.35370        8.14780
C         -1.78220       -1.05700        4.64190
C         -2.20700       -1.51910        3.37690
O         -3.30600       -2.20350        3.06860
C         -4.42150       -2.23930        3.93490
C         -5.67210       -2.33540        3.07430
C         -1.37800       -1.02470        2.35530
C         -1.33800       -1.13420        0.85240
C         -2.68650       -0.69810        0.30540
C         -3.69430       -1.63420        0.11590
C         -4.93890       -1.23890       -0.33650
C         -5.21340        0.09700       -0.60010
C         -6.54990        0.51500       -1.14120
C         -6.53420        0.49130       -2.67110
C         -4.20600        1.02980       -0.39330
C         -2.95870        0.64070        0.05980
C         -0.94500       -2.51440        0.35190
C         -0.45580       -3.48940        1.20850
C         -0.06910       -4.72210        0.71370
C         -0.14890       -5.00900       -0.64170
C          0.23650       -6.36140       -1.16800
C         -0.96980       -7.30240       -1.15770
C         -0.64580       -4.03030       -1.49340
C         -1.03890       -2.79940       -1.00540
C         -0.21080       -0.16610        0.52860
C          0.35170        0.37120        1.71150
C         -0.40060       -0.15880        2.80550
S         -0.45950        0.10630        4.49530
C          1.41220        1.27260        1.69060
C          1.88210        1.65520        0.45630
C          3.01030        2.62780        0.13740
C          2.71970        4.01950        0.67590
C          3.70560        4.86390        1.16620
C          3.38910        6.14240        1.58930
C          2.08640        6.61600        1.53260
C          1.75820        8.01990        1.94930
C          1.90480        8.97480        0.76260
C          1.10380        5.77270        1.02990
C          1.41490        4.49630        0.60500
C          4.27640        1.97670        0.66230
C          4.62820        2.08610        2.00250
C          5.75400        1.44740        2.48760
C          6.54960        0.66890        1.65730
C          7.79970        0.01770        2.17250
C          9.00790        0.93000        1.94960
C          6.17900        0.53840        0.32570
C          5.05400        1.17430       -0.16400
C          2.92160        2.67990       -1.37640
C          3.46070        3.43100       -2.41790
O          4.36380        4.42480       -2.39480
C          5.56280        4.26420       -1.64340
C          6.62210        3.54900       -2.47270
C          2.85740        3.10990       -3.66850
S          1.60410        1.89740       -3.50270
C          1.92270        1.81690       -1.82680
C          1.29610        1.15340       -0.72680
C          0.25720        0.22610       -0.70420
C          3.30250        3.70750       -4.84440
C          2.84040        3.58870       -6.13600
C          1.62340        2.88740       -6.54310
O          0.89810        2.18440       -5.86350
C          1.42550        3.22250       -7.97220
C          0.39630        2.84690       -8.80970
C          0.43220        3.31230      -10.12030
C         -0.64640        2.91950      -11.09180
F         -0.24350        1.93140      -11.91460
F         -1.75940        2.47970      -10.49160
F         -1.01560        3.93710      -11.88680
C          1.47180        4.12040      -10.56880
C          2.50540        4.49050       -9.71980
C          2.48300        4.03750       -8.41010
C          3.40970        4.23970       -7.29230
C          4.62220        4.87610       -7.37470
C          5.10930        5.50250       -8.54060
N          5.55790        6.03510       -9.45330
C          5.57080        4.95730       -6.33450
N          6.41400        5.03940       -5.55850
H         -2.00810       -0.66350        6.70620
H         -2.11690       -6.74220        5.35820
H         -3.65910       -7.39150        9.31130
H         -3.87810       -4.96990        9.66680
H         -4.44630       -1.33570        4.55790
H         -4.35600       -3.11250        4.59930
H         -5.74040       -1.47200        2.41760
H         -5.63070       -3.23260        2.46370
H         -6.55120       -2.37530        3.71080
H         -3.50200       -2.67490        0.32660
H         -5.71190       -1.97990       -0.48420
H         -7.32560       -0.16310       -0.77920
H         -6.79020        1.52380       -0.79940
H         -7.50130        0.79240       -3.06640
H         -6.30760       -0.50970       -3.03110
H         -5.77550        1.17120       -3.05210
H         -4.40000        2.07540       -0.58550
H         -2.19280        1.38600        0.22050
H         -0.39110       -3.30480        2.26940
H          0.30200       -5.47180        1.39740
H          0.61160       -6.26810       -2.18930
H          1.02940       -6.78680       -0.54970
H         -0.69250       -8.28170       -1.54080
H         -1.76850       -6.90010       -1.77720
H         -1.34840       -7.41940       -0.14490
H         -0.72590       -4.23390       -2.55180
H         -1.44100       -2.06130       -1.68380
H          1.82120        1.66100        2.60980
H          4.73110        4.53280        1.23270
H          4.17270        6.78120        1.97120
H          0.73360        8.06530        2.32360
H          2.42970        8.33570        2.75010
H          1.23440        8.68310       -0.04280
H          2.92380        8.95300        0.38270
H          1.66690        9.99270        1.06190
H          0.08210        6.11950        0.97020
H          0.63440        3.86020        0.21240
H          4.02340        2.67940        2.67210
H          6.01430        1.55120        3.53120
H          7.96390       -0.92870        1.65340
H          7.69710       -0.19030        3.23910
H          8.87160        1.87380        2.47290
H          9.91440        0.45630        2.31860
H          9.13310        1.14090        0.88990
H          6.77330       -0.07470       -0.33640
H          4.77700        1.04140       -1.19990
H          5.37060        3.71540       -0.71950
H          5.88270        5.28120       -1.40640
H          6.79250        4.08160       -3.40520
H          6.30200        2.53460       -2.70220
H          7.55130        3.50360       -1.91210
H         -0.16630       -0.13750       -1.62630
H          4.13170        4.38550       -4.67630
H         -0.40560        2.22010       -8.45130
H          1.46930        4.46760      -11.59090
H          3.29710        5.12080      -10.08930
