
  xtb     02012215263D
 energy: -209.076202215105 gnorm: 0.000764941809 xtb: 6.4.1 (unknown)
110120  0     0  0            999 V2000
    4.2298   -3.1741    1.8996 C   0  0  0  0  0  0  0  0  0  0  0  0
    3.5258   -3.0410    0.7561 C   0  0  0  0  0  0  0  0  0  0  0  0
    2.1850   -2.4115    0.5482 C   0  0  0  0  0  0  0  0  0  0  0  0
    1.3497   -2.1175    1.3702 O   0  0  0  0  0  0  0  0  0  0  0  0
    2.0488   -2.2444   -0.9112 C   0  0  0  0  0  0  0  0  0  0  0  0
    1.0132   -1.6433   -1.6016 C   0  0  0  0  0  0  0  0  0  0  0  0
    1.0893   -1.6268   -2.9879 C   0  0  0  0  0  0  0  0  0  0  0  0
   -0.0120   -1.0240   -3.8156 C   0  0  0  0  0  0  0  0  0  0  0  0
   -0.5303   -1.9145   -4.6844 F   0  0  0  0  0  0  0  0  0  0  0  0
   -1.0426   -0.5869   -3.0793 F   0  0  0  0  0  0  0  0  0  0  0  0
    0.4053    0.0118   -4.5570 F   0  0  0  0  0  0  0  0  0  0  0  0
    2.1810   -2.1834   -3.6539 C   0  0  0  0  0  0  0  0  0  0  0  0
    3.2143   -2.7854   -2.9557 C   0  0  0  0  0  0  0  0  0  0  0  0
    3.1453   -2.8289   -1.5674 C   0  0  0  0  0  0  0  0  0  0  0  0
    4.0368   -3.4085   -0.5704 C   0  0  0  0  0  0  0  0  0  0  0  0
    5.1096   -4.2116   -0.8413 C   0  0  0  0  0  0  0  0  0  0  0  0
    5.5350   -4.5461   -2.1468 C   0  0  0  0  0  0  0  0  0  0  0  0
    5.9305   -4.8572   -3.1777 N   0  0  0  0  0  0  0  0  0  0  0  0
    5.9199   -4.8602    0.1174 C   0  0  0  0  0  0  0  0  0  0  0  0
    6.6125   -5.4417    0.8246 N   0  0  0  0  0  0  0  0  0  0  0  0
    3.8770   -2.7633    3.2900 C   0  0  0  0  0  0  0  0  0  0  0  0
    2.5893   -3.3279    3.8106 C   0  0  0  0  0  0  0  0  0  0  0  0
    1.6359   -2.4200    4.0321 C   0  0  0  0  0  0  0  0  0  0  0  0
   -0.0439   -2.5290    4.4637 S   0  0  0  0  0  0  0  0  0  0  0  0
   -0.3755   -0.7924    3.8961 C   0  0  0  0  0  0  0  0  0  0  0  0
   -1.2216   -0.7519    2.6497 C   0  0  0  0  0  0  0  0  0  0  0  0
   -2.2564   -1.7299    2.5204 C   0  0  0  0  0  0  0  0  0  0  0  0
   -2.6105   -2.4866    1.4341 C   0  0  0  0  0  0  0  0  0  0  0  0
   -3.6655   -3.3886    1.6808 C   0  0  0  0  0  0  0  0  0  0  0  0
   -4.2261   -4.2692    0.6069 C   0  0  0  0  0  0  0  0  0  0  0  0
   -5.1754   -3.4772   -0.2939 C   0  0  0  0  0  0  0  0  0  0  0  0
   -4.1311   -3.3100    2.9663 C   0  0  0  0  0  0  0  0  0  0  0  0
   -5.2079   -4.1014    3.6257 C   0  0  0  0  0  0  0  0  0  0  0  0
   -4.6274   -5.3418    4.3111 C   0  0  0  0  0  0  0  0  0  0  0  0
   -3.2403   -2.1561    3.8984 S   0  0  0  0  0  0  0  0  0  0  0  0
   -0.9827    0.2498    1.7416 C   0  0  0  0  0  0  0  0  0  0  0  0
    0.0661    1.2339    1.9501 C   0  0  0  0  0  0  0  0  0  0  0  0
    1.0315    1.0800    2.9068 C   0  0  0  0  0  0  0  0  0  0  0  0
    2.1580    1.9256    3.1383 C   0  0  0  0  0  0  0  0  0  0  0  0
    2.9671    1.9094    4.2517 C   0  0  0  0  0  0  0  0  0  0  0  0
    4.0163    2.8462    4.2135 C   0  0  0  0  0  0  0  0  0  0  0  0
    5.0328    2.9521    5.3084 C   0  0  0  0  0  0  0  0  0  0  0  0
    6.1017    1.8700    5.1489 C   0  0  0  0  0  0  0  0  0  0  0  0
    4.0165    3.5806    3.0569 C   0  0  0  0  0  0  0  0  0  0  0  0
    2.7032    3.1388    2.0174 S   0  0  0  0  0  0  0  0  0  0  0  0
    4.9253    4.6899    2.6508 C   0  0  0  0  0  0  0  0  0  0  0  0
    4.3701    6.0447    3.0992 C   0  0  0  0  0  0  0  0  0  0  0  0
    0.9640   -0.1843    3.6166 C   0  0  0  0  0  0  0  0  0  0  0  0
    1.9856   -1.0538    3.7164 C   0  0  0  0  0  0  0  0  0  0  0  0
    3.6766   -0.9104    3.3333 S   0  0  0  0  0  0  0  0  0  0  0  0
    0.0357    2.5306    0.7644 S   0  0  0  0  0  0  0  0  0  0  0  0
   -1.2800    1.7513   -0.0689 C   0  0  0  0  0  0  0  0  0  0  0  0
   -1.9517    2.0640   -1.2442 C   0  0  0  0  0  0  0  0  0  0  0  0
   -2.9228    1.1250   -1.5433 C   0  0  0  0  0  0  0  0  0  0  0  0
   -3.0235   -0.1134   -0.2919 S   0  0  0  0  0  0  0  0  0  0  0  0
   -1.7076    0.5829    0.5604 C   0  0  0  0  0  0  0  0  0  0  0  0
   -3.7628    0.9491   -2.6595 C   0  0  0  0  0  0  0  0  0  0  0  0
   -3.5840    1.3884   -3.9432 C   0  0  0  0  0  0  0  0  0  0  0  0
   -2.3570    1.9948   -4.5106 C   0  0  0  0  0  0  0  0  0  0  0  0
   -1.4272    2.5182   -3.9408 O   0  0  0  0  0  0  0  0  0  0  0  0
   -2.4837    1.8183   -5.9769 C   0  0  0  0  0  0  0  0  0  0  0  0
   -1.5474    2.0975   -6.9502 C   0  0  0  0  0  0  0  0  0  0  0  0
   -1.8996    1.8402   -8.2713 C   0  0  0  0  0  0  0  0  0  0  0  0
   -0.9008    2.0874   -9.3684 C   0  0  0  0  0  0  0  0  0  0  0  0
   -0.1858    0.9800   -9.6506 F   0  0  0  0  0  0  0  0  0  0  0  0
   -1.4780    2.4609  -10.5206 F   0  0  0  0  0  0  0  0  0  0  0  0
   -0.0113    3.0396   -9.0589 F   0  0  0  0  0  0  0  0  0  0  0  0
   -3.1471    1.3163   -8.5953 C   0  0  0  0  0  0  0  0  0  0  0  0
   -4.0823    1.0378   -7.6089 C   0  0  0  0  0  0  0  0  0  0  0  0
   -3.7465    1.2888   -6.2871 C   0  0  0  0  0  0  0  0  0  0  0  0
   -4.4816    1.0810   -5.0400 C   0  0  0  0  0  0  0  0  0  0  0  0
   -5.8002    0.7239   -4.9409 C   0  0  0  0  0  0  0  0  0  0  0  0
   -6.5136    0.6040   -3.7286 C   0  0  0  0  0  0  0  0  0  0  0  0
   -7.1623    0.5014   -2.7868 N   0  0  0  0  0  0  0  0  0  0  0  0
   -6.6347    0.4697   -6.0496 C   0  0  0  0  0  0  0  0  0  0  0  0
   -7.3608    0.2496   -6.9106 N   0  0  0  0  0  0  0  0  0  0  0  0
    5.2274   -3.5861    1.8123 H   0  0  0  0  0  0  0  0  0  0  0  0
    0.1803   -1.2079   -1.0707 H   0  0  0  0  0  0  0  0  0  0  0  0
    2.2135   -2.1468   -4.7323 H   0  0  0  0  0  0  0  0  0  0  0  0
    4.0461   -3.2068   -3.4951 H   0  0  0  0  0  0  0  0  0  0  0  0
    4.7171   -2.9984    3.9496 H   0  0  0  0  0  0  0  0  0  0  0  0
    2.4921   -4.3903    3.9346 H   0  0  0  0  0  0  0  0  0  0  0  0
   -0.9045   -0.3044    4.7254 H   0  0  0  0  0  0  0  0  0  0  0  0
   -2.0741   -2.4555    0.5034 H   0  0  0  0  0  0  0  0  0  0  0  0
   -4.7558   -5.1145    1.0468 H   0  0  0  0  0  0  0  0  0  0  0  0
   -3.4030   -4.6620    0.0061 H   0  0  0  0  0  0  0  0  0  0  0  0
   -5.5721   -4.1148   -1.0800 H   0  0  0  0  0  0  0  0  0  0  0  0
   -6.0068   -3.0809    0.2842 H   0  0  0  0  0  0  0  0  0  0  0  0
   -4.6524   -2.6414   -0.7530 H   0  0  0  0  0  0  0  0  0  0  0  0
   -5.7067   -3.4810    4.3728 H   0  0  0  0  0  0  0  0  0  0  0  0
   -5.9491   -4.4025    2.8835 H   0  0  0  0  0  0  0  0  0  0  0  0
   -5.4189   -5.9108    4.7920 H   0  0  0  0  0  0  0  0  0  0  0  0
   -4.1298   -5.9802    3.5848 H   0  0  0  0  0  0  0  0  0  0  0  0
   -3.9005   -5.0484    5.0650 H   0  0  0  0  0  0  0  0  0  0  0  0
    2.7873    1.2650    5.0938 H   0  0  0  0  0  0  0  0  0  0  0  0
    4.5313    2.8246    6.2700 H   0  0  0  0  0  0  0  0  0  0  0  0
    5.5009    3.9368    5.2991 H   0  0  0  0  0  0  0  0  0  0  0  0
    6.6327    1.9975    4.2082 H   0  0  0  0  0  0  0  0  0  0  0  0
    5.6422    0.8844    5.1469 H   0  0  0  0  0  0  0  0  0  0  0  0
    6.8193    1.9218    5.9641 H   0  0  0  0  0  0  0  0  0  0  0  0
    5.0309    4.6899    1.5642 H   0  0  0  0  0  0  0  0  0  0  0  0
    5.9127    4.5338    3.0890 H   0  0  0  0  0  0  0  0  0  0  0  0
    3.3928    6.2148    2.6536 H   0  0  0  0  0  0  0  0  0  0  0  0
    5.0375    6.8454    2.7912 H   0  0  0  0  0  0  0  0  0  0  0  0
    4.2650    6.0744    4.1814 H   0  0  0  0  0  0  0  0  0  0  0  0
   -1.7433    2.9239   -1.8495 H   0  0  0  0  0  0  0  0  0  0  0  0
   -4.6004    0.2843   -2.4811 H   0  0  0  0  0  0  0  0  0  0  0  0
   -0.5809    2.4972   -6.6848 H   0  0  0  0  0  0  0  0  0  0  0  0
   -3.3892    1.1255   -9.6297 H   0  0  0  0  0  0  0  0  0  0  0  0
   -5.0398    0.6262   -7.8824 H   0  0  0  0  0  0  0  0  0  0  0  0
  1  2  2  0  0  0  0
  2  3  1  0  0  0  0
  3  4  2  0  0  0  0
  3  5  1  0  0  0  0
  5  6  2  0  0  0  0
  6  7  1  0  0  0  0
  7  8  1  0  0  0  0
  8  9  1  0  0  0  0
  8 10  1  0  0  0  0
  8 11  1  0  0  0  0
  7 12  2  0  0  0  0
 12 13  1  0  0  0  0
 13 14  2  0  0  0  0
 14 15  1  0  0  0  0
 15 16  2  0  0  0  0
 16 17  1  0  0  0  0
 17 18  3  0  0  0  0
 16 19  1  0  0  0  0
 19 20  3  0  0  0  0
  1 21  1  0  0  0  0
 21 22  1  0  0  0  0
 22 23  2  0  0  0  0
 23 24  1  0  0  0  0
 24 25  1  0  0  0  0
 25 26  1  0  0  0  0
 26 27  1  0  0  0  0
 27 28  2  0  0  0  0
 28 29  1  0  0  0  0
 29 30  1  0  0  0  0
 30 31  1  0  0  0  0
 29 32  2  0  0  0  0
 32 33  1  0  0  0  0
 33 34  1  0  0  0  0
 32 35  1  0  0  0  0
 26 36  2  0  0  0  0
 36 37  1  0  0  0  0
 37 38  2  0  0  0  0
 38 39  1  0  0  0  0
 39 40  2  0  0  0  0
 40 41  1  0  0  0  0
 41 42  1  0  0  0  0
 42 43  1  0  0  0  0
 41 44  2  0  0  0  0
 44 45  1  0  0  0  0
 44 46  1  0  0  0  0
 46 47  1  0  0  0  0
 38 48  1  0  0  0  0
 48 49  2  0  0  0  0
 49 50  1  0  0  0  0
 37 51  1  0  0  0  0
 51 52  1  0  0  0  0
 52 53  1  0  0  0  0
 53 54  2  0  0  0  0
 54 55  1  0  0  0  0
 55 56  1  0  0  0  0
 54 57  1  0  0  0  0
 57 58  2  0  0  0  0
 58 59  1  0  0  0  0
 59 60  2  0  0  0  0
 59 61  1  0  0  0  0
 61 62  2  0  0  0  0
 62 63  1  0  0  0  0
 63 64  1  0  0  0  0
 64 65  1  0  0  0  0
 64 66  1  0  0  0  0
 64 67  1  0  0  0  0
 63 68  2  0  0  0  0
 68 69  1  0  0  0  0
 69 70  2  0  0  0  0
 70 71  1  0  0  0  0
 71 72  2  0  0  0  0
 72 73  1  0  0  0  0
 73 74  3  0  0  0  0
 72 75  1  0  0  0  0
 75 76  3  0  0  0  0
 15  2  1  0  0  0  0
 50 21  1  0  0  0  0
 56 52  2  0  0  0  0
 71 58  1  0  0  0  0
 14  5  1  0  0  0  0
 49 23  1  0  0  0  0
 70 61  1  0  0  0  0
 48 25  1  0  0  0  0
 35 27  1  0  0  0  0
 56 36  1  0  0  0  0
 45 39  1  0  0  0  0
  1 77  1  0  0  0  0
  6 78  1  0  0  0  0
 12 79  1  0  0  0  0
 13 80  1  0  0  0  0
 21 81  1  0  0  0  0
 22 82  1  0  0  0  0
 25 83  1  0  0  0  0
 28 84  1  0  0  0  0
 30 85  1  0  0  0  0
 30 86  1  0  0  0  0
 31 87  1  0  0  0  0
 31 88  1  0  0  0  0
 31 89  1  0  0  0  0
 33 90  1  0  0  0  0
 33 91  1  0  0  0  0
 34 92  1  0  0  0  0
 34 93  1  0  0  0  0
 34 94  1  0  0  0  0
 40 95  1  0  0  0  0
 42 96  1  0  0  0  0
 42 97  1  0  0  0  0
 43 98  1  0  0  0  0
 43 99  1  0  0  0  0
 43100  1  0  0  0  0
 46101  1  0  0  0  0
 46102  1  0  0  0  0
 47103  1  0  0  0  0
 47104  1  0  0  0  0
 47105  1  0  0  0  0
 53106  1  0  0  0  0
 57107  1  0  0  0  0
 62108  1  0  0  0  0
 68109  1  0  0  0  0
 69110  1  0  0  0  0
M  END
