
  xtb     02112203173D
 energy: -205.664707235526 gnorm: 0.000895929360 xtb: 6.4.1 (unknown)
116130  0     0  0            999 V2000
   -3.7579    6.7831    4.0812 C   0  0  0  0  0  0  0  0  0  0  0  0
   -4.9964    6.1836    4.1268 C   0  0  0  0  0  0  0  0  0  0  0  0
   -5.3201    4.8349    3.6620 C   0  0  0  0  0  0  0  0  0  0  0  0
   -4.5813    4.0353    3.1121 O   0  0  0  0  0  0  0  0  0  0  0  0
   -6.7417    4.6168    3.9960 C   0  0  0  0  0  0  0  0  0  0  0  0
   -7.5099    3.4912    3.7920 C   0  0  0  0  0  0  0  0  0  0  0  0
   -8.8402    3.5238    4.2117 C   0  0  0  0  0  0  0  0  0  0  0  0
   -9.7415    2.3540    4.0457 C   0  0  0  0  0  0  0  0  0  0  0  0
  -10.9009    2.3397    4.3767 O   0  0  0  0  0  0  0  0  0  0  0  0
   -9.1205    1.3054    3.4901 O   0  0  0  0  0  0  0  0  0  0  0  0
   -9.9143    0.1426    3.3066 C   0  0  0  0  0  0  0  0  0  0  0  0
   -9.3591    4.6708    4.8114 C   0  0  0  0  0  0  0  0  0  0  0  0
   -8.5827    5.8015    5.0140 C   0  0  0  0  0  0  0  0  0  0  0  0
   -7.2578    5.7754    4.6050 C   0  0  0  0  0  0  0  0  0  0  0  0
   -6.1923    6.7768    4.6860 C   0  0  0  0  0  0  0  0  0  0  0  0
   -6.3399    8.0418    5.1980 C   0  0  0  0  0  0  0  0  0  0  0  0
   -5.3320    9.0252    5.2714 C   0  0  0  0  0  0  0  0  0  0  0  0
   -4.5709    9.8811    5.3664 N   0  0  0  0  0  0  0  0  0  0  0  0
   -7.5458    8.5494    5.7256 C   0  0  0  0  0  0  0  0  0  0  0  0
   -8.4899    9.0291    6.1690 N   0  0  0  0  0  0  0  0  0  0  0  0
   -2.5346    6.3222    3.5936 C   0  0  0  0  0  0  0  0  0  0  0  0
   -1.3474    7.0752    3.6655 C   0  0  0  0  0  0  0  0  0  0  0  0
   -1.2240    8.4654    4.1971 C   0  0  0  0  0  0  0  0  0  0  0  0
   -1.6043    9.4901    3.1257 C   0  0  0  0  0  0  0  0  0  0  0  0
   -0.2715    6.3917    3.1208 C   0  0  0  0  0  0  0  0  0  0  0  0
    1.5678    6.8341    2.9418 Se  0  0  0  0  0  2  0  0  0  0  0  0
    1.7100    5.1498    2.1681 C   0  0  0  0  0  0  0  0  0  0  0  0
    2.7019    4.3147    1.6515 C   0  0  0  0  0  0  0  0  0  0  0  0
    4.0971    4.5173    1.6086 C   0  0  0  0  0  0  0  0  0  0  0  0
    4.9258    3.4551    1.1388 C   0  0  0  0  0  0  0  0  0  0  0  0
    6.2146    3.7515    1.1878 N   0  0  0  0  0  0  0  0  0  0  0  0
    6.3666    5.2542    1.7801 S   0  0  0  0  0  0  0  0  0  0  0  0
    4.7905    5.5763    1.9946 N   0  0  0  0  0  0  0  0  0  0  0  0
    4.3086    2.2812    0.6587 C   0  0  0  0  0  0  0  0  0  0  0  0
    4.8939    1.1598    0.0674 C   0  0  0  0  0  0  0  0  0  0  0  0
    6.5931    0.5237   -0.3379 Se  0  0  0  0  0  2  0  0  0  0  0  0
    5.6578   -0.9374   -1.1110 C   0  0  0  0  0  0  0  0  0  0  0  0
    6.0927   -2.0786   -1.7715 C   0  0  0  0  0  0  0  0  0  0  0  0
    7.5425   -2.4029   -1.9277 C   0  0  0  0  0  0  0  0  0  0  0  0
    8.0153   -3.3297   -0.8053 C   0  0  0  0  0  0  0  0  0  0  0  0
    5.0170   -2.8737   -2.1990 C   0  0  0  0  0  0  0  0  0  0  0  0
    3.4634   -2.1659   -1.7619 S   0  0  0  0  0  0  0  0  0  0  0  0
    4.2598   -0.8352   -1.0058 C   0  0  0  0  0  0  0  0  0  0  0  0
    3.8456    0.3257   -0.3394 C   0  0  0  0  0  0  0  0  0  0  0  0
    2.6472    0.8956   -0.0030 N   0  0  0  0  0  0  0  0  0  0  0  0
    2.8933    2.0959    0.6363 C   0  0  0  0  0  0  0  0  0  0  0  0
    2.0740    3.1061    1.2215 C   0  0  0  0  0  0  0  0  0  0  0  0
    0.7296    3.2142    1.5195 N   0  0  0  0  0  0  0  0  0  0  0  0
    0.5040    4.4426    2.0821 C   0  0  0  0  0  0  0  0  0  0  0  0
   -0.5983    5.1180    2.6174 C   0  0  0  0  0  0  0  0  0  0  0  0
   -2.2693    4.7530    2.8330 S   0  0  0  0  0  0  0  0  0  0  0  0
   -0.3704    2.2829    1.4237 C   0  0  0  0  0  0  0  0  0  0  0  0
   -1.2589    2.5757    0.2151 C   0  0  0  0  0  0  0  0  0  0  0  0
    1.4252    0.2493   -0.4212 C   0  0  0  0  0  0  0  0  0  0  0  0
    1.0387   -0.8954    0.5154 C   0  0  0  0  0  0  0  0  0  0  0  0
    5.1880   -4.0808   -2.8858 C   0  0  0  0  0  0  0  0  0  0  0  0
    4.2699   -4.9538   -3.4133 C   0  0  0  0  0  0  0  0  0  0  0  0
    2.8155   -4.7801   -3.4255 C   0  0  0  0  0  0  0  0  0  0  0  0
    2.1678   -3.8921   -2.8944 O   0  0  0  0  0  0  0  0  0  0  0  0
    2.2720   -5.8906   -4.2251 C   0  0  0  0  0  0  0  0  0  0  0  0
    0.9364   -6.1153   -4.5517 C   0  0  0  0  0  0  0  0  0  0  0  0
    0.7320   -7.2256   -5.3352 C   0  0  0  0  0  0  0  0  0  0  0  0
    1.7783   -8.0558   -5.7580 C   0  0  0  0  0  0  0  0  0  0  0  0
    3.0991   -7.8494   -5.4367 C   0  0  0  0  0  0  0  0  0  0  0  0
    3.3308   -6.7209   -4.6448 C   0  0  0  0  0  0  0  0  0  0  0  0
    4.5843   -6.1778   -4.1226 C   0  0  0  0  0  0  0  0  0  0  0  0
    5.8192   -6.7584   -4.2673 C   0  0  0  0  0  0  0  0  0  0  0  0
    7.0279   -6.2678   -3.7318 C   0  0  0  0  0  0  0  0  0  0  0  0
    8.0524   -5.9442   -3.3238 N   0  0  0  0  0  0  0  0  0  0  0  0
    6.0620   -7.9594   -4.9660 C   0  0  0  0  0  0  0  0  0  0  0  0
    6.3423   -8.9273   -5.5168 N   0  0  0  0  0  0  0  0  0  0  0  0
    0.8528   -8.9673   -6.5248 C   0  0  0  0  0  0  0  0  0  0  0  0
    0.8309   -8.7934   -8.0582 C   0  0  0  0  0  0  0  0  0  0  0  0
   -0.4688   -9.4414   -8.4777 C   0  0  0  0  0  0  0  0  0  0  0  0
   -1.4596   -8.6543   -8.0784 C   0  0  0  0  0  0  0  0  0  0  0  0
   -0.8461   -7.4609   -7.3821 C   0  0  0  0  0  0  0  0  0  0  0  0
    0.4450   -7.3150   -8.1978 C   0  0  0  0  0  0  0  0  0  0  0  0
   -0.3141   -8.0410   -6.0541 C   0  0  0  0  0  0  0  0  0  0  0  0
   -3.7016    7.7779    4.5012 H   0  0  0  0  0  0  0  0  0  0  0  0
   -7.0909    2.6142    3.3253 H   0  0  0  0  0  0  0  0  0  0  0  0
  -10.3605   -0.1651    4.2545 H   0  0  0  0  0  0  0  0  0  0  0  0
   -9.2451   -0.6261    2.9293 H   0  0  0  0  0  0  0  0  0  0  0  0
  -10.7150    0.3397    2.5907 H   0  0  0  0  0  0  0  0  0  0  0  0
  -10.3932    4.6576    5.1215 H   0  0  0  0  0  0  0  0  0  0  0  0
   -9.0144    6.6700    5.4834 H   0  0  0  0  0  0  0  0  0  0  0  0
   -0.1798    8.6230    4.4860 H   0  0  0  0  0  0  0  0  0  0  0  0
   -1.8486    8.6118    5.0793 H   0  0  0  0  0  0  0  0  0  0  0  0
   -1.4939   10.4956    3.5212 H   0  0  0  0  0  0  0  0  0  0  0  0
   -2.6372    9.3556    2.8136 H   0  0  0  0  0  0  0  0  0  0  0  0
   -0.9593    9.3812    2.2562 H   0  0  0  0  0  0  0  0  0  0  0  0
    7.7449   -2.8674   -2.8937 H   0  0  0  0  0  0  0  0  0  0  0  0
    8.1031   -1.4639   -1.8745 H   0  0  0  0  0  0  0  0  0  0  0  0
    9.0778   -3.5270   -0.9129 H   0  0  0  0  0  0  0  0  0  0  0  0
    7.8399   -2.8661    0.1634 H   0  0  0  0  0  0  0  0  0  0  0  0
    7.4860   -4.2787   -0.8406 H   0  0  0  0  0  0  0  0  0  0  0  0
    0.0111    1.2661    1.4104 H   0  0  0  0  0  0  0  0  0  0  0  0
   -0.9733    2.3997    2.3301 H   0  0  0  0  0  0  0  0  0  0  0  0
   -1.7469    3.5387    0.3373 H   0  0  0  0  0  0  0  0  0  0  0  0
   -0.6842    2.6028   -0.7089 H   0  0  0  0  0  0  0  0  0  0  0  0
   -2.0277    1.8129    0.1325 H   0  0  0  0  0  0  0  0  0  0  0  0
    1.6022   -0.1662   -1.4185 H   0  0  0  0  0  0  0  0  0  0  0  0
    0.6340    0.9886   -0.5076 H   0  0  0  0  0  0  0  0  0  0  0  0
    1.0126   -0.5714    1.5542 H   0  0  0  0  0  0  0  0  0  0  0  0
    0.0620   -1.2822    0.2393 H   0  0  0  0  0  0  0  0  0  0  0  0
    1.7605   -1.7031    0.4323 H   0  0  0  0  0  0  0  0  0  0  0  0
    6.2271   -4.3445   -3.0278 H   0  0  0  0  0  0  0  0  0  0  0  0
    0.1611   -5.4516   -4.2019 H   0  0  0  0  0  0  0  0  0  0  0  0
    3.8908   -8.4992   -5.7698 H   0  0  0  0  0  0  0  0  0  0  0  0
    0.8485  -10.0103   -6.2145 H   0  0  0  0  0  0  0  0  0  0  0  0
    1.7310   -9.1271   -8.5670 H   0  0  0  0  0  0  0  0  0  0  0  0
   -0.5336  -10.4005   -8.9570 H   0  0  0  0  0  0  0  0  0  0  0  0
   -2.5173   -8.8245   -8.1572 H   0  0  0  0  0  0  0  0  0  0  0  0
   -1.4740   -6.5803   -7.2757 H   0  0  0  0  0  0  0  0  0  0  0  0
    0.2490   -7.0370   -9.2320 H   0  0  0  0  0  0  0  0  0  0  0  0
    1.1677   -6.6248   -7.7663 H   0  0  0  0  0  0  0  0  0  0  0  0
   -1.0982   -8.4667   -5.4307 H   0  0  0  0  0  0  0  0  0  0  0  0
  1  2  2  0  0  0  0
  2  3  1  0  0  0  0
  3  4  2  0  0  0  0
  3  5  1  0  0  0  0
  5  6  2  0  0  0  0
  6  7  1  0  0  0  0
  7  8  1  0  0  0  0
  8  9  2  0  0  0  0
  8 10  1  0  0  0  0
 10 11  1  0  0  0  0
  7 12  2  0  0  0  0
 12 13  1  0  0  0  0
 13 14  2  0  0  0  0
 14 15  1  0  0  0  0
 15 16  2  0  0  0  0
 16 17  1  0  0  0  0
 17 18  3  0  0  0  0
 16 19  1  0  0  0  0
 19 20  3  0  0  0  0
  1 21  1  0  0  0  0
 21 22  2  0  0  0  0
 22 23  1  0  0  0  0
 23 24  1  0  0  0  0
 22 25  1  0  0  0  0
 25 26  1  0  0  0  0
 26 27  1  0  0  0  0
 27 28  1  0  0  0  0
 28 29  1  0  0  0  0
 29 30  1  0  0  0  0
 30 31  2  0  0  0  0
 31 32  1  0  0  0  0
 32 33  1  0  0  0  0
 30 34  1  0  0  0  0
 34 35  1  0  0  0  0
 35 36  1  0  0  0  0
 36 37  1  0  0  0  0
 37 38  1  0  0  0  0
 38 39  1  0  0  0  0
 39 40  1  0  0  0  0
 38 41  2  0  0  0  0
 41 42  1  0  0  0  0
 42 43  1  0  0  0  0
 43 44  1  0  0  0  0
 44 45  1  0  0  0  0
 45 46  1  0  0  0  0
 46 47  1  0  0  0  0
 47 48  1  0  0  0  0
 48 49  1  0  0  0  0
 49 50  1  0  0  0  0
 50 51  1  0  0  0  0
 48 52  1  0  0  0  0
 52 53  1  0  0  0  0
 45 54  1  0  0  0  0
 54 55  1  0  0  0  0
 41 56  1  0  0  0  0
 56 57  2  0  0  0  0
 57 58  1  0  0  0  0
 58 59  2  0  0  0  0
 58 60  1  0  0  0  0
 60 61  2  0  0  0  0
 61 62  1  0  0  0  0
 62 63  2  0  0  0  0
 63 64  1  0  0  0  0
 64 65  2  0  0  0  0
 65 66  1  0  0  0  0
 66 67  2  0  0  0  0
 67 68  1  0  0  0  0
 68 69  3  0  0  0  0
 67 70  1  0  0  0  0
 70 71  3  0  0  0  0
 63 72  1  0  0  0  0
 72 73  1  0  0  0  0
 73 74  1  0  0  0  0
 74 75  2  0  0  0  0
 75 76  1  0  0  0  0
 76 77  1  0  0  0  0
 76 78  1  0  0  0  0
 15  2  1  0  0  0  0
 51 21  1  0  0  0  0
 66 57  1  0  0  0  0
 78 72  1  0  0  0  0
 14  5  1  0  0  0  0
 50 25  2  0  0  0  0
 65 60  1  0  0  0  0
 77 73  1  0  0  0  0
 49 27  2  0  0  0  0
 78 62  1  0  0  0  0
 47 28  2  0  0  0  0
 33 29  2  0  0  0  0
 46 34  2  0  0  0  0
 44 35  2  0  0  0  0
 43 37  2  0  0  0  0
  1 79  1  0  0  0  0
  6 80  1  0  0  0  0
 11 81  1  0  0  0  0
 11 82  1  0  0  0  0
 11 83  1  0  0  0  0
 12 84  1  0  0  0  0
 13 85  1  0  0  0  0
 23 86  1  0  0  0  0
 23 87  1  0  0  0  0
 24 88  1  0  0  0  0
 24 89  1  0  0  0  0
 24 90  1  0  0  0  0
 39 91  1  0  0  0  0
 39 92  1  0  0  0  0
 40 93  1  0  0  0  0
 40 94  1  0  0  0  0
 40 95  1  0  0  0  0
 52 96  1  0  0  0  0
 52 97  1  0  0  0  0
 53 98  1  0  0  0  0
 53 99  1  0  0  0  0
 53100  1  0  0  0  0
 54101  1  0  0  0  0
 54102  1  0  0  0  0
 55103  1  0  0  0  0
 55104  1  0  0  0  0
 55105  1  0  0  0  0
 56106  1  0  0  0  0
 61107  1  0  0  0  0
 64108  1  0  0  0  0
 72109  1  0  0  0  0
 73110  1  0  0  0  0
 74111  1  0  0  0  0
 75112  1  0  0  0  0
 76113  1  0  0  0  0
 77114  1  0  0  0  0
 77115  1  0  0  0  0
 78116  1  0  0  0  0
M  END
