91

C          5.25540        1.77570        5.35900
C          5.95160        2.88130        4.92540
C          5.72640        3.57340        3.66360
O          4.88010        3.31190        2.81750
C          6.71880        4.65990        3.59700
C          6.92780        5.58970        2.60210
C          7.94630        6.52810        2.78000
C          8.16900        7.53080        1.70390
O          7.52960        7.57740        0.68300
O          9.16260        8.38000        1.99310
C          9.43650        9.37130        1.01350
C          8.72180        6.51190        3.93780
C          8.50820        5.57350        4.93750
C          7.49910        4.63800        4.76920
C          7.03630        3.54170        5.62360
C          7.55030        3.23340        6.85610
C          7.10600        2.19090        7.69700
N          6.80520        1.36960        8.44160
C          8.61020        3.93250        7.47270
N          9.46840        4.44880        8.03330
C          4.20780        1.06660        4.76140
C          3.65690       -0.05730        5.38640
C          2.63270       -0.67200        4.69500
S          1.67940       -2.08880        5.09840
C          0.81600       -1.88770        3.61590
C         -0.23610       -2.48480        2.91350
C         -1.08240       -3.55850        3.26860
C         -2.16310       -3.90160        2.39520
N         -2.90310       -4.89170        2.86910
S         -2.28760       -5.35470        4.29220
N         -1.05460       -4.30890        4.35870
C         -2.28710       -3.21750        1.16590
C         -3.17230       -3.42150        0.10070
C         -2.78770       -2.54660       -0.92400
N         -1.71840       -1.79250       -0.51570
C         -0.94650       -1.07020       -1.50090
C          0.38070       -1.76570       -1.79180
C         -1.38860       -2.18070        0.77380
C         -0.40600       -1.74510        1.70300
N          0.51230       -0.70880        1.70270
C          1.24500       -0.79110        2.85730
C          2.28380       -0.07760        3.46190
Se         3.34710        1.41550        3.10270
C          0.55470        0.51050        0.92800
C         -0.71970        1.33130        1.10710
C         -3.57930       -2.68530       -2.06750
C         -4.57130       -3.67430       -1.88130
S         -4.51730       -4.42470       -0.30100
C         -5.42120       -3.91060       -2.95190
C         -5.16870       -3.12930       -4.06840
Se        -3.70140       -1.93840       -3.76750
C         -5.77700       -3.05080       -5.33130
C         -6.79470       -3.76470       -5.91350
C         -7.52960       -4.92960       -5.37830
O         -7.46140       -5.44160       -4.28010
C         -8.40270       -5.38810       -6.47990
C         -9.26270       -6.46680       -6.49220
C         -9.98270       -6.72070       -7.65270
Cl       -11.06430       -8.05240       -7.71190
C         -9.82640       -5.89510       -8.77170
Cl       -10.71520       -6.22380      -10.20400
C         -8.96130       -4.80660       -8.75150
C         -8.24430       -4.54920       -7.59410
C         -7.28000       -3.50340       -7.25910
C         -6.95400       -2.45340       -8.07900
C         -6.08110       -1.38730       -7.77330
N         -5.39640       -0.47810       -7.61390
C         -7.48450       -2.26920       -9.37440
N         -7.86430       -2.05640      -10.43650
H          5.55410        1.36220        6.31570
H          6.32730        5.60240        1.70540
H          9.64860        8.90380        0.04990
H          8.57870       10.03710        0.89880
H         10.30200        9.92180        1.37250
H          9.50340        7.24600        4.05400
H          9.12590        5.58620        5.82030
H          4.01730       -0.40770        6.33900
H         -1.54880       -1.05140       -2.41640
H         -0.80440       -0.03390       -1.19560
H          0.94560       -1.19580       -2.52440
H          0.97780       -1.87010       -0.88870
H          0.19800       -2.75970       -2.19350
H          1.40820        1.08860        1.30170
H          0.75540        0.29460       -0.12100
H         -0.82690        1.62620        2.14830
H         -1.60110        0.75970        0.82460
H         -0.67040        2.22980        0.49830
H         -6.21170       -4.64030       -2.93390
H         -5.33560       -2.28450       -5.96030
H         -9.36930       -7.09440       -5.62160
H         -8.86840       -4.19670       -9.63480
