116

C         -3.75790        6.78310        4.08120
C         -4.99640        6.18360        4.12680
C         -5.32010        4.83490        3.66200
O         -4.58130        4.03530        3.11210
C         -6.74170        4.61680        3.99600
C         -7.50990        3.49120        3.79200
C         -8.84020        3.52380        4.21170
C         -9.74150        2.35400        4.04570
O        -10.90090        2.33970        4.37670
O         -9.12050        1.30540        3.49010
C         -9.91430        0.14260        3.30660
C         -9.35910        4.67080        4.81140
C         -8.58270        5.80150        5.01400
C         -7.25780        5.77540        4.60500
C         -6.19230        6.77680        4.68600
C         -6.33990        8.04180        5.19800
C         -5.33200        9.02520        5.27140
N         -4.57090        9.88110        5.36640
C         -7.54580        8.54940        5.72560
N         -8.48990        9.02910        6.16900
C         -2.53460        6.32220        3.59360
C         -1.34740        7.07520        3.66550
C         -1.22400        8.46540        4.19710
C         -1.60430        9.49010        3.12570
C         -0.27150        6.39170        3.12080
Se         1.56780        6.83410        2.94180
C          1.71000        5.14980        2.16810
C          2.70190        4.31470        1.65150
C          4.09710        4.51730        1.60860
C          4.92580        3.45510        1.13880
N          6.21460        3.75150        1.18780
S          6.36660        5.25420        1.78010
N          4.79050        5.57630        1.99460
C          4.30860        2.28120        0.65870
C          4.89390        1.15980        0.06740
Se         6.59310        0.52370       -0.33790
C          5.65780       -0.93740       -1.11100
C          6.09270       -2.07860       -1.77150
C          7.54250       -2.40290       -1.92770
C          8.01530       -3.32970       -0.80530
C          5.01700       -2.87370       -2.19900
S          3.46340       -2.16590       -1.76190
C          4.25980       -0.83520       -1.00580
C          3.84560        0.32570       -0.33940
N          2.64720        0.89560       -0.00300
C          2.89330        2.09590        0.63630
C          2.07400        3.10610        1.22150
N          0.72960        3.21420        1.51950
C          0.50400        4.44260        2.08210
C         -0.59830        5.11800        2.61740
S         -2.26930        4.75300        2.83300
C         -0.37040        2.28290        1.42370
C         -1.25890        2.57570        0.21510
C          1.42520        0.24930       -0.42120
C          1.03870       -0.89540        0.51540
C          5.18800       -4.08080       -2.88580
C          4.26990       -4.95380       -3.41330
C          2.81550       -4.78010       -3.42550
O          2.16780       -3.89210       -2.89440
C          2.27200       -5.89060       -4.22510
C          0.93640       -6.11530       -4.55170
C          0.73200       -7.22560       -5.33520
C          1.77830       -8.05580       -5.75800
C          3.09910       -7.84940       -5.43670
C          3.33080       -6.72090       -4.64480
C          4.58430       -6.17780       -4.12260
C          5.81920       -6.75840       -4.26730
C          7.02790       -6.26780       -3.73180
N          8.05240       -5.94420       -3.32380
C          6.06200       -7.95940       -4.96600
N          6.34230       -8.92730       -5.51680
C          0.85280       -8.96730       -6.52480
C          0.83090       -8.79340       -8.05820
C         -0.46880       -9.44140       -8.47770
C         -1.45960       -8.65430       -8.07840
C         -0.84610       -7.46090       -7.38210
C          0.44500       -7.31500       -8.19780
C         -0.31410       -8.04100       -6.05410
H         -3.70160        7.77790        4.50120
H         -7.09090        2.61420        3.32530
H        -10.36050       -0.16510        4.25450
H         -9.24510       -0.62610        2.92930
H        -10.71500        0.33970        2.59070
H        -10.39320        4.65760        5.12150
H         -9.01440        6.67000        5.48340
H         -0.17980        8.62300        4.48600
H         -1.84860        8.61180        5.07930
H         -1.49390       10.49560        3.52120
H         -2.63720        9.35560        2.81360
H         -0.95930        9.38120        2.25620
H          7.74490       -2.86740       -2.89370
H          8.10310       -1.46390       -1.87450
H          9.07780       -3.52700       -0.91290
H          7.83990       -2.86610        0.16340
H          7.48600       -4.27870       -0.84060
H          0.01110        1.26610        1.41040
H         -0.97330        2.39970        2.33010
H         -1.74690        3.53870        0.33730
H         -0.68420        2.60280       -0.70890
H         -2.02770        1.81290        0.13250
H          1.60220       -0.16620       -1.41850
H          0.63400        0.98860       -0.50760
H          1.01260       -0.57140        1.55420
H          0.06200       -1.28220        0.23930
H          1.76050       -1.70310        0.43230
H          6.22710       -4.34450       -3.02780
H          0.16110       -5.45160       -4.20190
H          3.89080       -8.49920       -5.76980
H          0.84850      -10.01030       -6.21450
H          1.73100       -9.12710       -8.56700
H         -0.53360      -10.40050       -8.95700
H         -2.51730       -8.82450       -8.15720
H         -1.47400       -6.58030       -7.27570
H          0.24900       -7.03700       -9.23200
H          1.16770       -6.62480       -7.76630
H         -1.09820       -8.46670       -5.43070
