
  xtb     02022208593D
 energy: -183.053289788881 gnorm: 0.000934459483 xtb: 6.4.1 (unknown)
 91102  0     0  0            999 V2000
    5.2554    1.7757    5.3590 C   0  0  0  0  0  0  0  0  0  0  0  0
    5.9516    2.8813    4.9254 C   0  0  0  0  0  0  0  0  0  0  0  0
    5.7264    3.5734    3.6636 C   0  0  0  0  0  0  0  0  0  0  0  0
    4.8801    3.3119    2.8175 O   0  0  0  0  0  0  0  0  0  0  0  0
    6.7188    4.6599    3.5970 C   0  0  0  0  0  0  0  0  0  0  0  0
    6.9278    5.5897    2.6021 C   0  0  0  0  0  0  0  0  0  0  0  0
    7.9463    6.5281    2.7800 C   0  0  0  0  0  0  0  0  0  0  0  0
    8.1690    7.5308    1.7039 C   0  0  0  0  0  0  0  0  0  0  0  0
    7.5296    7.5774    0.6830 O   0  0  0  0  0  0  0  0  0  0  0  0
    9.1626    8.3800    1.9931 O   0  0  0  0  0  0  0  0  0  0  0  0
    9.4365    9.3713    1.0135 C   0  0  0  0  0  0  0  0  0  0  0  0
    8.7218    6.5119    3.9378 C   0  0  0  0  0  0  0  0  0  0  0  0
    8.5082    5.5735    4.9375 C   0  0  0  0  0  0  0  0  0  0  0  0
    7.4991    4.6380    4.7692 C   0  0  0  0  0  0  0  0  0  0  0  0
    7.0363    3.5417    5.6236 C   0  0  0  0  0  0  0  0  0  0  0  0
    7.5503    3.2334    6.8561 C   0  0  0  0  0  0  0  0  0  0  0  0
    7.1060    2.1909    7.6970 C   0  0  0  0  0  0  0  0  0  0  0  0
    6.8052    1.3696    8.4416 N   0  0  0  0  0  0  0  0  0  0  0  0
    8.6102    3.9325    7.4727 C   0  0  0  0  0  0  0  0  0  0  0  0
    9.4684    4.4488    8.0333 N   0  0  0  0  0  0  0  0  0  0  0  0
    4.2078    1.0666    4.7614 C   0  0  0  0  0  0  0  0  0  0  0  0
    3.6569   -0.0573    5.3864 C   0  0  0  0  0  0  0  0  0  0  0  0
    2.6327   -0.6720    4.6950 C   0  0  0  0  0  0  0  0  0  0  0  0
    1.6794   -2.0888    5.0984 S   0  0  0  0  0  0  0  0  0  0  0  0
    0.8160   -1.8877    3.6159 C   0  0  0  0  0  0  0  0  0  0  0  0
   -0.2361   -2.4848    2.9135 C   0  0  0  0  0  0  0  0  0  0  0  0
   -1.0824   -3.5585    3.2686 C   0  0  0  0  0  0  0  0  0  0  0  0
   -2.1631   -3.9016    2.3952 C   0  0  0  0  0  0  0  0  0  0  0  0
   -2.9031   -4.8917    2.8691 N   0  0  0  0  0  0  0  0  0  0  0  0
   -2.2876   -5.3547    4.2922 S   0  0  0  0  0  0  0  0  0  0  0  0
   -1.0546   -4.3089    4.3587 N   0  0  0  0  0  0  0  0  0  0  0  0
   -2.2871   -3.2175    1.1659 C   0  0  0  0  0  0  0  0  0  0  0  0
   -3.1723   -3.4215    0.1007 C   0  0  0  0  0  0  0  0  0  0  0  0
   -2.7877   -2.5466   -0.9240 C   0  0  0  0  0  0  0  0  0  0  0  0
   -1.7184   -1.7925   -0.5157 N   0  0  0  0  0  0  0  0  0  0  0  0
   -0.9465   -1.0702   -1.5009 C   0  0  0  0  0  0  0  0  0  0  0  0
    0.3807   -1.7657   -1.7918 C   0  0  0  0  0  0  0  0  0  0  0  0
   -1.3886   -2.1807    0.7738 C   0  0  0  0  0  0  0  0  0  0  0  0
   -0.4060   -1.7451    1.7030 C   0  0  0  0  0  0  0  0  0  0  0  0
    0.5123   -0.7088    1.7027 N   0  0  0  0  0  0  0  0  0  0  0  0
    1.2450   -0.7911    2.8573 C   0  0  0  0  0  0  0  0  0  0  0  0
    2.2838   -0.0776    3.4619 C   0  0  0  0  0  0  0  0  0  0  0  0
    3.3471    1.4155    3.1027 Se  0  0  0  0  0  2  0  0  0  0  0  0
    0.5547    0.5105    0.9280 C   0  0  0  0  0  0  0  0  0  0  0  0
   -0.7197    1.3313    1.1071 C   0  0  0  0  0  0  0  0  0  0  0  0
   -3.5793   -2.6853   -2.0675 C   0  0  0  0  0  0  0  0  0  0  0  0
   -4.5713   -3.6743   -1.8813 C   0  0  0  0  0  0  0  0  0  0  0  0
   -4.5173   -4.4247   -0.3010 S   0  0  0  0  0  0  0  0  0  0  0  0
   -5.4212   -3.9106   -2.9519 C   0  0  0  0  0  0  0  0  0  0  0  0
   -5.1687   -3.1293   -4.0684 C   0  0  0  0  0  0  0  0  0  0  0  0
   -3.7014   -1.9384   -3.7675 Se  0  0  0  0  0  2  0  0  0  0  0  0
   -5.7770   -3.0508   -5.3313 C   0  0  0  0  0  0  0  0  0  0  0  0
   -6.7947   -3.7647   -5.9135 C   0  0  0  0  0  0  0  0  0  0  0  0
   -7.5296   -4.9296   -5.3783 C   0  0  0  0  0  0  0  0  0  0  0  0
   -7.4614   -5.4416   -4.2801 O   0  0  0  0  0  0  0  0  0  0  0  0
   -8.4027   -5.3881   -6.4799 C   0  0  0  0  0  0  0  0  0  0  0  0
   -9.2627   -6.4668   -6.4922 C   0  0  0  0  0  0  0  0  0  0  0  0
   -9.9827   -6.7207   -7.6527 C   0  0  0  0  0  0  0  0  0  0  0  0
  -11.0643   -8.0524   -7.7119 Cl  0  0  0  0  0  0  0  0  0  0  0  0
   -9.8264   -5.8951   -8.7717 C   0  0  0  0  0  0  0  0  0  0  0  0
  -10.7152   -6.2238  -10.2040 Cl  0  0  0  0  0  0  0  0  0  0  0  0
   -8.9613   -4.8066   -8.7515 C   0  0  0  0  0  0  0  0  0  0  0  0
   -8.2443   -4.5492   -7.5941 C   0  0  0  0  0  0  0  0  0  0  0  0
   -7.2800   -3.5034   -7.2591 C   0  0  0  0  0  0  0  0  0  0  0  0
   -6.9540   -2.4534   -8.0790 C   0  0  0  0  0  0  0  0  0  0  0  0
   -6.0811   -1.3873   -7.7733 C   0  0  0  0  0  0  0  0  0  0  0  0
   -5.3964   -0.4781   -7.6139 N   0  0  0  0  0  0  0  0  0  0  0  0
   -7.4845   -2.2692   -9.3744 C   0  0  0  0  0  0  0  0  0  0  0  0
   -7.8643   -2.0564  -10.4365 N   0  0  0  0  0  0  0  0  0  0  0  0
    5.5541    1.3622    6.3157 H   0  0  0  0  0  0  0  0  0  0  0  0
    6.3273    5.6024    1.7054 H   0  0  0  0  0  0  0  0  0  0  0  0
    9.6486    8.9038    0.0499 H   0  0  0  0  0  0  0  0  0  0  0  0
    8.5787   10.0371    0.8988 H   0  0  0  0  0  0  0  0  0  0  0  0
   10.3020    9.9218    1.3725 H   0  0  0  0  0  0  0  0  0  0  0  0
    9.5034    7.2460    4.0540 H   0  0  0  0  0  0  0  0  0  0  0  0
    9.1259    5.5862    5.8203 H   0  0  0  0  0  0  0  0  0  0  0  0
    4.0173   -0.4077    6.3390 H   0  0  0  0  0  0  0  0  0  0  0  0
   -1.5488   -1.0514   -2.4164 H   0  0  0  0  0  0  0  0  0  0  0  0
   -0.8044   -0.0339   -1.1956 H   0  0  0  0  0  0  0  0  0  0  0  0
    0.9456   -1.1958   -2.5244 H   0  0  0  0  0  0  0  0  0  0  0  0
    0.9778   -1.8701   -0.8887 H   0  0  0  0  0  0  0  0  0  0  0  0
    0.1980   -2.7597   -2.1935 H   0  0  0  0  0  0  0  0  0  0  0  0
    1.4082    1.0886    1.3017 H   0  0  0  0  0  0  0  0  0  0  0  0
    0.7554    0.2946   -0.1210 H   0  0  0  0  0  0  0  0  0  0  0  0
   -0.8269    1.6262    2.1483 H   0  0  0  0  0  0  0  0  0  0  0  0
   -1.6011    0.7597    0.8246 H   0  0  0  0  0  0  0  0  0  0  0  0
   -0.6704    2.2298    0.4983 H   0  0  0  0  0  0  0  0  0  0  0  0
   -6.2117   -4.6403   -2.9339 H   0  0  0  0  0  0  0  0  0  0  0  0
   -5.3356   -2.2845   -5.9603 H   0  0  0  0  0  0  0  0  0  0  0  0
   -9.3693   -7.0944   -5.6216 H   0  0  0  0  0  0  0  0  0  0  0  0
   -8.8684   -4.1967   -9.6348 H   0  0  0  0  0  0  0  0  0  0  0  0
  1  2  2  0  0  0  0
  2  3  1  0  0  0  0
  3  4  2  0  0  0  0
  3  5  1  0  0  0  0
  5  6  2  0  0  0  0
  6  7  1  0  0  0  0
  7  8  1  0  0  0  0
  8  9  2  0  0  0  0
  8 10  1  0  0  0  0
 10 11  1  0  0  0  0
  7 12  2  0  0  0  0
 12 13  1  0  0  0  0
 13 14  2  0  0  0  0
 14 15  1  0  0  0  0
 15 16  2  0  0  0  0
 16 17  1  0  0  0  0
 17 18  3  0  0  0  0
 16 19  1  0  0  0  0
 19 20  3  0  0  0  0
  1 21  1  0  0  0  0
 21 22  2  0  0  0  0
 22 23  1  0  0  0  0
 23 24  1  0  0  0  0
 24 25  1  0  0  0  0
 25 26  1  0  0  0  0
 26 27  1  0  0  0  0
 27 28  1  0  0  0  0
 28 29  2  0  0  0  0
 29 30  1  0  0  0  0
 30 31  1  0  0  0  0
 28 32  1  0  0  0  0
 32 33  1  0  0  0  0
 33 34  2  0  0  0  0
 34 35  1  0  0  0  0
 35 36  1  0  0  0  0
 36 37  1  0  0  0  0
 35 38  1  0  0  0  0
 38 39  1  0  0  0  0
 39 40  1  0  0  0  0
 40 41  1  0  0  0  0
 41 42  1  0  0  0  0
 42 43  1  0  0  0  0
 40 44  1  0  0  0  0
 44 45  1  0  0  0  0
 34 46  1  0  0  0  0
 46 47  2  0  0  0  0
 47 48  1  0  0  0  0
 47 49  1  0  0  0  0
 49 50  2  0  0  0  0
 50 51  1  0  0  0  0
 50 52  1  0  0  0  0
 52 53  2  0  0  0  0
 53 54  1  0  0  0  0
 54 55  2  0  0  0  0
 54 56  1  0  0  0  0
 56 57  2  0  0  0  0
 57 58  1  0  0  0  0
 58 59  1  0  0  0  0
 58 60  2  0  0  0  0
 60 61  1  0  0  0  0
 60 62  1  0  0  0  0
 62 63  2  0  0  0  0
 63 64  1  0  0  0  0
 64 65  2  0  0  0  0
 65 66  1  0  0  0  0
 66 67  3  0  0  0  0
 65 68  1  0  0  0  0
 68 69  3  0  0  0  0
 15  2  1  0  0  0  0
 43 21  1  0  0  0  0
 51 46  1  0  0  0  0
 64 53  1  0  0  0  0
 14  5  1  0  0  0  0
 42 23  2  0  0  0  0
 63 56  1  0  0  0  0
 41 25  2  0  0  0  0
 39 26  2  0  0  0  0
 31 27  2  0  0  0  0
 38 32  2  0  0  0  0
 48 33  1  0  0  0  0
  1 70  1  0  0  0  0
  6 71  1  0  0  0  0
 11 72  1  0  0  0  0
 11 73  1  0  0  0  0
 11 74  1  0  0  0  0
 12 75  1  0  0  0  0
 13 76  1  0  0  0  0
 22 77  1  0  0  0  0
 36 78  1  0  0  0  0
 36 79  1  0  0  0  0
 37 80  1  0  0  0  0
 37 81  1  0  0  0  0
 37 82  1  0  0  0  0
 44 83  1  0  0  0  0
 44 84  1  0  0  0  0
 45 85  1  0  0  0  0
 45 86  1  0  0  0  0
 45 87  1  0  0  0  0
 49 88  1  0  0  0  0
 52 89  1  0  0  0  0
 57 90  1  0  0  0  0
 62 91  1  0  0  0  0
M  END
