103

C         -0.40530        5.72870       -5.12910
C          0.73640        6.45420       -4.87670
C          1.71800        6.18250       -3.82500
O          1.68520        5.30090       -2.98390
C          2.78150        7.19380       -3.98590
C          3.93670        7.35840       -3.25450
C          4.80250        8.39380       -3.61180
C          6.05090        8.56340       -2.82270
O          6.35720        7.86760       -1.88670
O          6.80530        9.57730       -3.26570
C          8.01830        9.79940       -2.56140
C          4.49080        9.23090       -4.68170
C          3.32480        9.06280       -5.41440
C          2.46020        8.03580       -5.06640
C          1.18150        7.60450       -5.63470
C          0.54650        8.20990       -6.69020
C          1.04960        9.33210       -7.38130
N          1.39560       10.24370       -7.98740
C         -0.69050        7.82020       -7.24400
N         -1.69180        7.57310       -7.75130
C         -0.93700        4.60550       -4.49250
C         -2.12620        3.97910       -4.91250
C         -3.00400        4.43070       -6.03310
C         -3.95640        5.53660       -5.56970
C         -2.43060        2.88690       -4.11410
S         -3.75510        1.73620       -4.14650
C         -3.04840        0.93560       -2.78830
C         -3.32660       -0.13640       -1.93120
C         -4.46680       -0.97120       -1.84450
C         -4.54690       -1.90760       -0.75520
N         -5.66460       -2.60490       -0.70180
Se        -6.69730       -2.12050       -2.04580
N         -5.51940       -0.94990       -2.63830
C         -3.42650       -2.04300        0.09990
C         -3.17460       -2.96930        1.12240
S         -3.97290       -4.26200        1.94060
C         -2.50710       -4.57210        2.84750
C         -2.15790       -5.55300        3.78630
C         -3.11940       -6.51830        4.39170
C         -4.41340       -5.85010        4.85180
C         -0.82430       -5.42560        4.16520
S         -0.04210       -4.03010        3.41820
C         -1.46840       -3.68760        2.51820
C         -1.85390       -2.76910        1.53820
N         -1.29180       -1.73030        0.84120
C         -2.24500       -1.26310       -0.04950
C         -2.24990       -0.20660       -0.99810
N         -1.38220        0.83400       -1.25440
C         -1.85530        1.52020       -2.34150
C         -1.49840        2.64570       -3.08770
S         -0.21840        3.79820       -3.09650
C         -0.36260        1.43110       -0.42010
C          1.04160        1.24350       -0.99190
C          0.15190       -1.66430        0.75800
C          0.66690       -2.49690       -0.41420
C         -0.04030       -6.17780        5.06270
C         -0.10830       -7.53050        5.26790
C         -0.66830       -8.49270        4.29070
O         -1.24910       -8.23990        3.25740
C         -0.25630       -9.82610        4.77880
C         -0.49370      -11.07710        4.23330
Cl        -1.40740      -11.25520        2.79150
C          0.01740      -12.20030        4.88110
C          0.75560      -12.05790        6.04240
C          1.00370      -10.80860        6.59950
C          0.49170       -9.69080        5.96400
C          0.57470       -8.27130        6.30330
C          1.11950       -7.74750        7.44690
C          1.08290       -6.37940        7.79090
N          1.07070       -5.28620        8.14210
C          1.75670       -8.50990        8.44720
N          2.29160       -9.07280        9.29270
H         -1.00210        6.06700       -5.96500
H          4.17740        6.70930       -2.42650
H          8.49480       10.65190       -3.03820
H          7.81290       10.01110       -1.51010
H          8.65860        8.91700       -2.62220
H          5.17410       10.02390       -4.94170
H          3.11270        9.72590       -6.23680
H         -2.41200        4.79290       -6.87480
H         -3.59110        3.57440       -6.37100
H         -3.40050        6.40660       -5.22840
H         -4.59500        5.83960       -6.39420
H         -4.58160        5.18010       -4.75440
H         -3.34460       -7.29130        3.65110
H         -2.64380       -7.00820        5.24360
H         -4.97670       -5.45660        4.01070
H         -4.19670       -5.03500        5.53910
H         -5.03400       -6.57890        5.36670
H         -0.45840        1.03010        0.59000
H         -0.57120        2.50530       -0.36690
H          1.15110        1.82320       -1.90410
H          1.77820        1.59930       -0.27700
H          1.24480        0.20150       -1.22310
H          0.49460       -0.63860        0.67020
H          0.53950       -2.06870        1.69650
H          1.75150       -2.44820       -0.45500
H          0.25990       -2.12760       -1.35360
H          0.37100       -3.53690       -0.29780
H          0.73110       -5.62010        5.58180
H         -0.16790      -13.17830        4.46650
H          1.14910      -12.93790        6.52780
H          1.58650      -10.72700        7.50190
