
  xtb     02102219283D
 energy: -224.952521209508 gnorm: 0.000411507364 xtb: 6.4.1 (unknown)
126139  0     0  0            999 V2000
    0.4240    4.5518   -5.1622 C   0  0  0  0  0  0  0  0  0  0  0  0
   -0.0372    5.6437   -5.8498 C   0  0  0  0  0  0  0  0  0  0  0  0
   -1.1228    6.5419   -5.4058 C   0  0  0  0  0  0  0  0  0  0  0  0
   -1.7042    6.5253   -4.3415 O   0  0  0  0  0  0  0  0  0  0  0  0
   -1.2369    7.5760   -6.4562 C   0  0  0  0  0  0  0  0  0  0  0  0
   -2.1531    8.6003   -6.5564 C   0  0  0  0  0  0  0  0  0  0  0  0
   -2.0511    9.4638   -7.6475 C   0  0  0  0  0  0  0  0  0  0  0  0
   -3.0068   10.5838   -7.8520 C   0  0  0  0  0  0  0  0  0  0  0  0
   -2.9254   11.3883   -8.7469 O   0  0  0  0  0  0  0  0  0  0  0  0
   -3.9792   10.6002   -6.9322 O   0  0  0  0  0  0  0  0  0  0  0  0
   -4.9364   11.6407   -7.0633 C   0  0  0  0  0  0  0  0  0  0  0  0
   -1.0335    9.2939   -8.5865 C   0  0  0  0  0  0  0  0  0  0  0  0
   -0.1111    8.2653   -8.4803 C   0  0  0  0  0  0  0  0  0  0  0  0
   -0.2178    7.3912   -7.4082 C   0  0  0  0  0  0  0  0  0  0  0  0
    0.5525    6.2004   -7.0482 C   0  0  0  0  0  0  0  0  0  0  0  0
    1.5791    5.6660   -7.7855 C   0  0  0  0  0  0  0  0  0  0  0  0
    2.1095    6.2529   -8.9529 C   0  0  0  0  0  0  0  0  0  0  0  0
    2.5957    6.6749   -9.9035 N   0  0  0  0  0  0  0  0  0  0  0  0
    2.2332    4.4485   -7.5052 C   0  0  0  0  0  0  0  0  0  0  0  0
    2.7949    3.4567   -7.3615 N   0  0  0  0  0  0  0  0  0  0  0  0
   -0.2405    3.8016   -4.1748 C   0  0  0  0  0  0  0  0  0  0  0  0
   -1.5962    3.5834   -3.9207 C   0  0  0  0  0  0  0  0  0  0  0  0
   -2.7399    4.1077   -4.6737 C   0  0  0  0  0  0  0  0  0  0  0  0
   -3.6782    4.8449   -3.9501 C   0  0  0  0  0  0  0  0  0  0  0  0
   -4.7744    5.4029   -4.5754 C   0  0  0  0  0  0  0  0  0  0  0  0
   -4.9557    5.2086   -5.9332 C   0  0  0  0  0  0  0  0  0  0  0  0
   -4.0544    4.4375   -6.6435 C   0  0  0  0  0  0  0  0  0  0  0  0
   -2.9353    3.8766   -6.0391 C   0  0  0  0  0  0  0  0  0  0  0  0
   -2.0343    2.9771   -6.8462 C   0  0  0  0  0  0  0  0  0  0  0  0
   -1.6246    3.5763   -8.1918 C   0  0  0  0  0  0  0  0  0  0  0  0
   -1.7728    2.7155   -2.8358 C   0  0  0  0  0  0  0  0  0  0  0  0
   -3.2092    2.0808   -2.0646 S   0  0  0  0  0  0  0  0  0  0  0  0
   -2.1997    1.1647   -0.9992 C   0  0  0  0  0  0  0  0  0  0  0  0
   -2.3210    0.2702    0.0756 C   0  0  0  0  0  0  0  0  0  0  0  0
   -3.4446   -0.1698    0.8111 C   0  0  0  0  0  0  0  0  0  0  0  0
   -3.2422   -1.0332    1.9400 C   0  0  0  0  0  0  0  0  0  0  0  0
   -4.3721   -1.3165    2.5676 N   0  0  0  0  0  0  0  0  0  0  0  0
   -5.5868   -0.5677    1.8034 S   0  0  0  0  0  0  0  0  0  0  0  0
   -4.7180    0.1480    0.6409 N   0  0  0  0  0  0  0  0  0  0  0  0
   -1.9440   -1.5298    2.1974 C   0  0  0  0  0  0  0  0  0  0  0  0
   -1.4880   -2.5237    3.0732 C   0  0  0  0  0  0  0  0  0  0  0  0
   -2.1119   -3.5503    4.3183 S   0  0  0  0  0  0  0  0  0  0  0  0
   -0.5432   -4.3258    4.4116 C   0  0  0  0  0  0  0  0  0  0  0  0
   -0.0659   -5.3797    5.1780 C   0  0  0  0  0  0  0  0  0  0  0  0
   -0.8589   -6.0753    6.2031 C   0  0  0  0  0  0  0  0  0  0  0  0
   -1.3189   -7.3814    6.0216 C   0  0  0  0  0  0  0  0  0  0  0  0
   -1.1121   -8.1166    4.7279 C   0  0  0  0  0  0  0  0  0  0  0  0
   -2.2242   -7.7599    3.7388 C   0  0  0  0  0  0  0  0  0  0  0  0
   -2.0573   -7.9697    7.0394 C   0  0  0  0  0  0  0  0  0  0  0  0
   -2.3356   -7.2899    8.2101 C   0  0  0  0  0  0  0  0  0  0  0  0
   -1.8900   -5.9899    8.3766 C   0  0  0  0  0  0  0  0  0  0  0  0
   -1.1578   -5.3850    7.3739 C   0  0  0  0  0  0  0  0  0  0  0  0
    1.2788   -5.6686    4.8848 C   0  0  0  0  0  0  0  0  0  0  0  0
    1.9239   -4.6145    3.6296 S   0  0  0  0  0  0  0  0  0  0  0  0
    0.4066   -3.8013    3.5153 C   0  0  0  0  0  0  0  0  0  0  0  0
   -0.1402   -2.7577    2.7637 C   0  0  0  0  0  0  0  0  0  0  0  0
    0.2557   -1.9220    1.7529 N   0  0  0  0  0  0  0  0  0  0  0  0
   -0.8269   -1.1426    1.4009 C   0  0  0  0  0  0  0  0  0  0  0  0
   -0.9997   -0.1250    0.4297 C   0  0  0  0  0  0  0  0  0  0  0  0
   -0.0995    0.5601   -0.3689 N   0  0  0  0  0  0  0  0  0  0  0  0
   -0.8297    1.3331   -1.2356 C   0  0  0  0  0  0  0  0  0  0  0  0
   -0.5816    2.2252   -2.2802 C   0  0  0  0  0  0  0  0  0  0  0  0
    0.7953    2.8498   -3.1017 S   0  0  0  0  0  0  0  0  0  0  0  0
    1.2571    0.9629   -0.0631 C   0  0  0  0  0  0  0  0  0  0  0  0
    1.2801    2.3118    0.6555 C   0  0  0  0  0  0  0  0  0  0  0  0
    1.4844   -2.1792    1.0336 C   0  0  0  0  0  0  0  0  0  0  0  0
    2.7189   -1.7185    1.8096 C   0  0  0  0  0  0  0  0  0  0  0  0
    1.9780   -6.6799    5.5513 C   0  0  0  0  0  0  0  0  0  0  0  0
    3.2783   -7.1019    5.4185 C   0  0  0  0  0  0  0  0  0  0  0  0
    4.2927   -6.5032    4.5480 C   0  0  0  0  0  0  0  0  0  0  0  0
    4.1495   -5.5886    3.7532 O   0  0  0  0  0  0  0  0  0  0  0  0
    5.5483   -7.2222    4.8293 C   0  0  0  0  0  0  0  0  0  0  0  0
    6.7993   -7.0189    4.2814 C   0  0  0  0  0  0  0  0  0  0  0  0
    7.8629   -7.8133    4.6950 C   0  0  0  0  0  0  0  0  0  0  0  0
    9.2422   -7.6547    4.1447 C   0  0  0  0  0  0  0  0  0  0  0  0
    7.6008   -8.7884    5.6591 C   0  0  0  0  0  0  0  0  0  0  0  0
    8.6249   -9.5597    6.0691 F   0  0  0  0  0  0  0  0  0  0  0  0
    6.3548   -9.0137    6.2224 C   0  0  0  0  0  0  0  0  0  0  0  0
    5.3075   -8.2132    5.7961 C   0  0  0  0  0  0  0  0  0  0  0  0
    3.8917   -8.1846    6.1606 C   0  0  0  0  0  0  0  0  0  0  0  0
    3.2777   -9.0646    7.0137 C   0  0  0  0  0  0  0  0  0  0  0  0
    1.8992   -9.1067    7.3104 C   0  0  0  0  0  0  0  0  0  0  0  0
    0.7925   -9.2344    7.5913 N   0  0  0  0  0  0  0  0  0  0  0  0
    3.9547  -10.0940    7.7017 C   0  0  0  0  0  0  0  0  0  0  0  0
    4.4455  -10.9464    8.2935 N   0  0  0  0  0  0  0  0  0  0  0  0
    1.4277    4.2061   -5.3826 H   0  0  0  0  0  0  0  0  0  0  0  0
   -2.9277    8.7194   -5.8160 H   0  0  0  0  0  0  0  0  0  0  0  0
   -5.6473   11.5036   -6.2528 H   0  0  0  0  0  0  0  0  0  0  0  0
   -5.4379   11.5746   -8.0311 H   0  0  0  0  0  0  0  0  0  0  0  0
   -4.4499   12.6154   -6.9878 H   0  0  0  0  0  0  0  0  0  0  0  0
   -0.9822    9.9895   -9.4107 H   0  0  0  0  0  0  0  0  0  0  0  0
    0.6642    8.1606   -9.2215 H   0  0  0  0  0  0  0  0  0  0  0  0
   -3.5174    5.0042   -2.8955 H   0  0  0  0  0  0  0  0  0  0  0  0
   -5.4820    5.9846   -4.0050 H   0  0  0  0  0  0  0  0  0  0  0  0
   -5.8062    5.6423   -6.4379 H   0  0  0  0  0  0  0  0  0  0  0  0
   -4.2292    4.2577   -7.6935 H   0  0  0  0  0  0  0  0  0  0  0  0
   -1.1377    2.7335   -6.2769 H   0  0  0  0  0  0  0  0  0  0  0  0
   -2.5660    2.0373   -7.0278 H   0  0  0  0  0  0  0  0  0  0  0  0
   -1.2873    4.6029   -8.0683 H   0  0  0  0  0  0  0  0  0  0  0  0
   -2.4527    3.5764   -8.8953 H   0  0  0  0  0  0  0  0  0  0  0  0
   -0.8136    2.9957   -8.6259 H   0  0  0  0  0  0  0  0  0  0  0  0
   -0.1465   -7.8648    4.2864 H   0  0  0  0  0  0  0  0  0  0  0  0
   -1.1256   -9.1908    4.9188 H   0  0  0  0  0  0  0  0  0  0  0  0
   -2.0875   -8.2974    2.8033 H   0  0  0  0  0  0  0  0  0  0  0  0
   -3.1955   -8.0215    4.1519 H   0  0  0  0  0  0  0  0  0  0  0  0
   -2.2200   -6.6922    3.5299 H   0  0  0  0  0  0  0  0  0  0  0  0
   -2.4106   -8.9815    6.9098 H   0  0  0  0  0  0  0  0  0  0  0  0
   -2.9025   -7.7725    8.9917 H   0  0  0  0  0  0  0  0  0  0  0  0
   -2.1087   -5.4483    9.2846 H   0  0  0  0  0  0  0  0  0  0  0  0
   -0.7988   -4.3728    7.4941 H   0  0  0  0  0  0  0  0  0  0  0  0
    1.7303    0.2225    0.5699 H   0  0  0  0  0  0  0  0  0  0  0  0
    1.8058    1.0350   -1.0072 H   0  0  0  0  0  0  0  0  0  0  0  0
    2.3061    2.5836    0.8875 H   0  0  0  0  0  0  0  0  0  0  0  0
    0.7140    2.2544    1.5831 H   0  0  0  0  0  0  0  0  0  0  0  0
    0.8492    3.0919    0.0337 H   0  0  0  0  0  0  0  0  0  0  0  0
    1.5584   -3.2615    0.8806 H   0  0  0  0  0  0  0  0  0  0  0  0
    1.4198   -1.7114    0.0503 H   0  0  0  0  0  0  0  0  0  0  0  0
    2.6038   -0.7034    2.1841 H   0  0  0  0  0  0  0  0  0  0  0  0
    3.5927   -1.7608    1.1658 H   0  0  0  0  0  0  0  0  0  0  0  0
    2.8925   -2.3717    2.6598 H   0  0  0  0  0  0  0  0  0  0  0  0
    1.3715   -7.1908    6.2906 H   0  0  0  0  0  0  0  0  0  0  0  0
    6.9421   -6.2484    3.5390 H   0  0  0  0  0  0  0  0  0  0  0  0
    9.9534   -7.4876    4.9527 H   0  0  0  0  0  0  0  0  0  0  0  0
    9.5466   -8.5654    3.6295 H   0  0  0  0  0  0  0  0  0  0  0  0
    9.2880   -6.8217    3.4493 H   0  0  0  0  0  0  0  0  0  0  0  0
    6.2437   -9.7887    6.9623 H   0  0  0  0  0  0  0  0  0  0  0  0
  1  2  2  0  0  0  0
  2  3  1  0  0  0  0
  3  4  2  0  0  0  0
  3  5  1  0  0  0  0
  5  6  2  0  0  0  0
  6  7  1  0  0  0  0
  7  8  1  0  0  0  0
  8  9  2  0  0  0  0
  8 10  1  0  0  0  0
 10 11  1  0  0  0  0
  7 12  2  0  0  0  0
 12 13  1  0  0  0  0
 13 14  2  0  0  0  0
 14 15  1  0  0  0  0
 15 16  2  0  0  0  0
 16 17  1  0  0  0  0
 17 18  3  0  0  0  0
 16 19  1  0  0  0  0
 19 20  3  0  0  0  0
  1 21  1  0  0  0  0
 21 22  2  0  0  0  0
 22 23  1  0  0  0  0
 23 24  2  0  0  0  0
 24 25  1  0  0  0  0
 25 26  2  0  0  0  0
 26 27  1  0  0  0  0
 27 28  2  0  0  0  0
 28 29  1  0  0  0  0
 29 30  1  0  0  0  0
 22 31  1  0  0  0  0
 31 32  1  0  0  0  0
 32 33  1  0  0  0  0
 33 34  1  0  0  0  0
 34 35  1  0  0  0  0
 35 36  1  0  0  0  0
 36 37  2  0  0  0  0
 37 38  1  0  0  0  0
 38 39  1  0  0  0  0
 36 40  1  0  0  0  0
 40 41  1  0  0  0  0
 41 42  1  0  0  0  0
 42 43  1  0  0  0  0
 43 44  1  0  0  0  0
 44 45  1  0  0  0  0
 45 46  2  0  0  0  0
 46 47  1  0  0  0  0
 47 48  1  0  0  0  0
 46 49  1  0  0  0  0
 49 50  2  0  0  0  0
 50 51  1  0  0  0  0
 51 52  2  0  0  0  0
 44 53  2  0  0  0  0
 53 54  1  0  0  0  0
 54 55  1  0  0  0  0
 55 56  1  0  0  0  0
 56 57  1  0  0  0  0
 57 58  1  0  0  0  0
 58 59  1  0  0  0  0
 59 60  1  0  0  0  0
 60 61  1  0  0  0  0
 61 62  1  0  0  0  0
 62 63  1  0  0  0  0
 60 64  1  0  0  0  0
 64 65  1  0  0  0  0
 57 66  1  0  0  0  0
 66 67  1  0  0  0  0
 53 68  1  0  0  0  0
 68 69  2  0  0  0  0
 69 70  1  0  0  0  0
 70 71  2  0  0  0  0
 70 72  1  0  0  0  0
 72 73  2  0  0  0  0
 73 74  1  0  0  0  0
 74 75  1  0  0  0  0
 74 76  2  0  0  0  0
 76 77  1  0  0  0  0
 76 78  1  0  0  0  0
 78 79  2  0  0  0  0
 79 80  1  0  0  0  0
 80 81  2  0  0  0  0
 81 82  1  0  0  0  0
 82 83  3  0  0  0  0
 81 84  1  0  0  0  0
 84 85  3  0  0  0  0
 15  2  1  0  0  0  0
 63 21  1  0  0  0  0
 80 69  1  0  0  0  0
 14  5  1  0  0  0  0
 28 23  1  0  0  0  0
 62 31  2  0  0  0  0
 79 72  1  0  0  0  0
 61 33  2  0  0  0  0
 59 34  2  0  0  0  0
 39 35  2  0  0  0  0
 58 40  2  0  0  0  0
 56 41  2  0  0  0  0
 55 43  2  0  0  0  0
 52 45  1  0  0  0  0
  1 86  1  0  0  0  0
  6 87  1  0  0  0  0
 11 88  1  0  0  0  0
 11 89  1  0  0  0  0
 11 90  1  0  0  0  0
 12 91  1  0  0  0  0
 13 92  1  0  0  0  0
 24 93  1  0  0  0  0
 25 94  1  0  0  0  0
 26 95  1  0  0  0  0
 27 96  1  0  0  0  0
 29 97  1  0  0  0  0
 29 98  1  0  0  0  0
 30 99  1  0  0  0  0
 30100  1  0  0  0  0
 30101  1  0  0  0  0
 47102  1  0  0  0  0
 47103  1  0  0  0  0
 48104  1  0  0  0  0
 48105  1  0  0  0  0
 48106  1  0  0  0  0
 49107  1  0  0  0  0
 50108  1  0  0  0  0
 51109  1  0  0  0  0
 52110  1  0  0  0  0
 64111  1  0  0  0  0
 64112  1  0  0  0  0
 65113  1  0  0  0  0
 65114  1  0  0  0  0
 65115  1  0  0  0  0
 66116  1  0  0  0  0
 66117  1  0  0  0  0
 67118  1  0  0  0  0
 67119  1  0  0  0  0
 67120  1  0  0  0  0
 68121  1  0  0  0  0
 73122  1  0  0  0  0
 75123  1  0  0  0  0
 75124  1  0  0  0  0
 75125  1  0  0  0  0
 78126  1  0  0  0  0
M  END
