133

C          1.80050       -7.44270        3.31160
C          2.45020       -7.17920        4.49440
C          2.73990       -5.85250        5.03850
O          2.51400       -4.76950        4.52530
C          3.36390       -6.08100        6.35770
C          3.80810       -5.15140        7.27280
C          4.36520       -5.62050        8.46300
C          4.87870       -4.69350        9.50510
O          5.36540       -5.05110       10.54900
O          4.74290       -3.40780        9.15680
C          5.21740       -2.45770       10.09930
C          4.45660       -6.99110        8.70320
C          4.01030       -7.92340        7.77910
C          3.46060       -7.46570        6.59110
C          2.92330       -8.17650        5.42900
C          2.92200       -9.53890        5.26550
C          3.40130      -10.45150        6.22860
N          3.76820      -11.25060        6.96690
C          2.47690      -10.23500        4.12160
N          2.15710      -10.88240        3.22760
C          1.33200       -6.58060        2.31890
C          0.70490       -7.07120        1.15650
C          0.36760       -8.49010        0.97320
C         -0.61310       -9.04120        1.79430
C         -0.97200      -10.36850        1.66830
C         -0.34430      -11.15910        0.72170
C          0.63540      -10.61660       -0.08840
C          1.00670       -9.28320        0.01830
C          2.14130       -8.75230       -0.81050
C          3.44140       -8.76990       -0.00310
C          0.40630       -6.04910        0.26730
S         -0.35940       -6.02620       -1.31070
C         -0.17950       -4.30530       -1.33850
C         -0.45180       -3.22370       -2.19150
C         -0.89380       -3.13470       -3.53210
C         -0.90260       -1.85060       -4.18510
N         -1.25800       -1.93620       -5.45680
S         -1.56520       -3.48690       -5.80490
N         -1.25270       -4.11410       -4.34570
C         -0.62650       -0.68940       -3.42700
C         -0.70510        0.68690       -3.71080
S         -1.00020        1.73020       -5.06140
C         -0.85150        3.10620       -3.99720
C         -0.95560        4.50150       -4.21090
C         -1.25850        5.10790       -5.52010
C         -0.32770        5.09440       -6.56120
C          1.05570        4.53960       -6.37190
C          1.95500        5.55750       -5.66820
C         -0.68340        5.66790       -7.77470
C         -1.92890        6.23830       -7.96450
C         -2.84790        6.24590       -6.92990
C         -2.51030        5.68180       -5.71450
C         -0.78010        5.20310       -3.04970
S         -0.49330        4.16270       -1.67020
C         -0.60110        2.75860       -2.67310
C         -0.50280        1.36960       -2.50730
N         -0.26700        0.47800       -1.49090
C         -0.30990       -0.78830       -2.04910
C         -0.05200       -2.05640       -1.48640
N          0.51410       -2.41470       -0.28090
C          0.42800       -3.78300       -0.18630
C          0.77700       -4.77300        0.73290
S          1.51400       -4.82810        2.29150
C          1.53900       -1.68980        0.44350
C          2.93310       -2.21580        0.10360
C         -0.60270        0.81860       -0.12280
C         -2.07750        1.19880        0.00670
C         -0.85750        6.69560       -2.90280
C         -2.12470        7.04270       -2.18420
C         -2.17410        7.50890       -0.93080
C         -0.99680        7.68550       -0.12680
C         -1.04560        8.22100        1.12210
S          0.38720        8.38310        2.13200
C         -0.54440        9.11780        3.41700
C          0.07810        9.50840        4.57510
C          1.46900        9.31190        4.70790
N          2.59880        9.15100        4.82260
C         -0.52570       10.10180        5.69680
N         -0.95510       10.58150        6.64780
N         -1.85510        9.22210        3.08090
C         -2.89320        9.75690        3.94350
C         -3.40250        8.70770        4.92420
C         -2.21510        8.73640        1.82790
O         -3.35810        8.77840        1.42860
C          0.30150        7.19600       -0.68860
C          0.35200        7.33450       -2.20720
H          1.61170       -8.48510        3.08380
H          3.72690       -4.09530        7.07090
H          4.97470       -1.47920        9.69330
H          6.29650       -2.56180       10.23090
H          4.73130       -2.60630       11.06560
H          4.89080       -7.31450        9.63730
H          4.09550       -8.97550        7.99530
H         -1.09670       -8.41280        2.52950
H         -1.73310      -10.78400        2.31100
H         -0.61170      -12.19990        0.62180
H          1.13300      -11.24040       -0.81660
H          1.93430       -7.73400       -1.14220
H          2.26230       -9.37710       -1.69690
H          3.37800       -8.08820        0.84260
H          3.63160       -9.76950        0.38080
H          4.27960       -8.46870       -0.62720
H          1.02120        3.62340       -5.78160
H          1.48290        4.29630       -7.34610
H          1.99350        6.48570       -6.23410
H          2.96540        5.16730       -5.57160
H          1.57190        5.77710       -4.67450
H          0.03150        5.66400       -8.58510
H         -2.18260        6.67500       -8.91890
H         -3.82390        6.68610       -7.06870
H         -3.22660        5.66830       -4.90530
H          1.49340       -0.63780        0.16770
H          1.35490       -1.80050        1.51660
H          3.04800       -3.24830        0.41950
H          3.10780       -2.15360       -0.96860
H          3.67970       -1.61550        0.61570
H          0.02730        1.65650        0.19290
H         -0.41360       -0.04070        0.51740
H         -2.30950        1.40550        1.04770
H         -2.30690        2.08380       -0.58030
H         -2.70660        0.38000       -0.33640
H         -0.92060        7.08940       -3.92570
H         -3.04060        6.88000       -2.73320
H         -3.12140        7.76090       -0.48120
H         -2.50820       10.63090        4.47060
H         -3.70460       10.06300        3.27720
H         -4.19360        9.13850        5.53010
H         -2.60880        8.37240        5.58770
H         -3.80140        7.85210        4.38380
H          0.41760        6.14570       -0.40390
H          1.13610        7.74300       -0.24260
H          0.35980        8.39670       -2.46080
H          1.27660        6.89310       -2.58280
