
  xtb     02012217223D
 energy: -256.670013975849 gnorm: 0.000969865013 xtb: 6.4.1 (unknown)
157174  0     0  0            999 V2000
   -4.8389    6.8148   -4.5731 C   0  0  0  0  0  0  0  0  0  0  0  0
   -5.5263    7.8206   -3.9379 C   0  0  0  0  0  0  0  0  0  0  0  0
   -5.4601    8.1359   -2.5068 C   0  0  0  0  0  0  0  0  0  0  0  0
   -4.7634    7.6113   -1.6571 O   0  0  0  0  0  0  0  0  0  0  0  0
   -6.4213    9.2348   -2.2861 C   0  0  0  0  0  0  0  0  0  0  0  0
   -6.7497    9.8632   -1.1043 C   0  0  0  0  0  0  0  0  0  0  0  0
   -7.7092   10.8750   -1.1476 C   0  0  0  0  0  0  0  0  0  0  0  0
   -8.1388   11.5977    0.0784 C   0  0  0  0  0  0  0  0  0  0  0  0
   -8.9556   12.4848    0.0907 O   0  0  0  0  0  0  0  0  0  0  0  0
   -7.5200   11.1493    1.1776 O   0  0  0  0  0  0  0  0  0  0  0  0
   -7.8848   11.7814    2.3954 C   0  0  0  0  0  0  0  0  0  0  0  0
   -8.3015   11.2292   -2.3595 C   0  0  0  0  0  0  0  0  0  0  0  0
   -7.9668   10.5955   -3.5463 C   0  0  0  0  0  0  0  0  0  0  0  0
   -7.0177    9.5844   -3.5113 C   0  0  0  0  0  0  0  0  0  0  0  0
   -6.4672    8.7277   -4.5635 C   0  0  0  0  0  0  0  0  0  0  0  0
   -6.8028    8.8013   -5.8912 C   0  0  0  0  0  0  0  0  0  0  0  0
   -7.7305    9.7197   -6.4269 C   0  0  0  0  0  0  0  0  0  0  0  0
   -8.4709   10.4342   -6.9362 N   0  0  0  0  0  0  0  0  0  0  0  0
   -6.2838    7.9913   -6.9230 C   0  0  0  0  0  0  0  0  0  0  0  0
   -5.9190    7.3802   -7.8252 N   0  0  0  0  0  0  0  0  0  0  0  0
   -3.9429    5.8644   -4.0689 C   0  0  0  0  0  0  0  0  0  0  0  0
   -3.3914    4.8706   -4.8854 C   0  0  0  0  0  0  0  0  0  0  0  0
   -2.5650    4.0160   -4.1868 C   0  0  0  0  0  0  0  0  0  0  0  0
   -1.6557    2.5888   -4.6151 S   0  0  0  0  0  0  0  0  0  0  0  0
   -1.1559    2.4426   -2.9639 C   0  0  0  0  0  0  0  0  0  0  0  0
   -0.3874    1.4969   -2.2162 C   0  0  0  0  0  0  0  0  0  0  0  0
    0.2383    0.3142   -2.6033 C   0  0  0  0  0  0  0  0  0  0  0  0
    0.8392   -0.4301   -1.6157 C   0  0  0  0  0  0  0  0  0  0  0  0
    1.5618   -1.7621   -1.7456 C   0  0  0  0  0  0  0  0  0  0  0  0
    2.9187   -1.6338   -2.4223 C   0  0  0  0  0  0  0  0  0  0  0  0
    3.5581   -2.7683   -2.9057 C   0  0  0  0  0  0  0  0  0  0  0  0
    4.8182   -2.6807   -3.4645 C   0  0  0  0  0  0  0  0  0  0  0  0
    5.4777   -1.4613   -3.5487 C   0  0  0  0  0  0  0  0  0  0  0  0
    6.8275   -1.3606   -4.1975 C   0  0  0  0  0  0  0  0  0  0  0  0
    6.6798   -1.1020   -5.6984 C   0  0  0  0  0  0  0  0  0  0  0  0
    4.8368   -0.3316   -3.0594 C   0  0  0  0  0  0  0  0  0  0  0  0
    3.5764   -0.4143   -2.4964 C   0  0  0  0  0  0  0  0  0  0  0  0
    0.6616   -2.7559   -2.4485 C   0  0  0  0  0  0  0  0  0  0  0  0
    0.6134   -2.7875   -3.8371 C   0  0  0  0  0  0  0  0  0  0  0  0
   -0.2296   -3.6658   -4.4902 C   0  0  0  0  0  0  0  0  0  0  0  0
   -1.0461   -4.5351   -3.7778 C   0  0  0  0  0  0  0  0  0  0  0  0
   -1.9863   -5.4637   -4.4902 C   0  0  0  0  0  0  0  0  0  0  0  0
   -3.3351   -4.7812   -4.7264 C   0  0  0  0  0  0  0  0  0  0  0  0
   -1.0039   -4.4903   -2.3911 C   0  0  0  0  0  0  0  0  0  0  0  0
   -0.1649   -3.6100   -1.7324 C   0  0  0  0  0  0  0  0  0  0  0  0
    1.8308   -2.0809   -0.2977 C   0  0  0  0  0  0  0  0  0  0  0  0
    1.4270   -1.0414    0.5045 C   0  0  0  0  0  0  0  0  0  0  0  0
    0.8009   -0.0090   -0.2660 C   0  0  0  0  0  0  0  0  0  0  0  0
    0.2036    1.1863    0.1177 C   0  0  0  0  0  0  0  0  0  0  0  0
   -0.3827    1.9405   -0.8728 C   0  0  0  0  0  0  0  0  0  0  0  0
   -1.1256    3.2567   -0.7319 C   0  0  0  0  0  0  0  0  0  0  0  0
   -2.2034    3.1244    0.3235 C   0  0  0  0  0  0  0  0  0  0  0  0
   -3.4839    2.7058   -0.0076 C   0  0  0  0  0  0  0  0  0  0  0  0
   -4.4475    2.5574    0.9727 C   0  0  0  0  0  0  0  0  0  0  0  0
   -4.1543    2.8089    2.3060 C   0  0  0  0  0  0  0  0  0  0  0  0
   -5.2157    2.6960    3.3619 C   0  0  0  0  0  0  0  0  0  0  0  0
   -5.9460    4.0305    3.5260 C   0  0  0  0  0  0  0  0  0  0  0  0
   -2.8671    3.2149    2.6334 C   0  0  0  0  0  0  0  0  0  0  0  0
   -1.9020    3.3696    1.6571 C   0  0  0  0  0  0  0  0  0  0  0  0
   -0.2127    4.4418   -0.4551 C   0  0  0  0  0  0  0  0  0  0  0  0
    1.1672    4.3506   -0.5571 C   0  0  0  0  0  0  0  0  0  0  0  0
    1.9573    5.4690   -0.3577 C   0  0  0  0  0  0  0  0  0  0  0  0
    1.3912    6.7023   -0.0672 C   0  0  0  0  0  0  0  0  0  0  0  0
    2.2541    7.9055    0.1824 C   0  0  0  0  0  0  0  0  0  0  0  0
    2.6064    8.0127    1.6675 C   0  0  0  0  0  0  0  0  0  0  0  0
    0.0075    6.7871    0.0288 C   0  0  0  0  0  0  0  0  0  0  0  0
   -0.7865    5.6739   -0.1638 C   0  0  0  0  0  0  0  0  0  0  0  0
   -1.6441    3.4378   -2.1331 C   0  0  0  0  0  0  0  0  0  0  0  0
   -2.4490    4.3444   -2.8173 C   0  0  0  0  0  0  0  0  0  0  0  0
   -3.3901    5.7226   -2.4018 S   0  0  0  0  0  0  0  0  0  0  0  0
    1.7228   -1.2956    2.2013 S   0  0  0  0  0  0  0  0  0  0  0  0
    2.3895   -2.8355    1.8093 C   0  0  0  0  0  0  0  0  0  0  0  0
    3.0080   -4.0946    2.7936 S   0  0  0  0  0  0  0  0  0  0  0  0
    3.2947   -5.0800    1.3576 C   0  0  0  0  0  0  0  0  0  0  0  0
    2.9027   -4.4341    0.2078 C   0  0  0  0  0  0  0  0  0  0  0  0
    2.3988   -3.1436    0.4395 C   0  0  0  0  0  0  0  0  0  0  0  0
    3.7367   -6.4260    1.4337 C   0  0  0  0  0  0  0  0  0  0  0  0
    4.2979   -7.0963    2.4700 C   0  0  0  0  0  0  0  0  0  0  0  0
    4.2135   -8.5836    2.5229 C   0  0  0  0  0  0  0  0  0  0  0  0
    3.9599   -9.3271    1.6031 O   0  0  0  0  0  0  0  0  0  0  0  0
    4.4298   -8.9283    3.9408 C   0  0  0  0  0  0  0  0  0  0  0  0
    4.2925  -10.1816    4.5342 C   0  0  0  0  0  0  0  0  0  0  0  0
    4.5157  -10.1872    5.8898 C   0  0  0  0  0  0  0  0  0  0  0  0
    4.8508   -9.0324    6.6113 C   0  0  0  0  0  0  0  0  0  0  0  0
    5.0047   -7.7920    6.0392 C   0  0  0  0  0  0  0  0  0  0  0  0
    4.7826   -7.7659    4.6607 C   0  0  0  0  0  0  0  0  0  0  0  0
    4.8804   -6.6542    3.7209 C   0  0  0  0  0  0  0  0  0  0  0  0
    5.6352   -5.5244    3.8874 C   0  0  0  0  0  0  0  0  0  0  0  0
    6.2754   -5.1752    5.0929 C   0  0  0  0  0  0  0  0  0  0  0  0
    6.8081   -4.8511    6.0566 N   0  0  0  0  0  0  0  0  0  0  0  0
    5.9326   -4.6491    2.8208 C   0  0  0  0  0  0  0  0  0  0  0  0
    6.2352   -3.9549    1.9585 N   0  0  0  0  0  0  0  0  0  0  0  0
    4.8939   -9.7700    7.9255 C   0  0  0  0  0  0  0  0  0  0  0  0
    3.6866   -9.6074    8.8825 C   0  0  0  0  0  0  0  0  0  0  0  0
    2.4925   -9.2865    8.0182 C   0  0  0  0  0  0  0  0  0  0  0  0
    2.1806  -10.3804    7.3361 C   0  0  0  0  0  0  0  0  0  0  0  0
    3.1586  -11.4608    7.7267 C   0  0  0  0  0  0  0  0  0  0  0  0
    3.4036  -11.0852    9.1969 C   0  0  0  0  0  0  0  0  0  0  0  0
    4.5262  -11.0570    7.1218 C   0  0  0  0  0  0  0  0  0  0  0  0
   -5.0162    6.7033   -5.6361 H   0  0  0  0  0  0  0  0  0  0  0  0
   -6.2792    9.5758   -0.1777 H   0  0  0  0  0  0  0  0  0  0  0  0
   -8.9558   11.6678    2.5751 H   0  0  0  0  0  0  0  0  0  0  0  0
   -7.6479   12.8466    2.3561 H   0  0  0  0  0  0  0  0  0  0  0  0
   -7.3107   11.2897    3.1764 H   0  0  0  0  0  0  0  0  0  0  0  0
   -9.0397   12.0172   -2.3522 H   0  0  0  0  0  0  0  0  0  0  0  0
   -8.4461   10.8918   -4.4646 H   0  0  0  0  0  0  0  0  0  0  0  0
   -3.6117    4.7957   -5.9352 H   0  0  0  0  0  0  0  0  0  0  0  0
    0.2313   -0.0019   -3.6347 H   0  0  0  0  0  0  0  0  0  0  0  0
    3.0592   -3.7251   -2.8570 H   0  0  0  0  0  0  0  0  0  0  0  0
    5.2995   -3.5743   -3.8354 H   0  0  0  0  0  0  0  0  0  0  0  0
    7.3953   -0.5449   -3.7458 H   0  0  0  0  0  0  0  0  0  0  0  0
    7.3815   -2.2886   -4.0446 H   0  0  0  0  0  0  0  0  0  0  0  0
    6.1293   -1.9132   -6.1699 H   0  0  0  0  0  0  0  0  0  0  0  0
    7.6568   -1.0255   -6.1696 H   0  0  0  0  0  0  0  0  0  0  0  0
    6.1371   -0.1752   -5.8710 H   0  0  0  0  0  0  0  0  0  0  0  0
    5.3323    0.6274   -3.1123 H   0  0  0  0  0  0  0  0  0  0  0  0
    3.1036    0.4786   -2.1144 H   0  0  0  0  0  0  0  0  0  0  0  0
    1.2531   -2.1321   -4.4104 H   0  0  0  0  0  0  0  0  0  0  0  0
   -0.2497   -3.6807   -5.5707 H   0  0  0  0  0  0  0  0  0  0  0  0
   -1.5592   -5.7576   -5.4511 H   0  0  0  0  0  0  0  0  0  0  0  0
   -2.1390   -6.3654   -3.8937 H   0  0  0  0  0  0  0  0  0  0  0  0
   -3.7837   -4.4917   -3.7787 H   0  0  0  0  0  0  0  0  0  0  0  0
   -3.2056   -3.8858   -5.3303 H   0  0  0  0  0  0  0  0  0  0  0  0
   -4.0162   -5.4535   -5.2428 H   0  0  0  0  0  0  0  0  0  0  0  0
   -1.6334   -5.1549   -1.8166 H   0  0  0  0  0  0  0  0  0  0  0  0
   -0.1534   -3.5925   -0.6523 H   0  0  0  0  0  0  0  0  0  0  0  0
    0.1920    1.4951    1.1516 H   0  0  0  0  0  0  0  0  0  0  0  0
   -3.7338    2.4946   -1.0373 H   0  0  0  0  0  0  0  0  0  0  0  0
   -5.4423    2.2380    0.6965 H   0  0  0  0  0  0  0  0  0  0  0  0
   -4.7624    2.4140    4.3144 H   0  0  0  0  0  0  0  0  0  0  0  0
   -5.9353    1.9234    3.0835 H   0  0  0  0  0  0  0  0  0  0  0  0
   -6.4125    4.3237    2.5882 H   0  0  0  0  0  0  0  0  0  0  0  0
   -5.2460    4.8105    3.8168 H   0  0  0  0  0  0  0  0  0  0  0  0
   -6.7168    3.9517    4.2892 H   0  0  0  0  0  0  0  0  0  0  0  0
   -2.6167    3.4122    3.6661 H   0  0  0  0  0  0  0  0  0  0  0  0
   -0.9089    3.6960    1.9308 H   0  0  0  0  0  0  0  0  0  0  0  0
    1.6325    3.4046   -0.7925 H   0  0  0  0  0  0  0  0  0  0  0  0
    3.0315    5.3803   -0.4372 H   0  0  0  0  0  0  0  0  0  0  0  0
    1.7259    8.8093   -0.1278 H   0  0  0  0  0  0  0  0  0  0  0  0
    3.1740    7.8294   -0.4009 H   0  0  0  0  0  0  0  0  0  0  0  0
    1.7017    8.1003    2.2651 H   0  0  0  0  0  0  0  0  0  0  0  0
    3.1469    7.1266    1.9929 H   0  0  0  0  0  0  0  0  0  0  0  0
    3.2290    8.8857    1.8490 H   0  0  0  0  0  0  0  0  0  0  0  0
   -0.4561    7.7375    0.2497 H   0  0  0  0  0  0  0  0  0  0  0  0
   -1.8604    5.7603   -0.0868 H   0  0  0  0  0  0  0  0  0  0  0  0
    2.9883   -4.8812   -0.7652 H   0  0  0  0  0  0  0  0  0  0  0  0
    3.4950   -7.0340    0.5667 H   0  0  0  0  0  0  0  0  0  0  0  0
    4.0314  -11.0478    3.9467 H   0  0  0  0  0  0  0  0  0  0  0  0
    5.2577   -6.9063    6.5991 H   0  0  0  0  0  0  0  0  0  0  0  0
    5.8458   -9.7508    8.4521 H   0  0  0  0  0  0  0  0  0  0  0  0
    3.8638   -8.9415    9.7228 H   0  0  0  0  0  0  0  0  0  0  0  0
    2.0466   -8.3115    7.9506 H   0  0  0  0  0  0  0  0  0  0  0  0
    1.4223  -10.5016    6.5848 H   0  0  0  0  0  0  0  0  0  0  0  0
    2.8550  -12.4826    7.5148 H   0  0  0  0  0  0  0  0  0  0  0  0
    4.2511  -11.6043    9.6421 H   0  0  0  0  0  0  0  0  0  0  0  0
    2.5203  -11.2216    9.8190 H   0  0  0  0  0  0  0  0  0  0  0  0
    5.2396  -11.8787    7.1216 H   0  0  0  0  0  0  0  0  0  0  0  0
  1  2  2  0  0  0  0
  2  3  1  0  0  0  0
  3  4  2  0  0  0  0
  3  5  1  0  0  0  0
  5  6  2  0  0  0  0
  6  7  1  0  0  0  0
  7  8  1  0  0  0  0
  8  9  2  0  0  0  0
  8 10  1  0  0  0  0
 10 11  1  0  0  0  0
  7 12  2  0  0  0  0
 12 13  1  0  0  0  0
 13 14  2  0  0  0  0
 14 15  1  0  0  0  0
 15 16  2  0  0  0  0
 16 17  1  0  0  0  0
 17 18  3  0  0  0  0
 16 19  1  0  0  0  0
 19 20  3  0  0  0  0
  1 21  1  0  0  0  0
 21 22  2  0  0  0  0
 22 23  1  0  0  0  0
 23 24  1  0  0  0  0
 24 25  1  0  0  0  0
 25 26  1  0  0  0  0
 26 27  2  0  0  0  0
 27 28  1  0  0  0  0
 28 29  1  0  0  0  0
 29 30  1  0  0  0  0
 30 31  2  0  0  0  0
 31 32  1  0  0  0  0
 32 33  2  0  0  0  0
 33 34  1  0  0  0  0
 34 35  1  0  0  0  0
 33 36  1  0  0  0  0
 36 37  2  0  0  0  0
 29 38  1  0  0  0  0
 38 39  2  0  0  0  0
 39 40  1  0  0  0  0
 40 41  2  0  0  0  0
 41 42  1  0  0  0  0
 42 43  1  0  0  0  0
 41 44  1  0  0  0  0
 44 45  2  0  0  0  0
 29 46  1  0  0  0  0
 46 47  2  0  0  0  0
 47 48  1  0  0  0  0
 48 49  1  0  0  0  0
 49 50  2  0  0  0  0
 50 51  1  0  0  0  0
 51 52  1  0  0  0  0
 52 53  2  0  0  0  0
 53 54  1  0  0  0  0
 54 55  2  0  0  0  0
 55 56  1  0  0  0  0
 56 57  1  0  0  0  0
 55 58  1  0  0  0  0
 58 59  2  0  0  0  0
 51 60  1  0  0  0  0
 60 61  2  0  0  0  0
 61 62  1  0  0  0  0
 62 63  2  0  0  0  0
 63 64  1  0  0  0  0
 64 65  1  0  0  0  0
 63 66  1  0  0  0  0
 66 67  2  0  0  0  0
 51 68  1  0  0  0  0
 68 69  1  0  0  0  0
 69 70  1  0  0  0  0
 47 71  1  0  0  0  0
 71 72  1  0  0  0  0
 72 73  1  0  0  0  0
 73 74  1  0  0  0  0
 74 75  2  0  0  0  0
 75 76  1  0  0  0  0
 74 77  1  0  0  0  0
 77 78  2  0  0  0  0
 78 79  1  0  0  0  0
 79 80  2  0  0  0  0
 79 81  1  0  0  0  0
 81 82  2  0  0  0  0
 82 83  1  0  0  0  0
 83 84  2  0  0  0  0
 84 85  1  0  0  0  0
 85 86  2  0  0  0  0
 86 87  1  0  0  0  0
 87 88  2  0  0  0  0
 88 89  1  0  0  0  0
 89 90  3  0  0  0  0
 88 91  1  0  0  0  0
 91 92  3  0  0  0  0
 84 93  1  0  0  0  0
 93 94  1  0  0  0  0
 94 95  1  0  0  0  0
 95 96  2  0  0  0  0
 96 97  1  0  0  0  0
 97 98  1  0  0  0  0
 97 99  1  0  0  0  0
 15  2  1  0  0  0  0
 70 21  1  0  0  0  0
 76 72  2  0  0  0  0
 87 78  1  0  0  0  0
 99 93  1  0  0  0  0
 14  5  1  0  0  0  0
 69 23  2  0  0  0  0
 86 81  1  0  0  0  0
 98 94  1  0  0  0  0
 68 25  2  0  0  0  0
 99 83  1  0  0  0  0
 50 26  1  0  0  0  0
 59 52  1  0  0  0  0
 67 60  1  0  0  0  0
 48 28  2  0  0  0  0
 37 30  1  0  0  0  0
 45 38  1  0  0  0  0
 76 46  1  0  0  0  0
  1100  1  0  0  0  0
  6101  1  0  0  0  0
 11102  1  0  0  0  0
 11103  1  0  0  0  0
 11104  1  0  0  0  0
 12105  1  0  0  0  0
 13106  1  0  0  0  0
 22107  1  0  0  0  0
 27108  1  0  0  0  0
 31109  1  0  0  0  0
 32110  1  0  0  0  0
 34111  1  0  0  0  0
 34112  1  0  0  0  0
 35113  1  0  0  0  0
 35114  1  0  0  0  0
 35115  1  0  0  0  0
 36116  1  0  0  0  0
 37117  1  0  0  0  0
 39118  1  0  0  0  0
 40119  1  0  0  0  0
 42120  1  0  0  0  0
 42121  1  0  0  0  0
 43122  1  0  0  0  0
 43123  1  0  0  0  0
 43124  1  0  0  0  0
 44125  1  0  0  0  0
 45126  1  0  0  0  0
 49127  1  0  0  0  0
 53128  1  0  0  0  0
 54129  1  0  0  0  0
 56130  1  0  0  0  0
 56131  1  0  0  0  0
 57132  1  0  0  0  0
 57133  1  0  0  0  0
 57134  1  0  0  0  0
 58135  1  0  0  0  0
 59136  1  0  0  0  0
 61137  1  0  0  0  0
 62138  1  0  0  0  0
 64139  1  0  0  0  0
 64140  1  0  0  0  0
 65141  1  0  0  0  0
 65142  1  0  0  0  0
 65143  1  0  0  0  0
 66144  1  0  0  0  0
 67145  1  0  0  0  0
 75146  1  0  0  0  0
 77147  1  0  0  0  0
 82148  1  0  0  0  0
 85149  1  0  0  0  0
 93150  1  0  0  0  0
 94151  1  0  0  0  0
 95152  1  0  0  0  0
 96153  1  0  0  0  0
 97154  1  0  0  0  0
 98155  1  0  0  0  0
 98156  1  0  0  0  0
 99157  1  0  0  0  0
M  END
