102

C          5.98840        3.97450        2.04720
C          5.33870        5.02530        2.63240
C          6.04370        5.90060        3.59930
O          7.23430        5.95340        3.80700
C          4.96750        6.64890        4.29270
C          5.06730        7.52260        5.35390
C          3.89160        8.08730        5.85070
C          3.90590        9.04350        6.98890
O          2.91460        9.51150        7.49220
O          5.14730        9.33260        7.39630
C          5.24830       10.24630        8.47810
C          2.65850        7.76280        5.28510
C          2.56030        6.89320        4.21050
C          3.72520        6.33540        3.70780
C          3.95960        5.44360        2.57320
C          3.11130        5.28520        1.50480
C          1.77710        5.73240        1.47830
N          0.67080        6.03380        1.41320
C          3.51630        4.71970        0.27830
N          3.82450        4.31560       -0.75190
C          5.43450        2.81960        1.47160
C          6.11490        1.94340        0.61180
O          7.38740        2.21060        0.31260
C          7.99390        1.57480       -0.80460
C          7.49200        2.15090       -2.12170
C          5.28920        0.88640        0.18400
S          5.49120       -0.47030       -0.91520
C          3.85160       -0.92640       -0.63490
C          2.91670       -1.86500       -1.09060
C          3.02930       -2.85780       -2.08790
C          1.85840       -3.59020       -2.46480
N          2.09230       -4.45060       -3.44370
S          3.65500       -4.34900       -3.85190
N          4.09320       -3.20220       -2.79680
C          0.65660       -3.35760       -1.76190
C         -0.59710       -3.97360       -1.87400
S         -1.38630       -5.16850       -2.83480
C         -2.85060       -4.95010       -1.88520
C         -4.14300       -5.51590       -1.92510
O         -4.59640       -6.52870       -2.65900
C         -3.83830       -7.02190       -3.75370
C         -3.89600       -6.09690       -4.96200
C         -4.96670       -4.97900       -0.92280
S         -4.10750       -3.82870        0.09060
C         -2.68690       -4.00360       -0.86550
C         -1.40550       -3.44050       -0.86750
N         -0.71050       -2.50030       -0.15720
C          0.56410       -2.41710       -0.69420
C          1.69000       -1.59360       -0.41550
N          1.88940       -0.50590        0.41920
C          3.18760       -0.09900        0.27490
C          4.00540        0.93270        0.74270
S          3.80500        2.26550        1.81510
C          0.94070        0.38870        1.04580
C          0.06510        1.08890        0.01000
C         -1.22440       -2.05290        1.11840
C         -0.42620       -2.64220        2.27870
C         -6.28930       -5.29510       -0.56280
C         -7.29260       -5.74660       -1.37510
C         -7.33160       -5.62280       -2.85210
O         -6.51360       -5.09760       -3.57510
C         -8.65750       -6.14290       -3.24230
C         -9.38650       -6.33790       -4.42430
C        -10.62900       -6.84120       -4.14720
Cl       -11.83460       -7.23600       -5.28410
S        -10.93200       -7.07760       -2.44390
C         -9.35680       -6.48870       -2.09810
C         -8.57140       -6.26180       -0.91600
C         -8.98020       -6.54520        0.36370
C        -10.26950       -7.06120        0.60820
N        -11.32040       -7.47330        0.81550
C         -8.20450       -6.38170        1.52580
N         -7.61840       -6.28000        2.50860
H          7.07260        3.99930        2.08520
H          6.02680        7.76160        5.78390
H          4.72110        9.85890        9.35240
H          4.81080       11.20840        8.20350
H          6.30950       10.35400        8.68650
H          1.77270        8.21380        5.70670
H          1.59600        6.65590        3.79020
H          9.05970        1.77980       -0.67870
H          7.83430        0.49170       -0.76450
H          8.01320        1.67620       -2.94740
H          6.42450        1.98050       -2.23650
H          7.67480        3.22200       -2.15220
H         -2.80200       -7.20980       -3.44970
H         -4.31610       -7.97690       -3.98770
H         -3.34890       -5.17690       -4.77630
H         -3.46060       -6.59620       -5.82240
H         -4.93170       -5.84300       -5.16980
H          0.34780       -0.14130        1.78980
H          1.52820        1.13810        1.58150
H         -0.48000        0.36990       -0.59760
H          0.68360        1.69310       -0.64980
H         -0.64530        1.74340        0.50720
H         -2.25640       -2.40640        1.17830
H         -1.25810       -0.96440        1.15820
H         -0.50950       -3.72640        2.27250
H          0.62780       -2.38320        2.20670
H         -0.81710       -2.27230        3.22240
H         -6.52460       -5.12680        0.48230
H         -9.02830       -6.12850       -5.41460
