91

C         -1.53450        2.72140        5.06650
C         -1.96110        3.89790        4.53450
C         -1.89880        5.13880        5.35280
O         -1.71850        5.21330        6.54550
C         -2.04950        6.24890        4.38360
C         -1.94350        7.60690        4.59210
C         -2.09980        8.45950        3.49750
C         -1.98270        9.92330        3.72930
O         -1.76010       10.42210        4.80370
O         -2.15050       10.63590        2.60670
C         -2.05460       12.04540        2.75030
C         -2.35300        7.93850        2.22920
C         -2.46640        6.57260        2.02220
C         -2.31740        5.72060        3.10610
C         -2.41640        4.26520        3.21010
C         -3.05860        3.45460        2.31050
C         -3.51010        3.88210        1.04680
N         -3.85990        4.16330       -0.01040
C         -3.39740        2.10900        2.56680
N         -3.75920        1.03290        2.73500
C         -1.16280        1.51200        4.39640
C         -1.24180        0.29090        5.09830
C         -0.94110       -0.91220        4.50780
C         -0.51440       -0.90770        3.18130
N         -0.17910       -1.94210        2.36370
C         -0.16810       -3.33620        2.72100
C          1.20260       -3.77340        3.23450
C          0.20740       -1.43850        1.13670
C          0.10590       -0.02100        1.16390
C         -0.36280        0.31900        2.47790
C         -0.68820        1.51440        3.07970
C          0.41140        0.75260        0.05370
C          0.81800        0.06970       -1.07850
C          0.92720       -1.34710       -1.10100
C          0.62550       -2.12120        0.00810
C          1.37590       -1.69330       -2.42150
C          1.64700       -2.90240       -3.02410
C          2.07350       -2.91960       -4.35860
C          2.20970       -1.68550       -5.04530
C          1.94490       -0.47490       -4.45650
C          1.51650       -0.47000       -3.12930
N          1.16650        0.56770       -2.32040
C          1.21810        1.96310       -2.66750
C          2.57500        2.57590       -2.32410
C          2.35240       -4.09740       -5.11650
C          2.40230       -5.43410       -4.83360
C          2.32540       -6.15070       -3.53250
O          2.04700       -5.71080       -2.43710
C          2.67590       -7.55080       -3.83050
C          2.80870       -8.62210       -2.94900
O          2.60080       -8.44470       -1.63380
C          3.16350       -9.86260       -3.48710
C          3.37690      -10.01510       -4.84380
C          3.24290       -8.94960       -5.72450
C          2.88720       -7.71470       -5.20900
C          2.66580       -6.42810       -5.86500
C          2.64520       -6.24400       -7.22320
C          2.88220       -7.26400       -8.16950
N          3.07110       -8.03210       -9.00190
C          2.35620       -5.04480       -7.91040
N          2.12140       -4.13560       -8.57340
H         -1.41010        2.73150        6.14520
H         -1.74530        8.01280        5.57230
H         -1.06930       12.32160        3.13190
H         -2.81360       12.40790        3.44660
H         -2.21310       12.46300        1.75960
H         -2.46270        8.61660        1.39770
H         -2.65780        6.19300        1.03140
H         -1.58770        0.31000        6.12090
H         -1.03710       -1.83170        5.06420
H         -0.44070       -3.92090        1.83880
H         -0.92900       -3.50190        3.48740
H          1.18200       -4.82650        3.50030
H          1.95850       -3.62200        2.46770
H          1.48000       -3.19510        4.11300
H         -0.54320        2.44610        2.55330
H          0.32880        1.82750        0.08750
H          0.71700       -3.19450       -0.03030
H          1.53340       -3.82080       -2.47520
H          2.53330       -1.70370       -6.07600
H          2.06450        0.44150       -5.01400
H          1.02240        2.06110       -3.73800
H          0.42170        2.48340       -2.12900
H          3.36710        2.06550       -2.86700
H          2.58880        3.62850       -2.59260
H          2.77310        2.48310       -1.25880
H          2.57890       -3.86110       -6.15020
H          2.72560       -9.27400       -1.15490
H          3.27250      -10.71170       -2.82520
H          3.65400      -10.98500       -5.22780
H          3.42000       -9.09820       -6.77550
