
  xtb     02012217483D
 energy: -231.783615898882 gnorm: 0.000620040438 xtb: 6.4.1 (unknown)
138150  0     0  0            999 V2000
    3.2354    4.1562    2.9460 C   0  0  0  0  0  0  0  0  0  0  0  0
    2.7468    5.2288    3.6577 C   0  0  0  0  0  0  0  0  0  0  0  0
    1.3380    5.5781    3.7943 C   0  0  0  0  0  0  0  0  0  0  0  0
    0.3880    5.0514    3.2322 O   0  0  0  0  0  0  0  0  0  0  0  0
    1.2767    6.6975    4.7527 C   0  0  0  0  0  0  0  0  0  0  0  0
    0.1756    7.3551    5.2551 C   0  0  0  0  0  0  0  0  0  0  0  0
    0.3844    8.3815    6.1788 C   0  0  0  0  0  0  0  0  0  0  0  0
   -0.8079    9.0788    6.7302 C   0  0  0  0  0  0  0  0  0  0  0  0
   -1.9434    8.8280    6.4126 O   0  0  0  0  0  0  0  0  0  0  0  0
   -0.4836   10.0181    7.6279 O   0  0  0  0  0  0  0  0  0  0  0  0
   -1.5723   10.7240    8.2051 C   0  0  0  0  0  0  0  0  0  0  0  0
    1.6780    8.7244    6.5672 C   0  0  0  0  0  0  0  0  0  0  0  0
    2.7849    8.0619    6.0559 C   0  0  0  0  0  0  0  0  0  0  0  0
    2.5861    7.0379    5.1429 C   0  0  0  0  0  0  0  0  0  0  0  0
    3.5283    6.1556    4.4500 C   0  0  0  0  0  0  0  0  0  0  0  0
    4.8940    6.2357    4.5392 C   0  0  0  0  0  0  0  0  0  0  0  0
    5.5845    7.1814    5.3265 C   0  0  0  0  0  0  0  0  0  0  0  0
    6.2111    7.9196    5.9430 N   0  0  0  0  0  0  0  0  0  0  0  0
    5.8129    5.4106    3.8568 C   0  0  0  0  0  0  0  0  0  0  0  0
    6.6280    4.7892    3.3379 N   0  0  0  0  0  0  0  0  0  0  0  0
    2.5775    3.1851    2.1840 C   0  0  0  0  0  0  0  0  0  0  0  0
    3.2981    2.1216    1.6123 C   0  0  0  0  0  0  0  0  0  0  0  0
    2.5362    1.2199    0.9054 C   0  0  0  0  0  0  0  0  0  0  0  0
    2.8281   -0.0779    0.1935 C   0  0  0  0  0  0  0  0  0  0  0  0
    3.6820    0.0823   -1.0521 C   0  0  0  0  0  0  0  0  0  0  0  0
    4.3136   -1.0255   -1.6039 C   0  0  0  0  0  0  0  0  0  0  0  0
    5.0526   -0.9054   -2.7649 C   0  0  0  0  0  0  0  0  0  0  0  0
    5.1794    0.3198   -3.4070 C   0  0  0  0  0  0  0  0  0  0  0  0
    5.9457    0.4382   -4.6925 C   0  0  0  0  0  0  0  0  0  0  0  0
    5.0215    0.1945   -5.8874 C   0  0  0  0  0  0  0  0  0  0  0  0
    4.5377    1.4210   -2.8572 C   0  0  0  0  0  0  0  0  0  0  0  0
    3.7941    1.3057   -1.6968 C   0  0  0  0  0  0  0  0  0  0  0  0
    3.4589   -1.0269    1.1955 C   0  0  0  0  0  0  0  0  0  0  0  0
    2.6995   -1.9407    1.9113 C   0  0  0  0  0  0  0  0  0  0  0  0
    3.2959   -2.7605    2.8527 C   0  0  0  0  0  0  0  0  0  0  0  0
    4.6565   -2.6790    3.1133 C   0  0  0  0  0  0  0  0  0  0  0  0
    5.3101   -3.6035    4.0991 C   0  0  0  0  0  0  0  0  0  0  0  0
    5.8298   -4.8561    3.3905 C   0  0  0  0  0  0  0  0  0  0  0  0
    5.4093   -1.7506    2.4047 C   0  0  0  0  0  0  0  0  0  0  0  0
    4.8199   -0.9322    1.4612 C   0  0  0  0  0  0  0  0  0  0  0  0
    1.4350   -0.4813   -0.2533 C   0  0  0  0  0  0  0  0  0  0  0  0
    0.4851    0.4959    0.1265 C   0  0  0  0  0  0  0  0  0  0  0  0
    1.1686    1.5159    0.8552 C   0  0  0  0  0  0  0  0  0  0  0  0
    0.7224    3.0483    1.7780 Se  0  0  0  0  0  2  0  0  0  0  0  0
   -0.8652    0.3790   -0.2007 C   0  0  0  0  0  0  0  0  0  0  0  0
   -1.2492   -0.7403   -0.8986 C   0  0  0  0  0  0  0  0  0  0  0  0
   -2.6443   -1.1289   -1.3590 C   0  0  0  0  0  0  0  0  0  0  0  0
   -3.5718   -1.1117   -0.1599 C   0  0  0  0  0  0  0  0  0  0  0  0
   -4.1971    0.0711    0.2153 C   0  0  0  0  0  0  0  0  0  0  0  0
   -5.0045    0.1125    1.3354 C   0  0  0  0  0  0  0  0  0  0  0  0
   -5.2079   -1.0217    2.1112 C   0  0  0  0  0  0  0  0  0  0  0  0
   -6.0548   -0.9610    3.3493 C   0  0  0  0  0  0  0  0  0  0  0  0
   -5.2114   -0.5373    4.5537 C   0  0  0  0  0  0  0  0  0  0  0  0
   -4.5710   -2.1975    1.7389 C   0  0  0  0  0  0  0  0  0  0  0  0
   -3.7590   -2.2437    0.6202 C   0  0  0  0  0  0  0  0  0  0  0  0
   -3.1699   -0.2655   -2.4942 C   0  0  0  0  0  0  0  0  0  0  0  0
   -4.5079   -0.3674   -2.8565 C   0  0  0  0  0  0  0  0  0  0  0  0
   -5.0062    0.3677   -3.9139 C   0  0  0  0  0  0  0  0  0  0  0  0
   -4.1831    1.2190   -4.6412 C   0  0  0  0  0  0  0  0  0  0  0  0
   -4.7188    1.9841   -5.8166 C   0  0  0  0  0  0  0  0  0  0  0  0
   -4.6222    1.1429   -7.0910 C   0  0  0  0  0  0  0  0  0  0  0  0
   -2.8450    1.3052   -4.2839 C   0  0  0  0  0  0  0  0  0  0  0  0
   -2.3397    0.5705   -3.2258 C   0  0  0  0  0  0  0  0  0  0  0  0
   -2.3829   -2.4999   -1.9295 C   0  0  0  0  0  0  0  0  0  0  0  0
   -1.0174   -2.7995   -1.8770 C   0  0  0  0  0  0  0  0  0  0  0  0
   -0.3039   -1.7381   -1.2439 C   0  0  0  0  0  0  0  0  0  0  0  0
    1.0503   -1.6078   -0.9414 C   0  0  0  0  0  0  0  0  0  0  0  0
   -0.6287   -4.3286   -2.5282 S   0  0  0  0  0  0  0  0  0  0  0  0
   -2.3283   -4.6015   -2.8940 C   0  0  0  0  0  0  0  0  0  0  0  0
   -3.1197   -3.5054   -2.5108 C   0  0  0  0  0  0  0  0  0  0  0  0
   -2.8865   -5.7461   -3.4716 C   0  0  0  0  0  0  0  0  0  0  0  0
   -2.3041   -6.9232   -3.8793 C   0  0  0  0  0  0  0  0  0  0  0  0
   -0.8786   -7.2503   -3.7946 C   0  0  0  0  0  0  0  0  0  0  0  0
    0.0283   -6.5500   -3.3843 O   0  0  0  0  0  0  0  0  0  0  0  0
   -0.7459   -8.6280   -4.3151 C   0  0  0  0  0  0  0  0  0  0  0  0
    0.3967   -9.3921   -4.4324 C   0  0  0  0  0  0  0  0  0  0  0  0
    0.2789  -10.6761   -4.9514 C   0  0  0  0  0  0  0  0  0  0  0  0
    1.6616  -11.6843   -5.1237 Cl  0  0  0  0  0  0  0  0  0  0  0  0
   -0.9792  -11.1456   -5.3341 C   0  0  0  0  0  0  0  0  0  0  0  0
   -1.0864  -12.3832   -5.8327 F   0  0  0  0  0  0  0  0  0  0  0  0
   -2.1307  -10.3816   -5.2190 C   0  0  0  0  0  0  0  0  0  0  0  0
   -2.0111   -9.1019   -4.7005 C   0  0  0  0  0  0  0  0  0  0  0  0
   -3.0043   -8.0581   -4.4470 C   0  0  0  0  0  0  0  0  0  0  0  0
   -4.3450   -8.1702   -4.7124 C   0  0  0  0  0  0  0  0  0  0  0  0
   -4.9467   -9.3200   -5.2670 C   0  0  0  0  0  0  0  0  0  0  0  0
   -5.5028  -10.2194   -5.7133 N   0  0  0  0  0  0  0  0  0  0  0  0
   -5.3219   -7.1789   -4.4825 C   0  0  0  0  0  0  0  0  0  0  0  0
   -6.1821   -6.4326   -4.3307 N   0  0  0  0  0  0  0  0  0  0  0  0
    4.3081    4.0017    2.9915 H   0  0  0  0  0  0  0  0  0  0  0  0
   -0.8264    7.0897    4.9545 H   0  0  0  0  0  0  0  0  0  0  0  0
   -2.2434   10.0319    8.7179 H   0  0  0  0  0  0  0  0  0  0  0  0
   -1.1382   11.4292    8.9089 H   0  0  0  0  0  0  0  0  0  0  0  0
   -2.1360   11.2496    7.4316 H   0  0  0  0  0  0  0  0  0  0  0  0
    1.8161    9.5203    7.2819 H   0  0  0  0  0  0  0  0  0  0  0  0
    3.7726    8.3478    6.3782 H   0  0  0  0  0  0  0  0  0  0  0  0
    4.3644    2.0385    1.7414 H   0  0  0  0  0  0  0  0  0  0  0  0
    4.2387   -1.9854   -1.1138 H   0  0  0  0  0  0  0  0  0  0  0  0
    5.5414   -1.7766   -3.1771 H   0  0  0  0  0  0  0  0  0  0  0  0
    6.3830    1.4353   -4.7732 H   0  0  0  0  0  0  0  0  0  0  0  0
    6.7560   -0.2933   -4.7096 H   0  0  0  0  0  0  0  0  0  0  0  0
    4.5826   -0.7991   -5.8297 H   0  0  0  0  0  0  0  0  0  0  0  0
    5.5750    0.2768   -6.8198 H   0  0  0  0  0  0  0  0  0  0  0  0
    4.2146    0.9239   -5.8964 H   0  0  0  0  0  0  0  0  0  0  0  0
    4.6215    2.3837   -3.3409 H   0  0  0  0  0  0  0  0  0  0  0  0
    3.3026    2.1783   -1.2910 H   0  0  0  0  0  0  0  0  0  0  0  0
    1.6363   -2.0175    1.7346 H   0  0  0  0  0  0  0  0  0  0  0  0
    2.6903   -3.4717    3.3964 H   0  0  0  0  0  0  0  0  0  0  0  0
    4.5907   -3.8961    4.8664 H   0  0  0  0  0  0  0  0  0  0  0  0
    6.1437   -3.0949    4.5875 H   0  0  0  0  0  0  0  0  0  0  0  0
    5.0111   -5.3831    2.9055 H   0  0  0  0  0  0  0  0  0  0  0  0
    6.3025   -5.5281    4.1029 H   0  0  0  0  0  0  0  0  0  0  0  0
    6.5598   -4.5855    2.6310 H   0  0  0  0  0  0  0  0  0  0  0  0
    6.4692   -1.6652    2.5966 H   0  0  0  0  0  0  0  0  0  0  0  0
    5.4230   -0.2201    0.9165 H   0  0  0  0  0  0  0  0  0  0  0  0
   -1.5676    1.1444    0.0950 H   0  0  0  0  0  0  0  0  0  0  0  0
   -4.0626    0.9617   -0.3815 H   0  0  0  0  0  0  0  0  0  0  0  0
   -5.4871    1.0396    1.6097 H   0  0  0  0  0  0  0  0  0  0  0  0
   -6.4961   -1.9402    3.5451 H   0  0  0  0  0  0  0  0  0  0  0  0
   -6.8648   -0.2427    3.2080 H   0  0  0  0  0  0  0  0  0  0  0  0
   -4.4062   -1.2493    4.7212 H   0  0  0  0  0  0  0  0  0  0  0  0
   -5.8257   -0.4898    5.4498 H   0  0  0  0  0  0  0  0  0  0  0  0
   -4.7708    0.4421    4.3819 H   0  0  0  0  0  0  0  0  0  0  0  0
   -4.7125   -3.0911    2.3300 H   0  0  0  0  0  0  0  0  0  0  0  0
   -3.2719   -3.1703    0.3523 H   0  0  0  0  0  0  0  0  0  0  0  0
   -5.1642   -1.0184   -2.2974 H   0  0  0  0  0  0  0  0  0  0  0  0
   -6.0504    0.2812   -4.1782 H   0  0  0  0  0  0  0  0  0  0  0  0
   -4.1490    2.9058   -5.9498 H   0  0  0  0  0  0  0  0  0  0  0  0
   -5.7630    2.2497   -5.6403 H   0  0  0  0  0  0  0  0  0  0  0  0
   -3.5865    0.8778   -7.2918 H   0  0  0  0  0  0  0  0  0  0  0  0
   -5.1949    0.2246   -6.9830 H   0  0  0  0  0  0  0  0  0  0  0  0
   -5.0108    1.6966   -7.9425 H   0  0  0  0  0  0  0  0  0  0  0  0
   -2.1856    1.9573   -4.8389 H   0  0  0  0  0  0  0  0  0  0  0  0
   -1.2932    0.6545   -2.9708 H   0  0  0  0  0  0  0  0  0  0  0  0
    1.7534   -2.3739   -1.2287 H   0  0  0  0  0  0  0  0  0  0  0  0
   -4.1848   -3.4943   -2.6591 H   0  0  0  0  0  0  0  0  0  0  0  0
   -3.9601   -5.6714   -3.5969 H   0  0  0  0  0  0  0  0  0  0  0  0
    1.3539   -9.0005   -4.1276 H   0  0  0  0  0  0  0  0  0  0  0  0
   -3.0694  -10.8073   -5.5333 H   0  0  0  0  0  0  0  0  0  0  0  0
  1  2  2  0  0  0  0
  2  3  1  0  0  0  0
  3  4  2  0  0  0  0
  3  5  1  0  0  0  0
  5  6  2  0  0  0  0
  6  7  1  0  0  0  0
  7  8  1  0  0  0  0
  8  9  2  0  0  0  0
  8 10  1  0  0  0  0
 10 11  1  0  0  0  0
  7 12  2  0  0  0  0
 12 13  1  0  0  0  0
 13 14  2  0  0  0  0
 14 15  1  0  0  0  0
 15 16  2  0  0  0  0
 16 17  1  0  0  0  0
 17 18  3  0  0  0  0
 16 19  1  0  0  0  0
 19 20  3  0  0  0  0
  1 21  1  0  0  0  0
 21 22  2  0  0  0  0
 22 23  1  0  0  0  0
 23 24  1  0  0  0  0
 24 25  1  0  0  0  0
 25 26  2  0  0  0  0
 26 27  1  0  0  0  0
 27 28  2  0  0  0  0
 28 29  1  0  0  0  0
 29 30  1  0  0  0  0
 28 31  1  0  0  0  0
 31 32  2  0  0  0  0
 24 33  1  0  0  0  0
 33 34  2  0  0  0  0
 34 35  1  0  0  0  0
 35 36  2  0  0  0  0
 36 37  1  0  0  0  0
 37 38  1  0  0  0  0
 36 39  1  0  0  0  0
 39 40  2  0  0  0  0
 24 41  1  0  0  0  0
 41 42  2  0  0  0  0
 42 43  1  0  0  0  0
 43 44  1  0  0  0  0
 42 45  1  0  0  0  0
 45 46  2  0  0  0  0
 46 47  1  0  0  0  0
 47 48  1  0  0  0  0
 48 49  2  0  0  0  0
 49 50  1  0  0  0  0
 50 51  2  0  0  0  0
 51 52  1  0  0  0  0
 52 53  1  0  0  0  0
 51 54  1  0  0  0  0
 54 55  2  0  0  0  0
 47 56  1  0  0  0  0
 56 57  2  0  0  0  0
 57 58  1  0  0  0  0
 58 59  2  0  0  0  0
 59 60  1  0  0  0  0
 60 61  1  0  0  0  0
 59 62  1  0  0  0  0
 62 63  2  0  0  0  0
 47 64  1  0  0  0  0
 64 65  2  0  0  0  0
 65 66  1  0  0  0  0
 66 67  2  0  0  0  0
 65 68  1  0  0  0  0
 68 69  1  0  0  0  0
 69 70  2  0  0  0  0
 69 71  1  0  0  0  0
 71 72  2  0  0  0  0
 72 73  1  0  0  0  0
 73 74  2  0  0  0  0
 73 75  1  0  0  0  0
 75 76  2  0  0  0  0
 76 77  1  0  0  0  0
 77 78  1  0  0  0  0
 77 79  2  0  0  0  0
 79 80  1  0  0  0  0
 79 81  1  0  0  0  0
 81 82  2  0  0  0  0
 82 83  1  0  0  0  0
 83 84  2  0  0  0  0
 84 85  1  0  0  0  0
 85 86  3  0  0  0  0
 84 87  1  0  0  0  0
 87 88  3  0  0  0  0
 15  2  1  0  0  0  0
 44 21  1  0  0  0  0
 66 46  1  0  0  0  0
 83 72  1  0  0  0  0
 14  5  1  0  0  0  0
 43 23  2  0  0  0  0
 55 48  1  0  0  0  0
 63 56  1  0  0  0  0
 70 64  1  0  0  0  0
 82 75  1  0  0  0  0
 32 25  1  0  0  0  0
 40 33  1  0  0  0  0
 67 41  1  0  0  0  0
  1 89  1  0  0  0  0
  6 90  1  0  0  0  0
 11 91  1  0  0  0  0
 11 92  1  0  0  0  0
 11 93  1  0  0  0  0
 12 94  1  0  0  0  0
 13 95  1  0  0  0  0
 22 96  1  0  0  0  0
 26 97  1  0  0  0  0
 27 98  1  0  0  0  0
 29 99  1  0  0  0  0
 29100  1  0  0  0  0
 30101  1  0  0  0  0
 30102  1  0  0  0  0
 30103  1  0  0  0  0
 31104  1  0  0  0  0
 32105  1  0  0  0  0
 34106  1  0  0  0  0
 35107  1  0  0  0  0
 37108  1  0  0  0  0
 37109  1  0  0  0  0
 38110  1  0  0  0  0
 38111  1  0  0  0  0
 38112  1  0  0  0  0
 39113  1  0  0  0  0
 40114  1  0  0  0  0
 45115  1  0  0  0  0
 49116  1  0  0  0  0
 50117  1  0  0  0  0
 52118  1  0  0  0  0
 52119  1  0  0  0  0
 53120  1  0  0  0  0
 53121  1  0  0  0  0
 53122  1  0  0  0  0
 54123  1  0  0  0  0
 55124  1  0  0  0  0
 57125  1  0  0  0  0
 58126  1  0  0  0  0
 60127  1  0  0  0  0
 60128  1  0  0  0  0
 61129  1  0  0  0  0
 61130  1  0  0  0  0
 61131  1  0  0  0  0
 62132  1  0  0  0  0
 63133  1  0  0  0  0
 67134  1  0  0  0  0
 70135  1  0  0  0  0
 71136  1  0  0  0  0
 76137  1  0  0  0  0
 81138  1  0  0  0  0
M  END
