138

C          3.23540        4.15620        2.94600
C          2.74680        5.22880        3.65770
C          1.33800        5.57810        3.79430
O          0.38800        5.05140        3.23220
C          1.27670        6.69750        4.75270
C          0.17560        7.35510        5.25510
C          0.38440        8.38150        6.17880
C         -0.80790        9.07880        6.73020
O         -1.94340        8.82800        6.41260
O         -0.48360       10.01810        7.62790
C         -1.57230       10.72400        8.20510
C          1.67800        8.72440        6.56720
C          2.78490        8.06190        6.05590
C          2.58610        7.03790        5.14290
C          3.52830        6.15560        4.45000
C          4.89400        6.23570        4.53920
C          5.58450        7.18140        5.32650
N          6.21110        7.91960        5.94300
C          5.81290        5.41060        3.85680
N          6.62800        4.78920        3.33790
C          2.57750        3.18510        2.18400
C          3.29810        2.12160        1.61230
C          2.53620        1.21990        0.90540
C          2.82810       -0.07790        0.19350
C          3.68200        0.08230       -1.05210
C          4.31360       -1.02550       -1.60390
C          5.05260       -0.90540       -2.76490
C          5.17940        0.31980       -3.40700
C          5.94570        0.43820       -4.69250
C          5.02150        0.19450       -5.88740
C          4.53770        1.42100       -2.85720
C          3.79410        1.30570       -1.69680
C          3.45890       -1.02690        1.19550
C          2.69950       -1.94070        1.91130
C          3.29590       -2.76050        2.85270
C          4.65650       -2.67900        3.11330
C          5.31010       -3.60350        4.09910
C          5.82980       -4.85610        3.39050
C          5.40930       -1.75060        2.40470
C          4.81990       -0.93220        1.46120
C          1.43500       -0.48130       -0.25330
C          0.48510        0.49590        0.12650
C          1.16860        1.51590        0.85520
Se         0.72240        3.04830        1.77800
C         -0.86520        0.37900       -0.20070
C         -1.24920       -0.74030       -0.89860
C         -2.64430       -1.12890       -1.35900
C         -3.57180       -1.11170       -0.15990
C         -4.19710        0.07110        0.21530
C         -5.00450        0.11250        1.33540
C         -5.20790       -1.02170        2.11120
C         -6.05480       -0.96100        3.34930
C         -5.21140       -0.53730        4.55370
C         -4.57100       -2.19750        1.73890
C         -3.75900       -2.24370        0.62020
C         -3.16990       -0.26550       -2.49420
C         -4.50790       -0.36740       -2.85650
C         -5.00620        0.36770       -3.91390
C         -4.18310        1.21900       -4.64120
C         -4.71880        1.98410       -5.81660
C         -4.62220        1.14290       -7.09100
C         -2.84500        1.30520       -4.28390
C         -2.33970        0.57050       -3.22580
C         -2.38290       -2.49990       -1.92950
C         -1.01740       -2.79950       -1.87700
C         -0.30390       -1.73810       -1.24390
C          1.05030       -1.60780       -0.94140
S         -0.62870       -4.32860       -2.52820
C         -2.32830       -4.60150       -2.89400
C         -3.11970       -3.50540       -2.51080
C         -2.88650       -5.74610       -3.47160
C         -2.30410       -6.92320       -3.87930
C         -0.87860       -7.25030       -3.79460
O          0.02830       -6.55000       -3.38430
C         -0.74590       -8.62800       -4.31510
C          0.39670       -9.39210       -4.43240
C          0.27890      -10.67610       -4.95140
Cl         1.66160      -11.68430       -5.12370
C         -0.97920      -11.14560       -5.33410
F         -1.08640      -12.38320       -5.83270
C         -2.13070      -10.38160       -5.21900
C         -2.01110       -9.10190       -4.70050
C         -3.00430       -8.05810       -4.44700
C         -4.34500       -8.17020       -4.71240
C         -4.94670       -9.32000       -5.26700
N         -5.50280      -10.21940       -5.71330
C         -5.32190       -7.17890       -4.48250
N         -6.18210       -6.43260       -4.33070
H          4.30810        4.00170        2.99150
H         -0.82640        7.08970        4.95450
H         -2.24340       10.03190        8.71790
H         -1.13820       11.42920        8.90890
H         -2.13600       11.24960        7.43160
H          1.81610        9.52030        7.28190
H          3.77260        8.34780        6.37820
H          4.36440        2.03850        1.74140
H          4.23870       -1.98540       -1.11380
H          5.54140       -1.77660       -3.17710
H          6.38300        1.43530       -4.77320
H          6.75600       -0.29330       -4.70960
H          4.58260       -0.79910       -5.82970
H          5.57500        0.27680       -6.81980
H          4.21460        0.92390       -5.89640
H          4.62150        2.38370       -3.34090
H          3.30260        2.17830       -1.29100
H          1.63630       -2.01750        1.73460
H          2.69030       -3.47170        3.39640
H          4.59070       -3.89610        4.86640
H          6.14370       -3.09490        4.58750
H          5.01110       -5.38310        2.90550
H          6.30250       -5.52810        4.10290
H          6.55980       -4.58550        2.63100
H          6.46920       -1.66520        2.59660
H          5.42300       -0.22010        0.91650
H         -1.56760        1.14440        0.09500
H         -4.06260        0.96170       -0.38150
H         -5.48710        1.03960        1.60970
H         -6.49610       -1.94020        3.54510
H         -6.86480       -0.24270        3.20800
H         -4.40620       -1.24930        4.72120
H         -5.82570       -0.48980        5.44980
H         -4.77080        0.44210        4.38190
H         -4.71250       -3.09110        2.33000
H         -3.27190       -3.17030        0.35230
H         -5.16420       -1.01840       -2.29740
H         -6.05040        0.28120       -4.17820
H         -4.14900        2.90580       -5.94980
H         -5.76300        2.24970       -5.64030
H         -3.58650        0.87780       -7.29180
H         -5.19490        0.22460       -6.98300
H         -5.01080        1.69660       -7.94250
H         -2.18560        1.95730       -4.83890
H         -1.29320        0.65450       -2.97080
H          1.75340       -2.37390       -1.22870
H         -4.18480       -3.49430       -2.65910
H         -3.96010       -5.67140       -3.59690
H          1.35390       -9.00050       -4.12760
H         -3.06940      -10.80730       -5.53330
