
  xtb     01272209393D
 energy: -190.958093060381 gnorm: 0.000400709502 xtb: 6.4.1 (unknown)
106117  0     0  0            999 V2000
   -2.4553   -5.3981   -5.4132 C   0  0  0  0  0  0  0  0  0  0  0  0
   -1.2792   -6.0367   -5.7340 C   0  0  0  0  0  0  0  0  0  0  0  0
    0.0642   -5.6388   -5.3113 C   0  0  0  0  0  0  0  0  0  0  0  0
    0.3730   -4.7398   -4.5476 O   0  0  0  0  0  0  0  0  0  0  0  0
    0.9979   -6.5459   -6.0082 C   0  0  0  0  0  0  0  0  0  0  0  0
    2.3756   -6.5502   -5.9788 C   0  0  0  0  0  0  0  0  0  0  0  0
    3.0420   -7.5084   -6.7433 C   0  0  0  0  0  0  0  0  0  0  0  0
    4.5260   -7.5795   -6.7868 C   0  0  0  0  0  0  0  0  0  0  0  0
    5.1468   -8.4017   -7.4134 O   0  0  0  0  0  0  0  0  0  0  0  0
    5.1043   -6.6197   -6.0537 O   0  0  0  0  0  0  0  0  0  0  0  0
    6.5240   -6.6125   -6.0532 C   0  0  0  0  0  0  0  0  0  0  0  0
    2.3189   -8.4288   -7.5015 C   0  0  0  0  0  0  0  0  0  0  0  0
    0.9327   -8.4214   -7.5276 C   0  0  0  0  0  0  0  0  0  0  0  0
    0.2628   -7.4678   -6.7758 C   0  0  0  0  0  0  0  0  0  0  0  0
   -1.1641   -7.1892   -6.6028 C   0  0  0  0  0  0  0  0  0  0  0  0
   -2.1818   -7.9264   -7.1538 C   0  0  0  0  0  0  0  0  0  0  0  0
   -1.9888   -9.0513   -7.9832 C   0  0  0  0  0  0  0  0  0  0  0  0
   -1.9123   -9.9731   -8.6632 N   0  0  0  0  0  0  0  0  0  0  0  0
   -3.5607   -7.6961   -6.9683 C   0  0  0  0  0  0  0  0  0  0  0  0
   -4.6997   -7.5841   -6.8629 N   0  0  0  0  0  0  0  0  0  0  0  0
   -2.7058   -4.3017   -4.5860 C   0  0  0  0  0  0  0  0  0  0  0  0
   -3.9931   -3.7650   -4.3928 C   0  0  0  0  0  0  0  0  0  0  0  0
   -5.2564   -4.2730   -5.0062 C   0  0  0  0  0  0  0  0  0  0  0  0
   -5.8416   -5.4184   -4.1753 C   0  0  0  0  0  0  0  0  0  0  0  0
   -3.9700   -2.7081   -3.4956 C   0  0  0  0  0  0  0  0  0  0  0  0
   -5.2346   -1.6609   -2.8784 S   0  0  0  0  0  0  0  0  0  0  0  0
   -4.0432   -0.8312   -1.9404 C   0  0  0  0  0  0  0  0  0  0  0  0
   -3.9555    0.2653   -1.0745 C   0  0  0  0  0  0  0  0  0  0  0  0
   -4.9116    1.2375   -0.7040 C   0  0  0  0  0  0  0  0  0  0  0  0
   -4.4874    2.3610    0.0798 C   0  0  0  0  0  0  0  0  0  0  0  0
   -5.4656    3.2261    0.2939 N   0  0  0  0  0  0  0  0  0  0  0  0
   -6.8071    2.6727   -0.4235 S   0  0  0  0  0  0  0  0  0  0  0  0
   -6.1904    1.3072   -1.0373 N   0  0  0  0  0  0  0  0  0  0  0  0
   -3.1632    2.3888    0.5726 C   0  0  0  0  0  0  0  0  0  0  0  0
   -2.5338    3.2603    1.4713 C   0  0  0  0  0  0  0  0  0  0  0  0
   -2.8763    4.7170    2.3373 S   0  0  0  0  0  0  0  0  0  0  0  0
   -1.3035    4.5906    3.1040 C   0  0  0  0  0  0  0  0  0  0  0  0
   -0.6578    5.3816    4.0450 C   0  0  0  0  0  0  0  0  0  0  0  0
   -1.2834    6.5995    4.6421 C   0  0  0  0  0  0  0  0  0  0  0  0
   -1.9776    6.2620    5.9645 C   0  0  0  0  0  0  0  0  0  0  0  0
    0.5973    4.8490    4.3864 C   0  0  0  0  0  0  0  0  0  0  0  0
    0.9547    3.3652    3.5005 S   0  0  0  0  0  0  0  0  0  0  0  0
   -0.5643    3.4684    2.6930 C   0  0  0  0  0  0  0  0  0  0  0  0
   -1.2720    2.7201    1.7478 C   0  0  0  0  0  0  0  0  0  0  0  0
   -1.0790    1.5743    1.0203 N   0  0  0  0  0  0  0  0  0  0  0  0
   -2.2286    1.3525    0.2802 C   0  0  0  0  0  0  0  0  0  0  0  0
   -2.5919    0.3577   -0.6641 C   0  0  0  0  0  0  0  0  0  0  0  0
   -1.8727   -0.6214   -1.3182 N   0  0  0  0  0  0  0  0  0  0  0  0
   -2.7472   -1.3460   -2.0844 C   0  0  0  0  0  0  0  0  0  0  0  0
   -2.6926   -2.4129   -2.9839 C   0  0  0  0  0  0  0  0  0  0  0  0
   -1.4823   -3.4470   -3.6423 S   0  0  0  0  0  0  0  0  0  0  0  0
   -0.4499   -0.7342   -1.5502 C   0  0  0  0  0  0  0  0  0  0  0  0
    0.1555   -1.9602   -0.8689 C   0  0  0  0  0  0  0  0  0  0  0  0
   -0.0913    0.6247    1.4888 C   0  0  0  0  0  0  0  0  0  0  0  0
   -0.7166   -0.3752    2.4588 C   0  0  0  0  0  0  0  0  0  0  0  0
    1.4431    5.4440    5.3285 C   0  0  0  0  0  0  0  0  0  0  0  0
    2.6648    5.0530    5.8176 C   0  0  0  0  0  0  0  0  0  0  0  0
    3.4033    3.8441    5.4426 C   0  0  0  0  0  0  0  0  0  0  0  0
    3.0853    3.0027    4.6183 O   0  0  0  0  0  0  0  0  0  0  0  0
    4.6263    3.8405    6.2646 C   0  0  0  0  0  0  0  0  0  0  0  0
    5.6425    2.9106    6.2954 C   0  0  0  0  0  0  0  0  0  0  0  0
    6.7151    3.1107    7.1646 C   0  0  0  0  0  0  0  0  0  0  0  0
    7.8346    2.1202    7.2088 C   0  0  0  0  0  0  0  0  0  0  0  0
    6.7245    4.2431    7.9731 C   0  0  0  0  0  0  0  0  0  0  0  0
    5.7040    5.1841    7.9458 C   0  0  0  0  0  0  0  0  0  0  0  0
    4.6393    4.9854    7.0819 C   0  0  0  0  0  0  0  0  0  0  0  0
    3.4341    5.7676    6.8185 C   0  0  0  0  0  0  0  0  0  0  0  0
    3.1198    6.9608    7.4184 C   0  0  0  0  0  0  0  0  0  0  0  0
    1.9670    7.7337    7.1709 C   0  0  0  0  0  0  0  0  0  0  0  0
    1.0582    8.4232    7.0288 N   0  0  0  0  0  0  0  0  0  0  0  0
    3.9283    7.5957    8.3844 C   0  0  0  0  0  0  0  0  0  0  0  0
    4.5352    8.1668    9.1743 N   0  0  0  0  0  0  0  0  0  0  0  0
   -3.3479   -5.7969   -5.8756 H   0  0  0  0  0  0  0  0  0  0  0  0
    2.9173   -5.8317   -5.3847 H   0  0  0  0  0  0  0  0  0  0  0  0
    6.9025   -6.4777   -7.0686 H   0  0  0  0  0  0  0  0  0  0  0  0
    6.8234   -5.7818   -5.4195 H   0  0  0  0  0  0  0  0  0  0  0  0
    6.9083   -7.5556   -5.6592 H   0  0  0  0  0  0  0  0  0  0  0  0
    2.8708   -9.1554   -8.0789 H   0  0  0  0  0  0  0  0  0  0  0  0
    0.4045   -9.1437   -8.1280 H   0  0  0  0  0  0  0  0  0  0  0  0
   -5.0886   -4.6156   -6.0280 H   0  0  0  0  0  0  0  0  0  0  0  0
   -5.9747   -3.4510   -5.0342 H   0  0  0  0  0  0  0  0  0  0  0  0
   -6.0420   -5.0846   -3.1599 H   0  0  0  0  0  0  0  0  0  0  0  0
   -6.7711   -5.7582   -4.6224 H   0  0  0  0  0  0  0  0  0  0  0  0
   -5.1526   -6.2586   -4.1383 H   0  0  0  0  0  0  0  0  0  0  0  0
   -2.0258    6.9807    3.9381 H   0  0  0  0  0  0  0  0  0  0  0  0
   -0.5408    7.3805    4.8119 H   0  0  0  0  0  0  0  0  0  0  0  0
   -2.4356    7.1559    6.3779 H   0  0  0  0  0  0  0  0  0  0  0  0
   -2.7506    5.5137    5.8056 H   0  0  0  0  0  0  0  0  0  0  0  0
   -1.2626    5.8757    6.6873 H   0  0  0  0  0  0  0  0  0  0  0  0
   -0.3001   -0.8322   -2.6312 H   0  0  0  0  0  0  0  0  0  0  0  0
    0.0290    0.1945   -1.2366 H   0  0  0  0  0  0  0  0  0  0  0  0
   -0.1041   -2.0015    0.1852 H   0  0  0  0  0  0  0  0  0  0  0  0
    1.2371   -1.9367   -0.9676 H   0  0  0  0  0  0  0  0  0  0  0  0
   -0.2073   -2.8662   -1.3462 H   0  0  0  0  0  0  0  0  0  0  0  0
    0.6795    1.2029    2.0040 H   0  0  0  0  0  0  0  0  0  0  0  0
    0.3796    0.1034    0.6612 H   0  0  0  0  0  0  0  0  0  0  0  0
   -1.1503    0.1466    3.3088 H   0  0  0  0  0  0  0  0  0  0  0  0
    0.0439   -1.0591    2.8254 H   0  0  0  0  0  0  0  0  0  0  0  0
   -1.5028   -0.9471    1.9693 H   0  0  0  0  0  0  0  0  0  0  0  0
    1.0430    6.3611    5.7384 H   0  0  0  0  0  0  0  0  0  0  0  0
    5.6001    2.0429    5.6538 H   0  0  0  0  0  0  0  0  0  0  0  0
    8.5203    2.3378    8.0232 H   0  0  0  0  0  0  0  0  0  0  0  0
    8.3909    2.1449    6.2719 H   0  0  0  0  0  0  0  0  0  0  0  0
    7.4453    1.1114    7.3345 H   0  0  0  0  0  0  0  0  0  0  0  0
    7.5538    4.3982    8.6478 H   0  0  0  0  0  0  0  0  0  0  0  0
    5.7556    6.0445    8.5923 H   0  0  0  0  0  0  0  0  0  0  0  0
  1  2  2  0  0  0  0
  2  3  1  0  0  0  0
  3  4  2  0  0  0  0
  3  5  1  0  0  0  0
  5  6  2  0  0  0  0
  6  7  1  0  0  0  0
  7  8  1  0  0  0  0
  8  9  2  0  0  0  0
  8 10  1  0  0  0  0
 10 11  1  0  0  0  0
  7 12  2  0  0  0  0
 12 13  1  0  0  0  0
 13 14  2  0  0  0  0
 14 15  1  0  0  0  0
 15 16  2  0  0  0  0
 16 17  1  0  0  0  0
 17 18  3  0  0  0  0
 16 19  1  0  0  0  0
 19 20  3  0  0  0  0
  1 21  1  0  0  0  0
 21 22  2  0  0  0  0
 22 23  1  0  0  0  0
 23 24  1  0  0  0  0
 22 25  1  0  0  0  0
 25 26  1  0  0  0  0
 26 27  1  0  0  0  0
 27 28  1  0  0  0  0
 28 29  1  0  0  0  0
 29 30  1  0  0  0  0
 30 31  2  0  0  0  0
 31 32  1  0  0  0  0
 32 33  1  0  0  0  0
 30 34  1  0  0  0  0
 34 35  1  0  0  0  0
 35 36  1  0  0  0  0
 36 37  1  0  0  0  0
 37 38  1  0  0  0  0
 38 39  1  0  0  0  0
 39 40  1  0  0  0  0
 38 41  2  0  0  0  0
 41 42  1  0  0  0  0
 42 43  1  0  0  0  0
 43 44  1  0  0  0  0
 44 45  1  0  0  0  0
 45 46  1  0  0  0  0
 46 47  1  0  0  0  0
 47 48  1  0  0  0  0
 48 49  1  0  0  0  0
 49 50  1  0  0  0  0
 50 51  1  0  0  0  0
 48 52  1  0  0  0  0
 52 53  1  0  0  0  0
 45 54  1  0  0  0  0
 54 55  1  0  0  0  0
 41 56  1  0  0  0  0
 56 57  2  0  0  0  0
 57 58  1  0  0  0  0
 58 59  2  0  0  0  0
 58 60  1  0  0  0  0
 60 61  2  0  0  0  0
 61 62  1  0  0  0  0
 62 63  1  0  0  0  0
 62 64  2  0  0  0  0
 64 65  1  0  0  0  0
 65 66  2  0  0  0  0
 66 67  1  0  0  0  0
 67 68  2  0  0  0  0
 68 69  1  0  0  0  0
 69 70  3  0  0  0  0
 68 71  1  0  0  0  0
 71 72  3  0  0  0  0
 15  2  1  0  0  0  0
 51 21  1  0  0  0  0
 67 57  1  0  0  0  0
 14  5  1  0  0  0  0
 50 25  2  0  0  0  0
 66 60  1  0  0  0  0
 49 27  2  0  0  0  0
 47 28  2  0  0  0  0
 33 29  2  0  0  0  0
 46 34  2  0  0  0  0
 44 35  2  0  0  0  0
 43 37  2  0  0  0  0
  1 73  1  0  0  0  0
  6 74  1  0  0  0  0
 11 75  1  0  0  0  0
 11 76  1  0  0  0  0
 11 77  1  0  0  0  0
 12 78  1  0  0  0  0
 13 79  1  0  0  0  0
 23 80  1  0  0  0  0
 23 81  1  0  0  0  0
 24 82  1  0  0  0  0
 24 83  1  0  0  0  0
 24 84  1  0  0  0  0
 39 85  1  0  0  0  0
 39 86  1  0  0  0  0
 40 87  1  0  0  0  0
 40 88  1  0  0  0  0
 40 89  1  0  0  0  0
 52 90  1  0  0  0  0
 52 91  1  0  0  0  0
 53 92  1  0  0  0  0
 53 93  1  0  0  0  0
 53 94  1  0  0  0  0
 54 95  1  0  0  0  0
 54 96  1  0  0  0  0
 55 97  1  0  0  0  0
 55 98  1  0  0  0  0
 55 99  1  0  0  0  0
 56100  1  0  0  0  0
 61101  1  0  0  0  0
 63102  1  0  0  0  0
 63103  1  0  0  0  0
 63104  1  0  0  0  0
 64105  1  0  0  0  0
 65106  1  0  0  0  0
M  END
