103

C         -3.65690        2.50480       -4.93170
C         -4.72070        2.52160       -5.79170
C         -5.73420        1.44510       -5.89770
O         -5.78090        0.41390       -5.26440
C         -6.57620        1.81260       -7.05780
C         -7.68300        1.16430       -7.56090
C         -8.31550        1.70780       -8.68060
C         -9.52540        1.01970       -9.20430
O        -10.00480        0.02910       -8.71260
O        -10.03120        1.62550      -10.28640
C        -11.19410        1.03000      -10.84290
C         -7.81790        2.86580       -9.27660
C         -6.69870        3.51100       -8.77360
C         -6.07490        2.98590       -7.65130
C         -4.91750        3.44560       -6.88640
C         -4.20740        4.59530       -7.12210
C         -3.15560        5.07390       -6.31300
N         -2.30900        5.53720       -5.69030
C         -4.44610        5.46920       -8.20280
N         -4.58250        6.21650       -9.06360
C         -3.53760        1.79790       -3.71570
C         -4.46110        1.51930       -2.71210
C         -5.88910        1.95740       -2.66960
C         -6.85340        0.78020       -2.52270
C         -3.83590        0.92120       -1.60980
S         -4.44190        0.39000       -0.05620
C         -2.83680       -0.05970        0.39780
C         -2.14870       -0.55930        1.51630
C         -2.54170       -0.82410        2.84890
C         -1.53420       -1.13650        3.82820
N         -2.04050       -1.27410        5.04320
S         -3.63970       -1.04290        4.96640
N         -3.75200       -0.75240        3.37920
C         -0.19650       -1.31840        3.40740
C          0.97530       -1.71440        4.07330
S          1.51830       -2.04130        5.67900
C          3.11950       -2.37580        5.05600
C          4.33830       -2.67760        5.67620
C          4.48890       -2.98820        7.12650
C          3.44700       -3.98960        7.62180
C          5.36360       -2.77160        4.73660
S          4.78080       -2.57820        3.07990
C          3.19320       -2.25480        3.65880
C          1.97280       -1.87230        3.10020
N          1.47050       -1.57130        1.85710
C          0.15440       -1.18940        2.03730
C         -0.78450       -0.65160        1.13220
N         -0.63190       -0.17260       -0.15590
C         -1.88240        0.18130       -0.60050
C         -2.45080        0.74700       -1.74350
S         -1.89150        1.34700       -3.25530
C          0.54050        0.48930       -0.69490
C          0.47550        1.99920       -0.46730
C          2.02840       -2.18260        0.66630
C          2.04950       -3.70620        0.78380
C          6.73890       -3.02490        4.89330
C          7.53320       -2.59620        5.92660
C          7.21370       -1.44050        6.79050
O          6.18410       -0.80290        6.82820
C          8.46980       -1.14230        7.51870
C          9.46970       -2.05580        7.13640
C         10.74250       -1.95990        7.67500
C         10.99950       -0.95290        8.59380
C         10.01110       -0.05710        8.97180
Br        10.42300        1.28890       10.23270
C          8.72060       -0.13380        8.43470
Cl         7.50020        0.97310        8.89830
C          8.90140       -2.99020        6.16840
C          9.52670       -4.09800        5.65640
C          8.90330       -5.03860        4.80950
N          8.44790       -5.85270        4.14000
C         10.85920       -4.45920        5.94140
N         11.93980       -4.79630        6.13230
H         -2.77600        3.07430       -5.20650
H         -8.06570        0.26430       -7.10450
H        -11.46930        1.64230      -11.69760
H        -10.98290        0.00540      -11.15540
H        -12.00010        1.01240      -10.10640
H         -8.31830        3.26360      -10.14520
H         -6.33210        4.40190       -9.25690
H         -6.13190        2.52910       -3.56550
H         -6.00370        2.61680       -1.80270
H         -6.74130        0.09980       -3.36150
H         -7.87660        1.14620       -2.50140
H         -6.65810        0.23850       -1.60110
H          4.40240       -2.05490        7.69040
H          5.48810       -3.38980        7.30450
H          3.48510       -4.90130        7.02940
H          3.65290       -4.24370        8.65830
H          2.44360       -3.57790        7.56480
H          1.43100        0.10670       -0.20160
H          0.59450        0.27500       -1.76650
H          1.38380        2.46150       -0.84290
H         -0.37240        2.43810       -0.98510
H          0.38680        2.21500        0.59540
H          1.41200       -1.91460       -0.19030
H          3.04670       -1.80760        0.52110
H          1.04620       -4.08250        0.97180
H          2.70150       -4.02890        1.59030
H          2.41460       -4.13510       -0.14510
H          7.21240       -3.54660        4.06930
H         11.53040       -2.63890        7.39450
H         11.98420       -0.85840        9.02480
