
  xtb     01272209283D
 energy: -195.387870863555 gnorm: 0.000346667340 xtb: 6.4.1 (unknown)
103114  0     0  0            999 V2000
   -3.6569    2.5048   -4.9317 C   0  0  0  0  0  0  0  0  0  0  0  0
   -4.7207    2.5216   -5.7917 C   0  0  0  0  0  0  0  0  0  0  0  0
   -5.7342    1.4451   -5.8977 C   0  0  0  0  0  0  0  0  0  0  0  0
   -5.7809    0.4139   -5.2644 O   0  0  0  0  0  0  0  0  0  0  0  0
   -6.5762    1.8126   -7.0578 C   0  0  0  0  0  0  0  0  0  0  0  0
   -7.6830    1.1643   -7.5609 C   0  0  0  0  0  0  0  0  0  0  0  0
   -8.3155    1.7078   -8.6806 C   0  0  0  0  0  0  0  0  0  0  0  0
   -9.5254    1.0197   -9.2043 C   0  0  0  0  0  0  0  0  0  0  0  0
  -10.0048    0.0291   -8.7126 O   0  0  0  0  0  0  0  0  0  0  0  0
  -10.0312    1.6255  -10.2864 O   0  0  0  0  0  0  0  0  0  0  0  0
  -11.1941    1.0300  -10.8429 C   0  0  0  0  0  0  0  0  0  0  0  0
   -7.8179    2.8658   -9.2766 C   0  0  0  0  0  0  0  0  0  0  0  0
   -6.6987    3.5110   -8.7736 C   0  0  0  0  0  0  0  0  0  0  0  0
   -6.0749    2.9859   -7.6513 C   0  0  0  0  0  0  0  0  0  0  0  0
   -4.9175    3.4456   -6.8864 C   0  0  0  0  0  0  0  0  0  0  0  0
   -4.2074    4.5953   -7.1221 C   0  0  0  0  0  0  0  0  0  0  0  0
   -3.1556    5.0739   -6.3130 C   0  0  0  0  0  0  0  0  0  0  0  0
   -2.3090    5.5372   -5.6903 N   0  0  0  0  0  0  0  0  0  0  0  0
   -4.4461    5.4692   -8.2028 C   0  0  0  0  0  0  0  0  0  0  0  0
   -4.5825    6.2165   -9.0636 N   0  0  0  0  0  0  0  0  0  0  0  0
   -3.5376    1.7979   -3.7157 C   0  0  0  0  0  0  0  0  0  0  0  0
   -4.4611    1.5193   -2.7121 C   0  0  0  0  0  0  0  0  0  0  0  0
   -5.8891    1.9574   -2.6696 C   0  0  0  0  0  0  0  0  0  0  0  0
   -6.8534    0.7802   -2.5227 C   0  0  0  0  0  0  0  0  0  0  0  0
   -3.8359    0.9212   -1.6098 C   0  0  0  0  0  0  0  0  0  0  0  0
   -4.4419    0.3900   -0.0562 S   0  0  0  0  0  0  0  0  0  0  0  0
   -2.8368   -0.0597    0.3978 C   0  0  0  0  0  0  0  0  0  0  0  0
   -2.1487   -0.5593    1.5163 C   0  0  0  0  0  0  0  0  0  0  0  0
   -2.5417   -0.8241    2.8489 C   0  0  0  0  0  0  0  0  0  0  0  0
   -1.5342   -1.1365    3.8282 C   0  0  0  0  0  0  0  0  0  0  0  0
   -2.0405   -1.2741    5.0432 N   0  0  0  0  0  0  0  0  0  0  0  0
   -3.6397   -1.0429    4.9664 S   0  0  0  0  0  0  0  0  0  0  0  0
   -3.7520   -0.7524    3.3792 N   0  0  0  0  0  0  0  0  0  0  0  0
   -0.1965   -1.3184    3.4074 C   0  0  0  0  0  0  0  0  0  0  0  0
    0.9753   -1.7144    4.0733 C   0  0  0  0  0  0  0  0  0  0  0  0
    1.5183   -2.0413    5.6790 S   0  0  0  0  0  0  0  0  0  0  0  0
    3.1195   -2.3758    5.0560 C   0  0  0  0  0  0  0  0  0  0  0  0
    4.3383   -2.6776    5.6762 C   0  0  0  0  0  0  0  0  0  0  0  0
    4.4889   -2.9882    7.1265 C   0  0  0  0  0  0  0  0  0  0  0  0
    3.4470   -3.9896    7.6218 C   0  0  0  0  0  0  0  0  0  0  0  0
    5.3636   -2.7716    4.7366 C   0  0  0  0  0  0  0  0  0  0  0  0
    4.7808   -2.5782    3.0799 S   0  0  0  0  0  0  0  0  0  0  0  0
    3.1932   -2.2548    3.6588 C   0  0  0  0  0  0  0  0  0  0  0  0
    1.9728   -1.8723    3.1002 C   0  0  0  0  0  0  0  0  0  0  0  0
    1.4705   -1.5713    1.8571 N   0  0  0  0  0  0  0  0  0  0  0  0
    0.1544   -1.1894    2.0373 C   0  0  0  0  0  0  0  0  0  0  0  0
   -0.7845   -0.6516    1.1322 C   0  0  0  0  0  0  0  0  0  0  0  0
   -0.6319   -0.1726   -0.1559 N   0  0  0  0  0  0  0  0  0  0  0  0
   -1.8824    0.1813   -0.6005 C   0  0  0  0  0  0  0  0  0  0  0  0
   -2.4508    0.7470   -1.7435 C   0  0  0  0  0  0  0  0  0  0  0  0
   -1.8915    1.3470   -3.2553 S   0  0  0  0  0  0  0  0  0  0  0  0
    0.5405    0.4893   -0.6949 C   0  0  0  0  0  0  0  0  0  0  0  0
    0.4755    1.9992   -0.4673 C   0  0  0  0  0  0  0  0  0  0  0  0
    2.0284   -2.1826    0.6663 C   0  0  0  0  0  0  0  0  0  0  0  0
    2.0495   -3.7062    0.7838 C   0  0  0  0  0  0  0  0  0  0  0  0
    6.7389   -3.0249    4.8933 C   0  0  0  0  0  0  0  0  0  0  0  0
    7.5332   -2.5962    5.9266 C   0  0  0  0  0  0  0  0  0  0  0  0
    7.2137   -1.4405    6.7905 C   0  0  0  0  0  0  0  0  0  0  0  0
    6.1841   -0.8029    6.8282 O   0  0  0  0  0  0  0  0  0  0  0  0
    8.4698   -1.1423    7.5187 C   0  0  0  0  0  0  0  0  0  0  0  0
    9.4697   -2.0558    7.1364 C   0  0  0  0  0  0  0  0  0  0  0  0
   10.7425   -1.9599    7.6750 C   0  0  0  0  0  0  0  0  0  0  0  0
   10.9995   -0.9529    8.5938 C   0  0  0  0  0  0  0  0  0  0  0  0
   10.0111   -0.0571    8.9718 C   0  0  0  0  0  0  0  0  0  0  0  0
   10.4230    1.2889   10.2327 Br  0  0  0  0  0  0  0  0  0  0  0  0
    8.7206   -0.1338    8.4347 C   0  0  0  0  0  0  0  0  0  0  0  0
    7.5002    0.9731    8.8983 Cl  0  0  0  0  0  0  0  0  0  0  0  0
    8.9014   -2.9902    6.1684 C   0  0  0  0  0  0  0  0  0  0  0  0
    9.5267   -4.0980    5.6564 C   0  0  0  0  0  0  0  0  0  0  0  0
    8.9033   -5.0386    4.8095 C   0  0  0  0  0  0  0  0  0  0  0  0
    8.4479   -5.8527    4.1400 N   0  0  0  0  0  0  0  0  0  0  0  0
   10.8592   -4.4592    5.9414 C   0  0  0  0  0  0  0  0  0  0  0  0
   11.9398   -4.7963    6.1323 N   0  0  0  0  0  0  0  0  0  0  0  0
   -2.7760    3.0743   -5.2065 H   0  0  0  0  0  0  0  0  0  0  0  0
   -8.0657    0.2643   -7.1045 H   0  0  0  0  0  0  0  0  0  0  0  0
  -11.4693    1.6423  -11.6976 H   0  0  0  0  0  0  0  0  0  0  0  0
  -10.9829    0.0054  -11.1554 H   0  0  0  0  0  0  0  0  0  0  0  0
  -12.0001    1.0124  -10.1064 H   0  0  0  0  0  0  0  0  0  0  0  0
   -8.3183    3.2636  -10.1452 H   0  0  0  0  0  0  0  0  0  0  0  0
   -6.3321    4.4019   -9.2569 H   0  0  0  0  0  0  0  0  0  0  0  0
   -6.1319    2.5291   -3.5655 H   0  0  0  0  0  0  0  0  0  0  0  0
   -6.0037    2.6168   -1.8027 H   0  0  0  0  0  0  0  0  0  0  0  0
   -6.7413    0.0998   -3.3615 H   0  0  0  0  0  0  0  0  0  0  0  0
   -7.8766    1.1462   -2.5014 H   0  0  0  0  0  0  0  0  0  0  0  0
   -6.6581    0.2385   -1.6011 H   0  0  0  0  0  0  0  0  0  0  0  0
    4.4024   -2.0549    7.6904 H   0  0  0  0  0  0  0  0  0  0  0  0
    5.4881   -3.3898    7.3045 H   0  0  0  0  0  0  0  0  0  0  0  0
    3.4851   -4.9013    7.0294 H   0  0  0  0  0  0  0  0  0  0  0  0
    3.6529   -4.2437    8.6583 H   0  0  0  0  0  0  0  0  0  0  0  0
    2.4436   -3.5779    7.5648 H   0  0  0  0  0  0  0  0  0  0  0  0
    1.4310    0.1067   -0.2016 H   0  0  0  0  0  0  0  0  0  0  0  0
    0.5945    0.2750   -1.7665 H   0  0  0  0  0  0  0  0  0  0  0  0
    1.3838    2.4615   -0.8429 H   0  0  0  0  0  0  0  0  0  0  0  0
   -0.3724    2.4381   -0.9851 H   0  0  0  0  0  0  0  0  0  0  0  0
    0.3868    2.2150    0.5954 H   0  0  0  0  0  0  0  0  0  0  0  0
    1.4120   -1.9146   -0.1903 H   0  0  0  0  0  0  0  0  0  0  0  0
    3.0467   -1.8076    0.5211 H   0  0  0  0  0  0  0  0  0  0  0  0
    1.0462   -4.0825    0.9718 H   0  0  0  0  0  0  0  0  0  0  0  0
    2.7015   -4.0289    1.5903 H   0  0  0  0  0  0  0  0  0  0  0  0
    2.4146   -4.1351   -0.1451 H   0  0  0  0  0  0  0  0  0  0  0  0
    7.2124   -3.5466    4.0693 H   0  0  0  0  0  0  0  0  0  0  0  0
   11.5304   -2.6389    7.3945 H   0  0  0  0  0  0  0  0  0  0  0  0
   11.9842   -0.8584    9.0248 H   0  0  0  0  0  0  0  0  0  0  0  0
  1  2  2  0  0  0  0
  2  3  1  0  0  0  0
  3  4  2  0  0  0  0
  3  5  1  0  0  0  0
  5  6  2  0  0  0  0
  6  7  1  0  0  0  0
  7  8  1  0  0  0  0
  8  9  2  0  0  0  0
  8 10  1  0  0  0  0
 10 11  1  0  0  0  0
  7 12  2  0  0  0  0
 12 13  1  0  0  0  0
 13 14  2  0  0  0  0
 14 15  1  0  0  0  0
 15 16  2  0  0  0  0
 16 17  1  0  0  0  0
 17 18  3  0  0  0  0
 16 19  1  0  0  0  0
 19 20  3  0  0  0  0
  1 21  1  0  0  0  0
 21 22  2  0  0  0  0
 22 23  1  0  0  0  0
 23 24  1  0  0  0  0
 22 25  1  0  0  0  0
 25 26  1  0  0  0  0
 26 27  1  0  0  0  0
 27 28  1  0  0  0  0
 28 29  1  0  0  0  0
 29 30  1  0  0  0  0
 30 31  2  0  0  0  0
 31 32  1  0  0  0  0
 32 33  1  0  0  0  0
 30 34  1  0  0  0  0
 34 35  1  0  0  0  0
 35 36  1  0  0  0  0
 36 37  1  0  0  0  0
 37 38  1  0  0  0  0
 38 39  1  0  0  0  0
 39 40  1  0  0  0  0
 38 41  2  0  0  0  0
 41 42  1  0  0  0  0
 42 43  1  0  0  0  0
 43 44  1  0  0  0  0
 44 45  1  0  0  0  0
 45 46  1  0  0  0  0
 46 47  1  0  0  0  0
 47 48  1  0  0  0  0
 48 49  1  0  0  0  0
 49 50  1  0  0  0  0
 50 51  1  0  0  0  0
 48 52  1  0  0  0  0
 52 53  1  0  0  0  0
 45 54  1  0  0  0  0
 54 55  1  0  0  0  0
 41 56  1  0  0  0  0
 56 57  2  0  0  0  0
 57 58  1  0  0  0  0
 58 59  2  0  0  0  0
 58 60  1  0  0  0  0
 60 61  2  0  0  0  0
 61 62  1  0  0  0  0
 62 63  2  0  0  0  0
 63 64  1  0  0  0  0
 64 65  1  0  0  0  0
 64 66  2  0  0  0  0
 66 67  1  0  0  0  0
 61 68  1  0  0  0  0
 68 69  2  0  0  0  0
 69 70  1  0  0  0  0
 70 71  3  0  0  0  0
 69 72  1  0  0  0  0
 72 73  3  0  0  0  0
 15  2  1  0  0  0  0
 51 21  1  0  0  0  0
 68 57  1  0  0  0  0
 14  5  1  0  0  0  0
 50 25  2  0  0  0  0
 66 60  1  0  0  0  0
 49 27  2  0  0  0  0
 47 28  2  0  0  0  0
 33 29  2  0  0  0  0
 46 34  2  0  0  0  0
 44 35  2  0  0  0  0
 43 37  2  0  0  0  0
  1 74  1  0  0  0  0
  6 75  1  0  0  0  0
 11 76  1  0  0  0  0
 11 77  1  0  0  0  0
 11 78  1  0  0  0  0
 12 79  1  0  0  0  0
 13 80  1  0  0  0  0
 23 81  1  0  0  0  0
 23 82  1  0  0  0  0
 24 83  1  0  0  0  0
 24 84  1  0  0  0  0
 24 85  1  0  0  0  0
 39 86  1  0  0  0  0
 39 87  1  0  0  0  0
 40 88  1  0  0  0  0
 40 89  1  0  0  0  0
 40 90  1  0  0  0  0
 52 91  1  0  0  0  0
 52 92  1  0  0  0  0
 53 93  1  0  0  0  0
 53 94  1  0  0  0  0
 53 95  1  0  0  0  0
 54 96  1  0  0  0  0
 54 97  1  0  0  0  0
 55 98  1  0  0  0  0
 55 99  1  0  0  0  0
 55100  1  0  0  0  0
 56101  1  0  0  0  0
 62102  1  0  0  0  0
 63103  1  0  0  0  0
M  END
