103

C          0.24840       -4.47290        5.74700
C         -0.23600       -3.80600        6.84790
C         -0.64650       -2.40100        6.89630
O         -0.60740       -1.58240        5.99450
C         -1.12780       -2.16260        8.27170
C         -1.63810       -1.00790        8.82220
C         -2.04130       -1.03550       10.15860
C         -2.60180        0.21100       10.74400
O         -2.70160        1.25210       10.14390
O         -2.98950        0.05260       12.01580
C         -3.54360        1.20110       12.64120
C         -1.91860       -2.20650       10.90440
C         -1.40240       -3.36700       10.34640
C         -1.00510       -3.34920        9.01780
C         -0.44570       -4.39190        8.15540
C         -0.18610       -5.68100        8.54790
C          0.34920       -6.70090        7.73420
N          0.77690       -7.58750        7.14070
C         -0.42030       -6.17810        9.84740
N         -0.58540       -6.65400       10.87900
C          0.47030       -4.04290        4.43670
C          0.95260       -4.89700        3.42640
C          1.35480       -6.32390        3.60720
C          2.78480       -6.42180        4.14620
C          1.06380       -4.23170        2.21430
S          1.57990       -4.75570        0.62100
C          1.26020       -3.16300        0.02900
C          1.34000       -2.43940       -1.16860
C          1.84170       -2.79450       -2.44060
C          1.86130       -1.80610       -3.47910
N          2.40320       -2.25890       -4.59840
S          2.84710       -3.79830       -4.36740
N          2.36420       -3.94660       -2.83010
C          1.26190       -0.55010       -3.23490
C          0.96100        0.50810       -4.10210
S          1.18460        0.94220       -5.75760
C          0.21100        2.37470       -5.49820
C         -0.24200        3.38440       -6.35650
C          0.19530        3.55400       -7.77120
C          1.69840        3.36280       -7.95880
C         -1.06530        4.28240       -5.67700
S         -1.19380        3.90630       -3.95680
C         -0.23640        2.49240       -4.17130
C          0.19850        1.43080       -3.37450
N          0.04110        0.99050       -2.08710
C          0.69970       -0.21780       -1.96760
C          0.86010       -1.12530       -0.88880
N          0.55080       -1.04580        0.45840
C          0.78530       -2.28130        1.00750
C          0.67500       -2.88070        2.26420
S          0.16550       -2.40900        3.84000
C          0.58380        0.09660        1.34830
C          2.00210        0.34720        1.85950
C         -0.93800        1.61550       -1.22640
C         -0.41880        2.92160       -0.62480
C         -1.73530        5.43970       -6.11150
C         -2.30910        5.65130       -7.34030
C         -2.74540        4.57820       -8.25560
O         -2.56070        3.38400       -8.15360
C         -3.58120        5.25320       -9.27670
C         -4.24980        4.68640      -10.34310
C         -4.99030        5.52760      -11.15850
F         -5.65020        5.02130      -12.20740
C         -5.05670        6.89610      -10.89640
F         -5.78660        7.68240      -11.69560
C         -4.38720        7.46550       -9.82330
C         -3.64040        6.63060       -9.00720
C         -2.83150        6.91070       -7.82260
C         -2.54400        8.15300       -7.32050
C         -1.66620        8.39190       -6.24170
N         -0.94110        8.65710       -5.39200
C         -3.06210        9.35610       -7.84320
N         -3.45920       10.36380       -8.22250
H          0.49590       -5.51430        5.90050
H         -1.73160       -0.10090        8.24480
H         -2.83530        2.03130       12.60500
H         -4.46230        1.50200       12.13330
H         -3.75070        0.91700       13.66960
H         -2.23470       -2.20560       11.93560
H         -1.32090       -4.25680       10.94860
H          1.30620       -6.81780        2.63470
H          0.67620       -6.84100        4.28700
H          2.87020       -5.91890        5.10660
H          3.48380       -5.96420        3.45000
H          3.05580       -7.46500        4.27980
H         -0.08800        4.55240       -8.11100
H         -0.34930        2.83280       -8.38830
H          1.96900        3.60950       -8.98220
H          2.25240        4.01690       -7.28890
H          1.99450        2.33570       -7.76720
H          0.22840        0.98540        0.84290
H         -0.07750       -0.12500        2.19090
H          2.37410       -0.51840        2.40130
H          2.67460        0.55400        1.02910
H          2.00140        1.19970        2.53260
H         -1.24600        0.90170       -0.46170
H         -1.81870        1.84110       -1.83810
H          0.54100        2.78420       -0.13180
H         -1.13500        3.30460        0.09660
H         -0.28900        3.66580       -1.40590
H         -1.85810        6.20970       -5.35790
H         -4.20040        3.62760      -10.54100
H         -4.47420        8.52680       -9.65760
