
  xtb     01272209073D
 energy: -197.444300490450 gnorm: 0.000196763951 xtb: 6.4.1 (unknown)
113124  0     0  0            999 V2000
   -6.9159   -2.1531    2.0732 C   0  0  0  0  0  0  0  0  0  0  0  0
   -7.5572   -3.1315    1.3611 C   0  0  0  0  0  0  0  0  0  0  0  0
   -7.1634   -3.5318   -0.0093 C   0  0  0  0  0  0  0  0  0  0  0  0
   -6.4517   -2.9364   -0.7894 O   0  0  0  0  0  0  0  0  0  0  0  0
   -7.7294   -4.8877   -0.1895 C   0  0  0  0  0  0  0  0  0  0  0  0
   -7.5582   -5.7485   -1.2521 C   0  0  0  0  0  0  0  0  0  0  0  0
   -8.1675   -7.0019   -1.1834 C   0  0  0  0  0  0  0  0  0  0  0  0
   -8.0134   -8.0039   -2.2708 C   0  0  0  0  0  0  0  0  0  0  0  0
   -8.5384   -9.0895   -2.2711 O   0  0  0  0  0  0  0  0  0  0  0  0
   -7.2117   -7.5714   -3.2518 O   0  0  0  0  0  0  0  0  0  0  0  0
   -6.9964   -8.4789   -4.3222 C   0  0  0  0  0  0  0  0  0  0  0  0
   -8.9297   -7.3543   -0.0695 C   0  0  0  0  0  0  0  0  0  0  0  0
   -9.0981   -6.4876    0.9993 C   0  0  0  0  0  0  0  0  0  0  0  0
   -8.4864   -5.2443    0.9419 C   0  0  0  0  0  0  0  0  0  0  0  0
   -8.4381   -4.1428    1.8997 C   0  0  0  0  0  0  0  0  0  0  0  0
   -9.1577   -4.0406    3.0615 C   0  0  0  0  0  0  0  0  0  0  0  0
   -9.1393   -2.8992    3.8909 C   0  0  0  0  0  0  0  0  0  0  0  0
   -9.1818   -1.9874    4.5872 N   0  0  0  0  0  0  0  0  0  0  0  0
  -10.0318   -5.0359    3.5427 C   0  0  0  0  0  0  0  0  0  0  0  0
  -10.7502   -5.8154    3.9833 N   0  0  0  0  0  0  0  0  0  0  0  0
   -6.1197   -1.1348    1.5080 C   0  0  0  0  0  0  0  0  0  0  0  0
   -6.3080   -0.3778    0.3576 C   0  0  0  0  0  0  0  0  0  0  0  0
   -7.5608   -0.3535   -0.4513 C   0  0  0  0  0  0  0  0  0  0  0  0
   -8.1580    1.0516   -0.5236 C   0  0  0  0  0  0  0  0  0  0  0  0
   -5.2058    0.4525    0.1189 C   0  0  0  0  0  0  0  0  0  0  0  0
   -4.7982    1.5376   -1.1916 S   0  0  0  0  0  0  0  0  0  0  0  0
   -3.2284    1.7619   -0.5001 C   0  0  0  0  0  0  0  0  0  0  0  0
   -2.0010    2.3637   -0.8208 C   0  0  0  0  0  0  0  0  0  0  0  0
   -1.5114    3.0323   -1.9631 C   0  0  0  0  0  0  0  0  0  0  0  0
   -0.1146    3.2861   -2.0934 C   0  0  0  0  0  0  0  0  0  0  0  0
    0.0822    3.8389   -3.2916 N   0  0  0  0  0  0  0  0  0  0  0  0
   -1.1163    3.9075   -3.8145 N   0  0  0  0  0  0  0  0  0  0  0  0
   -1.3338    4.4203   -5.1361 C   0  0  0  0  0  0  0  0  0  0  0  0
   -1.3173    3.2888   -6.1596 C   0  0  0  0  0  0  0  0  0  0  0  0
   -2.1012    3.4455   -3.0858 N   0  0  0  0  0  0  0  0  0  0  0  0
    0.7564    2.9976   -1.0218 C   0  0  0  0  0  0  0  0  0  0  0  0
    2.1395    3.1297   -0.8141 C   0  0  0  0  0  0  0  0  0  0  0  0
    3.5663    3.5283   -1.7074 S   0  0  0  0  0  0  0  0  0  0  0  0
    4.5349    3.1600   -0.2989 C   0  0  0  0  0  0  0  0  0  0  0  0
    5.9192    3.0678   -0.0957 C   0  0  0  0  0  0  0  0  0  0  0  0
    6.9368    3.5220   -1.0873 C   0  0  0  0  0  0  0  0  0  0  0  0
    6.6985    4.9693   -1.5172 C   0  0  0  0  0  0  0  0  0  0  0  0
    6.2028    2.6148    1.1854 C   0  0  0  0  0  0  0  0  0  0  0  0
    4.7492    2.4042    2.1669 S   0  0  0  0  0  0  0  0  0  0  0  0
    3.7615    2.7930    0.8109 C   0  0  0  0  0  0  0  0  0  0  0  0
    2.3974    2.7664    0.5146 C   0  0  0  0  0  0  0  0  0  0  0  0
    1.2309    2.4023    1.1418 N   0  0  0  0  0  0  0  0  0  0  0  0
    0.2245    2.4880    0.1928 C   0  0  0  0  0  0  0  0  0  0  0  0
   -1.1087    2.0327    0.2343 C   0  0  0  0  0  0  0  0  0  0  0  0
   -1.7607    1.2334    1.1607 N   0  0  0  0  0  0  0  0  0  0  0  0
   -3.0453    1.0666    0.7025 C   0  0  0  0  0  0  0  0  0  0  0  0
   -4.1742    0.3291    1.0616 C   0  0  0  0  0  0  0  0  0  0  0  0
   -4.6083   -0.7446    2.3354 S   0  0  0  0  0  0  0  0  0  0  0  0
   -1.1638    0.1822    1.9615 C   0  0  0  0  0  0  0  0  0  0  0  0
   -1.0461   -1.1179    1.1665 C   0  0  0  0  0  0  0  0  0  0  0  0
    1.0649    2.5928    2.5697 C   0  0  0  0  0  0  0  0  0  0  0  0
    1.4303    4.0168    2.9877 C   0  0  0  0  0  0  0  0  0  0  0  0
    7.4345    2.2821    1.7930 C   0  0  0  0  0  0  0  0  0  0  0  0
    8.4677    1.6298    1.1801 C   0  0  0  0  0  0  0  0  0  0  0  0
    8.3220    0.8155   -0.0532 C   0  0  0  0  0  0  0  0  0  0  0  0
    7.3724    0.7668   -0.8069 O   0  0  0  0  0  0  0  0  0  0  0  0
    9.5340   -0.0218   -0.1071 C   0  0  0  0  0  0  0  0  0  0  0  0
    9.8693   -1.0023   -1.0207 C   0  0  0  0  0  0  0  0  0  0  0  0
   11.0675   -1.6775   -0.8512 C   0  0  0  0  0  0  0  0  0  0  0  0
   11.9171   -1.3905    0.2155 C   0  0  0  0  0  0  0  0  0  0  0  0
   13.1865   -2.1613    0.3934 C   0  0  0  0  0  0  0  0  0  0  0  0
   11.5706   -0.4006    1.1344 C   0  0  0  0  0  0  0  0  0  0  0  0
   10.3802    0.2863    0.9725 C   0  0  0  0  0  0  0  0  0  0  0  0
    9.7630    1.3486    1.7611 C   0  0  0  0  0  0  0  0  0  0  0  0
   10.3376    2.0216    2.8073 C   0  0  0  0  0  0  0  0  0  0  0  0
    9.7375    3.1149    3.4664 C   0  0  0  0  0  0  0  0  0  0  0  0
    9.3121    4.0242    4.0241 N   0  0  0  0  0  0  0  0  0  0  0  0
   11.6157    1.7326    3.3263 C   0  0  0  0  0  0  0  0  0  0  0  0
   12.6468    1.5360    3.7918 N   0  0  0  0  0  0  0  0  0  0  0  0
   -6.9167   -2.2133    3.1559 H   0  0  0  0  0  0  0  0  0  0  0  0
   -6.9664   -5.4595   -2.1059 H   0  0  0  0  0  0  0  0  0  0  0  0
   -7.9410   -8.7136   -4.8168 H   0  0  0  0  0  0  0  0  0  0  0  0
   -6.3169   -7.9818   -5.0097 H   0  0  0  0  0  0  0  0  0  0  0  0
   -6.5566   -9.4065   -3.9497 H   0  0  0  0  0  0  0  0  0  0  0  0
   -9.3838   -8.3337   -0.0550 H   0  0  0  0  0  0  0  0  0  0  0  0
   -9.6810   -6.7905    1.8541 H   0  0  0  0  0  0  0  0  0  0  0  0
   -8.2904   -1.0357   -0.0134 H   0  0  0  0  0  0  0  0  0  0  0  0
   -7.3284   -0.7093   -1.4581 H   0  0  0  0  0  0  0  0  0  0  0  0
   -8.3732    1.4232    0.4761 H   0  0  0  0  0  0  0  0  0  0  0  0
   -9.0859    1.0261   -1.0890 H   0  0  0  0  0  0  0  0  0  0  0  0
   -7.4763    1.7417   -1.0131 H   0  0  0  0  0  0  0  0  0  0  0  0
   -2.3032    4.9226   -5.1403 H   0  0  0  0  0  0  0  0  0  0  0  0
   -0.5363    5.1364   -5.3421 H   0  0  0  0  0  0  0  0  0  0  0  0
   -1.4883    3.6883   -7.1551 H   0  0  0  0  0  0  0  0  0  0  0  0
   -2.0983    2.5678   -5.9307 H   0  0  0  0  0  0  0  0  0  0  0  0
   -0.3548    2.7834   -6.1443 H   0  0  0  0  0  0  0  0  0  0  0  0
    6.8894    2.8641   -1.9586 H   0  0  0  0  0  0  0  0  0  0  0  0
    7.9331    3.4325   -0.6525 H   0  0  0  0  0  0  0  0  0  0  0  0
    7.4792    5.2791   -2.2071 H   0  0  0  0  0  0  0  0  0  0  0  0
    5.7385    5.0771   -2.0144 H   0  0  0  0  0  0  0  0  0  0  0  0
    6.7202    5.6296   -0.6527 H   0  0  0  0  0  0  0  0  0  0  0  0
   -1.7982    0.0290    2.8396 H   0  0  0  0  0  0  0  0  0  0  0  0
   -0.1702    0.4808    2.2840 H   0  0  0  0  0  0  0  0  0  0  0  0
   -0.4334   -0.9608    0.2813 H   0  0  0  0  0  0  0  0  0  0  0  0
   -0.5806   -1.8816    1.7831 H   0  0  0  0  0  0  0  0  0  0  0  0
   -2.0239   -1.4746    0.8538 H   0  0  0  0  0  0  0  0  0  0  0  0
    0.0199    2.4185    2.8252 H   0  0  0  0  0  0  0  0  0  0  0  0
    1.7021    1.8785    3.1020 H   0  0  0  0  0  0  0  0  0  0  0  0
    0.8380    4.7369    2.4270 H   0  0  0  0  0  0  0  0  0  0  0  0
    2.4834    4.2174    2.8127 H   0  0  0  0  0  0  0  0  0  0  0  0
    1.2271    4.1466    4.0470 H   0  0  0  0  0  0  0  0  0  0  0  0
    7.5040    2.4801    2.8569 H   0  0  0  0  0  0  0  0  0  0  0  0
    9.2070   -1.2252   -1.8430 H   0  0  0  0  0  0  0  0  0  0  0  0
   11.3518   -2.4449   -1.5564 H   0  0  0  0  0  0  0  0  0  0  0  0
   12.9822   -3.0846    0.9367 H   0  0  0  0  0  0  0  0  0  0  0  0
   13.6175   -2.4286   -0.5686 H   0  0  0  0  0  0  0  0  0  0  0  0
   13.9126   -1.5888    0.9645 H   0  0  0  0  0  0  0  0  0  0  0  0
   12.2297   -0.1903    1.9616 H   0  0  0  0  0  0  0  0  0  0  0  0
  1  2  2  0  0  0  0
  2  3  1  0  0  0  0
  3  4  2  0  0  0  0
  3  5  1  0  0  0  0
  5  6  2  0  0  0  0
  6  7  1  0  0  0  0
  7  8  1  0  0  0  0
  8  9  2  0  0  0  0
  8 10  1  0  0  0  0
 10 11  1  0  0  0  0
  7 12  2  0  0  0  0
 12 13  1  0  0  0  0
 13 14  2  0  0  0  0
 14 15  1  0  0  0  0
 15 16  2  0  0  0  0
 16 17  1  0  0  0  0
 17 18  3  0  0  0  0
 16 19  1  0  0  0  0
 19 20  3  0  0  0  0
  1 21  1  0  0  0  0
 21 22  2  0  0  0  0
 22 23  1  0  0  0  0
 23 24  1  0  0  0  0
 22 25  1  0  0  0  0
 25 26  1  0  0  0  0
 26 27  1  0  0  0  0
 27 28  1  0  0  0  0
 28 29  1  0  0  0  0
 29 30  1  0  0  0  0
 30 31  2  0  0  0  0
 31 32  1  0  0  0  0
 32 33  1  0  0  0  0
 33 34  1  0  0  0  0
 32 35  1  0  0  0  0
 30 36  1  0  0  0  0
 36 37  1  0  0  0  0
 37 38  1  0  0  0  0
 38 39  1  0  0  0  0
 39 40  1  0  0  0  0
 40 41  1  0  0  0  0
 41 42  1  0  0  0  0
 40 43  2  0  0  0  0
 43 44  1  0  0  0  0
 44 45  1  0  0  0  0
 45 46  1  0  0  0  0
 46 47  1  0  0  0  0
 47 48  1  0  0  0  0
 48 49  1  0  0  0  0
 49 50  1  0  0  0  0
 50 51  1  0  0  0  0
 51 52  1  0  0  0  0
 52 53  1  0  0  0  0
 50 54  1  0  0  0  0
 54 55  1  0  0  0  0
 47 56  1  0  0  0  0
 56 57  1  0  0  0  0
 43 58  1  0  0  0  0
 58 59  2  0  0  0  0
 59 60  1  0  0  0  0
 60 61  2  0  0  0  0
 60 62  1  0  0  0  0
 62 63  2  0  0  0  0
 63 64  1  0  0  0  0
 64 65  2  0  0  0  0
 65 66  1  0  0  0  0
 65 67  1  0  0  0  0
 67 68  2  0  0  0  0
 68 69  1  0  0  0  0
 69 70  2  0  0  0  0
 70 71  1  0  0  0  0
 71 72  3  0  0  0  0
 70 73  1  0  0  0  0
 73 74  3  0  0  0  0
 15  2  1  0  0  0  0
 53 21  1  0  0  0  0
 69 59  1  0  0  0  0
 14  5  1  0  0  0  0
 52 25  2  0  0  0  0
 68 62  1  0  0  0  0
 51 27  2  0  0  0  0
 49 28  2  0  0  0  0
 35 29  2  0  0  0  0
 48 36  2  0  0  0  0
 46 37  2  0  0  0  0
 45 39  2  0  0  0  0
  1 75  1  0  0  0  0
  6 76  1  0  0  0  0
 11 77  1  0  0  0  0
 11 78  1  0  0  0  0
 11 79  1  0  0  0  0
 12 80  1  0  0  0  0
 13 81  1  0  0  0  0
 23 82  1  0  0  0  0
 23 83  1  0  0  0  0
 24 84  1  0  0  0  0
 24 85  1  0  0  0  0
 24 86  1  0  0  0  0
 33 87  1  0  0  0  0
 33 88  1  0  0  0  0
 34 89  1  0  0  0  0
 34 90  1  0  0  0  0
 34 91  1  0  0  0  0
 41 92  1  0  0  0  0
 41 93  1  0  0  0  0
 42 94  1  0  0  0  0
 42 95  1  0  0  0  0
 42 96  1  0  0  0  0
 54 97  1  0  0  0  0
 54 98  1  0  0  0  0
 55 99  1  0  0  0  0
 55100  1  0  0  0  0
 55101  1  0  0  0  0
 56102  1  0  0  0  0
 56103  1  0  0  0  0
 57104  1  0  0  0  0
 57105  1  0  0  0  0
 57106  1  0  0  0  0
 58107  1  0  0  0  0
 63108  1  0  0  0  0
 64109  1  0  0  0  0
 66110  1  0  0  0  0
 66111  1  0  0  0  0
 66112  1  0  0  0  0
 67113  1  0  0  0  0
M  END
