
  xtb     01272209573D
 energy: -196.221798425136 gnorm: 0.000693574229 xtb: 6.4.1 (unknown)
103114  0     0  0            999 V2000
    0.2484   -4.4729    5.7470 C   0  0  0  0  0  0  0  0  0  0  0  0
   -0.2360   -3.8060    6.8479 C   0  0  0  0  0  0  0  0  0  0  0  0
   -0.6465   -2.4010    6.8963 C   0  0  0  0  0  0  0  0  0  0  0  0
   -0.6074   -1.5824    5.9945 O   0  0  0  0  0  0  0  0  0  0  0  0
   -1.1278   -2.1626    8.2717 C   0  0  0  0  0  0  0  0  0  0  0  0
   -1.6381   -1.0079    8.8222 C   0  0  0  0  0  0  0  0  0  0  0  0
   -2.0413   -1.0355   10.1586 C   0  0  0  0  0  0  0  0  0  0  0  0
   -2.6018    0.2110   10.7440 C   0  0  0  0  0  0  0  0  0  0  0  0
   -2.7016    1.2521   10.1439 O   0  0  0  0  0  0  0  0  0  0  0  0
   -2.9895    0.0526   12.0158 O   0  0  0  0  0  0  0  0  0  0  0  0
   -3.5436    1.2011   12.6412 C   0  0  0  0  0  0  0  0  0  0  0  0
   -1.9186   -2.2065   10.9044 C   0  0  0  0  0  0  0  0  0  0  0  0
   -1.4024   -3.3670   10.3464 C   0  0  0  0  0  0  0  0  0  0  0  0
   -1.0051   -3.3492    9.0178 C   0  0  0  0  0  0  0  0  0  0  0  0
   -0.4457   -4.3919    8.1554 C   0  0  0  0  0  0  0  0  0  0  0  0
   -0.1861   -5.6810    8.5479 C   0  0  0  0  0  0  0  0  0  0  0  0
    0.3492   -6.7009    7.7342 C   0  0  0  0  0  0  0  0  0  0  0  0
    0.7769   -7.5875    7.1407 N   0  0  0  0  0  0  0  0  0  0  0  0
   -0.4203   -6.1781    9.8474 C   0  0  0  0  0  0  0  0  0  0  0  0
   -0.5854   -6.6540   10.8790 N   0  0  0  0  0  0  0  0  0  0  0  0
    0.4703   -4.0429    4.4367 C   0  0  0  0  0  0  0  0  0  0  0  0
    0.9526   -4.8970    3.4264 C   0  0  0  0  0  0  0  0  0  0  0  0
    1.3548   -6.3239    3.6072 C   0  0  0  0  0  0  0  0  0  0  0  0
    2.7848   -6.4218    4.1462 C   0  0  0  0  0  0  0  0  0  0  0  0
    1.0638   -4.2317    2.2143 C   0  0  0  0  0  0  0  0  0  0  0  0
    1.5799   -4.7557    0.6210 S   0  0  0  0  0  0  0  0  0  0  0  0
    1.2602   -3.1630    0.0290 C   0  0  0  0  0  0  0  0  0  0  0  0
    1.3400   -2.4394   -1.1686 C   0  0  0  0  0  0  0  0  0  0  0  0
    1.8417   -2.7945   -2.4406 C   0  0  0  0  0  0  0  0  0  0  0  0
    1.8613   -1.8061   -3.4791 C   0  0  0  0  0  0  0  0  0  0  0  0
    2.4032   -2.2589   -4.5984 N   0  0  0  0  0  0  0  0  0  0  0  0
    2.8471   -3.7983   -4.3674 S   0  0  0  0  0  0  0  0  0  0  0  0
    2.3642   -3.9466   -2.8301 N   0  0  0  0  0  0  0  0  0  0  0  0
    1.2619   -0.5501   -3.2349 C   0  0  0  0  0  0  0  0  0  0  0  0
    0.9610    0.5081   -4.1021 C   0  0  0  0  0  0  0  0  0  0  0  0
    1.1846    0.9422   -5.7576 S   0  0  0  0  0  0  0  0  0  0  0  0
    0.2110    2.3747   -5.4982 C   0  0  0  0  0  0  0  0  0  0  0  0
   -0.2420    3.3844   -6.3565 C   0  0  0  0  0  0  0  0  0  0  0  0
    0.1953    3.5540   -7.7712 C   0  0  0  0  0  0  0  0  0  0  0  0
    1.6984    3.3628   -7.9588 C   0  0  0  0  0  0  0  0  0  0  0  0
   -1.0653    4.2824   -5.6770 C   0  0  0  0  0  0  0  0  0  0  0  0
   -1.1938    3.9063   -3.9568 S   0  0  0  0  0  0  0  0  0  0  0  0
   -0.2364    2.4924   -4.1713 C   0  0  0  0  0  0  0  0  0  0  0  0
    0.1985    1.4308   -3.3745 C   0  0  0  0  0  0  0  0  0  0  0  0
    0.0411    0.9905   -2.0871 N   0  0  0  0  0  0  0  0  0  0  0  0
    0.6997   -0.2178   -1.9676 C   0  0  0  0  0  0  0  0  0  0  0  0
    0.8601   -1.1253   -0.8888 C   0  0  0  0  0  0  0  0  0  0  0  0
    0.5508   -1.0458    0.4584 N   0  0  0  0  0  0  0  0  0  0  0  0
    0.7853   -2.2813    1.0075 C   0  0  0  0  0  0  0  0  0  0  0  0
    0.6750   -2.8807    2.2642 C   0  0  0  0  0  0  0  0  0  0  0  0
    0.1655   -2.4090    3.8400 S   0  0  0  0  0  0  0  0  0  0  0  0
    0.5838    0.0966    1.3483 C   0  0  0  0  0  0  0  0  0  0  0  0
    2.0021    0.3472    1.8595 C   0  0  0  0  0  0  0  0  0  0  0  0
   -0.9380    1.6155   -1.2264 C   0  0  0  0  0  0  0  0  0  0  0  0
   -0.4188    2.9216   -0.6248 C   0  0  0  0  0  0  0  0  0  0  0  0
   -1.7353    5.4397   -6.1115 C   0  0  0  0  0  0  0  0  0  0  0  0
   -2.3091    5.6513   -7.3403 C   0  0  0  0  0  0  0  0  0  0  0  0
   -2.7454    4.5782   -8.2556 C   0  0  0  0  0  0  0  0  0  0  0  0
   -2.5607    3.3840   -8.1536 O   0  0  0  0  0  0  0  0  0  0  0  0
   -3.5812    5.2532   -9.2767 C   0  0  0  0  0  0  0  0  0  0  0  0
   -4.2498    4.6864  -10.3431 C   0  0  0  0  0  0  0  0  0  0  0  0
   -4.9903    5.5276  -11.1585 C   0  0  0  0  0  0  0  0  0  0  0  0
   -5.6502    5.0213  -12.2074 F   0  0  0  0  0  0  0  0  0  0  0  0
   -5.0567    6.8961  -10.8964 C   0  0  0  0  0  0  0  0  0  0  0  0
   -5.7866    7.6824  -11.6956 F   0  0  0  0  0  0  0  0  0  0  0  0
   -4.3872    7.4655   -9.8233 C   0  0  0  0  0  0  0  0  0  0  0  0
   -3.6404    6.6306   -9.0072 C   0  0  0  0  0  0  0  0  0  0  0  0
   -2.8315    6.9107   -7.8226 C   0  0  0  0  0  0  0  0  0  0  0  0
   -2.5440    8.1530   -7.3205 C   0  0  0  0  0  0  0  0  0  0  0  0
   -1.6662    8.3919   -6.2417 C   0  0  0  0  0  0  0  0  0  0  0  0
   -0.9411    8.6571   -5.3920 N   0  0  0  0  0  0  0  0  0  0  0  0
   -3.0621    9.3561   -7.8432 C   0  0  0  0  0  0  0  0  0  0  0  0
   -3.4592   10.3638   -8.2225 N   0  0  0  0  0  0  0  0  0  0  0  0
    0.4959   -5.5143    5.9005 H   0  0  0  0  0  0  0  0  0  0  0  0
   -1.7316   -0.1009    8.2448 H   0  0  0  0  0  0  0  0  0  0  0  0
   -2.8353    2.0313   12.6050 H   0  0  0  0  0  0  0  0  0  0  0  0
   -4.4623    1.5020   12.1333 H   0  0  0  0  0  0  0  0  0  0  0  0
   -3.7507    0.9170   13.6696 H   0  0  0  0  0  0  0  0  0  0  0  0
   -2.2347   -2.2056   11.9356 H   0  0  0  0  0  0  0  0  0  0  0  0
   -1.3209   -4.2568   10.9486 H   0  0  0  0  0  0  0  0  0  0  0  0
    1.3062   -6.8178    2.6347 H   0  0  0  0  0  0  0  0  0  0  0  0
    0.6762   -6.8410    4.2870 H   0  0  0  0  0  0  0  0  0  0  0  0
    2.8702   -5.9189    5.1066 H   0  0  0  0  0  0  0  0  0  0  0  0
    3.4838   -5.9642    3.4500 H   0  0  0  0  0  0  0  0  0  0  0  0
    3.0558   -7.4650    4.2798 H   0  0  0  0  0  0  0  0  0  0  0  0
   -0.0880    4.5524   -8.1110 H   0  0  0  0  0  0  0  0  0  0  0  0
   -0.3493    2.8328   -8.3883 H   0  0  0  0  0  0  0  0  0  0  0  0
    1.9690    3.6095   -8.9822 H   0  0  0  0  0  0  0  0  0  0  0  0
    2.2524    4.0169   -7.2889 H   0  0  0  0  0  0  0  0  0  0  0  0
    1.9945    2.3357   -7.7672 H   0  0  0  0  0  0  0  0  0  0  0  0
    0.2284    0.9854    0.8429 H   0  0  0  0  0  0  0  0  0  0  0  0
   -0.0775   -0.1250    2.1909 H   0  0  0  0  0  0  0  0  0  0  0  0
    2.3741   -0.5184    2.4013 H   0  0  0  0  0  0  0  0  0  0  0  0
    2.6746    0.5540    1.0291 H   0  0  0  0  0  0  0  0  0  0  0  0
    2.0014    1.1997    2.5326 H   0  0  0  0  0  0  0  0  0  0  0  0
   -1.2460    0.9017   -0.4617 H   0  0  0  0  0  0  0  0  0  0  0  0
   -1.8187    1.8411   -1.8381 H   0  0  0  0  0  0  0  0  0  0  0  0
    0.5410    2.7842   -0.1318 H   0  0  0  0  0  0  0  0  0  0  0  0
   -1.1350    3.3046    0.0966 H   0  0  0  0  0  0  0  0  0  0  0  0
   -0.2890    3.6658   -1.4059 H   0  0  0  0  0  0  0  0  0  0  0  0
   -1.8581    6.2097   -5.3579 H   0  0  0  0  0  0  0  0  0  0  0  0
   -4.2004    3.6276  -10.5410 H   0  0  0  0  0  0  0  0  0  0  0  0
   -4.4742    8.5268   -9.6576 H   0  0  0  0  0  0  0  0  0  0  0  0
  1  2  2  0  0  0  0
  2  3  1  0  0  0  0
  3  4  2  0  0  0  0
  3  5  1  0  0  0  0
  5  6  2  0  0  0  0
  6  7  1  0  0  0  0
  7  8  1  0  0  0  0
  8  9  2  0  0  0  0
  8 10  1  0  0  0  0
 10 11  1  0  0  0  0
  7 12  2  0  0  0  0
 12 13  1  0  0  0  0
 13 14  2  0  0  0  0
 14 15  1  0  0  0  0
 15 16  2  0  0  0  0
 16 17  1  0  0  0  0
 17 18  3  0  0  0  0
 16 19  1  0  0  0  0
 19 20  3  0  0  0  0
  1 21  1  0  0  0  0
 21 22  2  0  0  0  0
 22 23  1  0  0  0  0
 23 24  1  0  0  0  0
 22 25  1  0  0  0  0
 25 26  1  0  0  0  0
 26 27  1  0  0  0  0
 27 28  1  0  0  0  0
 28 29  1  0  0  0  0
 29 30  1  0  0  0  0
 30 31  2  0  0  0  0
 31 32  1  0  0  0  0
 32 33  1  0  0  0  0
 30 34  1  0  0  0  0
 34 35  1  0  0  0  0
 35 36  1  0  0  0  0
 36 37  1  0  0  0  0
 37 38  1  0  0  0  0
 38 39  1  0  0  0  0
 39 40  1  0  0  0  0
 38 41  2  0  0  0  0
 41 42  1  0  0  0  0
 42 43  1  0  0  0  0
 43 44  1  0  0  0  0
 44 45  1  0  0  0  0
 45 46  1  0  0  0  0
 46 47  1  0  0  0  0
 47 48  1  0  0  0  0
 48 49  1  0  0  0  0
 49 50  1  0  0  0  0
 50 51  1  0  0  0  0
 48 52  1  0  0  0  0
 52 53  1  0  0  0  0
 45 54  1  0  0  0  0
 54 55  1  0  0  0  0
 41 56  1  0  0  0  0
 56 57  2  0  0  0  0
 57 58  1  0  0  0  0
 58 59  2  0  0  0  0
 58 60  1  0  0  0  0
 60 61  2  0  0  0  0
 61 62  1  0  0  0  0
 62 63  1  0  0  0  0
 62 64  2  0  0  0  0
 64 65  1  0  0  0  0
 64 66  1  0  0  0  0
 66 67  2  0  0  0  0
 67 68  1  0  0  0  0
 68 69  2  0  0  0  0
 69 70  1  0  0  0  0
 70 71  3  0  0  0  0
 69 72  1  0  0  0  0
 72 73  3  0  0  0  0
 15  2  1  0  0  0  0
 51 21  1  0  0  0  0
 68 57  1  0  0  0  0
 14  5  1  0  0  0  0
 50 25  2  0  0  0  0
 67 60  1  0  0  0  0
 49 27  2  0  0  0  0
 47 28  2  0  0  0  0
 33 29  2  0  0  0  0
 46 34  2  0  0  0  0
 44 35  2  0  0  0  0
 43 37  2  0  0  0  0
  1 74  1  0  0  0  0
  6 75  1  0  0  0  0
 11 76  1  0  0  0  0
 11 77  1  0  0  0  0
 11 78  1  0  0  0  0
 12 79  1  0  0  0  0
 13 80  1  0  0  0  0
 23 81  1  0  0  0  0
 23 82  1  0  0  0  0
 24 83  1  0  0  0  0
 24 84  1  0  0  0  0
 24 85  1  0  0  0  0
 39 86  1  0  0  0  0
 39 87  1  0  0  0  0
 40 88  1  0  0  0  0
 40 89  1  0  0  0  0
 40 90  1  0  0  0  0
 52 91  1  0  0  0  0
 52 92  1  0  0  0  0
 53 93  1  0  0  0  0
 53 94  1  0  0  0  0
 53 95  1  0  0  0  0
 54 96  1  0  0  0  0
 54 97  1  0  0  0  0
 55 98  1  0  0  0  0
 55 99  1  0  0  0  0
 55100  1  0  0  0  0
 56101  1  0  0  0  0
 61102  1  0  0  0  0
 66103  1  0  0  0  0
M  END
