112

C         -5.66720        0.43760        4.57440
C         -6.15640        1.72070        4.49040
C         -5.69680        2.76370        3.57180
O         -4.77050        2.70770        2.78090
C         -6.59440        3.91750        3.78070
C         -6.59900        5.13310        3.13150
C         -7.56940        6.06590        3.49890
C         -7.66030        7.39900        2.84750
O         -8.47940        8.23680        3.13270
O         -6.73060        7.56920        1.89970
C         -6.75750        8.81810        1.22460
C         -8.49490        5.76090        4.49650
C         -8.48520        4.53780        5.14910
C         -7.52560        3.60400        4.78790
C         -7.25840        2.24700        5.26820
C         -7.93120        1.62870        6.29190
C         -7.66370        0.33820        6.79380
N         -7.50590       -0.69760        7.26590
C         -8.99300        2.21430        7.01320
N         -9.86130        2.62220        7.64350
C         -4.62250       -0.19220        3.89540
C         -4.27930       -1.54150        4.10240
C         -4.92590       -2.46940        5.07790
C         -4.32900       -2.28750        6.47630
C         -3.19660       -1.91460        3.32010
C         -2.68870       -0.88160        2.51040
S         -3.57440        0.58400        2.70470
C         -1.59860       -1.32680        1.75760
C         -1.29480       -2.67130        1.99960
S         -2.33380       -3.43250        3.15020
C         -0.17290       -2.98430        1.22450
C          0.54750       -4.20500        1.16630
N          0.15300       -5.27350        1.86900
C          0.88590       -6.36420        1.78990
C          0.42820       -7.54640        2.57730
C          2.05760       -6.40740        0.99180
C          2.89960       -7.63620        0.90050
N          2.44940       -5.36100        0.29540
C          1.70490       -4.25100        0.36640
C          2.04600       -3.09140       -0.37660
C          3.11300       -2.90610       -1.26220
S          4.47010       -3.78720       -1.86580
C          4.88940       -2.39630       -2.84970
C          5.92530       -2.16390       -3.73990
C          7.00410       -3.16220       -4.00370
C          8.21760       -2.89730       -3.10780
C          5.85180       -0.86770       -4.28870
S          4.45900        0.03190       -3.67850
C          4.00250       -1.31170       -2.70160
C          2.99060       -1.61450       -1.78830
N          1.89970       -0.99070       -1.24380
C          1.42470        0.23560       -1.84340
C          0.23780       -0.02360       -2.76910
C          1.29470       -1.87710       -0.36890
C          0.17870       -1.80340        0.50310
N         -0.72080       -0.80770        0.84440
C         -0.69760        0.62120        0.63140
C          0.42380        1.28370        1.42930
C          6.78880       -0.37730       -5.19620
C          6.90340        0.85080       -5.81100
C          5.99680        1.98410       -5.64280
O          4.99070        2.03880       -4.95830
C          6.54450        3.07080       -6.48380
C          7.71010        2.61590       -7.12760
C          8.40810        3.46300       -7.97250
C          7.93220        4.75240       -8.16350
C          6.78280        5.19510       -7.52820
Br         6.18560        6.96290       -7.83000
C          6.06280        4.35540       -6.67070
Cl         4.64260        4.89820       -5.88430
C          7.95350        1.22860       -6.72880
C          9.00070        0.45830       -7.17140
C          9.25470       -0.87920       -6.80430
N          9.53400       -1.96670       -6.55820
C          9.98780        0.90400       -8.07470
N         10.82350        1.19820       -8.80510
H         -6.17230       -0.21220        5.27610
H         -5.87550        5.35110        2.36220
H         -5.96000        8.78250        0.48720
H         -7.72450        8.96560        0.73940
H         -6.59260        9.63440        1.93070
H         -9.23100        6.50860        4.75120
H         -9.21640        4.33280        5.91330
H         -4.74520       -3.49310        4.74390
H         -6.00380       -2.30840        5.12080
H         -4.50120       -1.27770        6.84070
H         -3.25780       -2.47430        6.45690
H         -4.79400       -2.98400        7.16770
H          0.23330       -8.39070        1.91770
H         -0.48180       -7.28800        3.11100
H          1.19320       -7.84760        3.29150
H          3.73980       -7.44440        0.23950
H          3.27060       -7.91710        1.88510
H          2.31610       -8.46930        0.51120
H          7.31440       -3.14130       -5.04920
H          6.60950       -4.15590       -3.78300
H          8.63310       -1.91150       -3.30290
H          8.98680       -3.63890       -3.30250
H          7.93290       -2.95380       -2.05980
H          1.18800        0.97030       -1.07580
H          2.25450        0.63780       -2.42980
H         -0.12400        0.91420       -3.18130
H         -0.57540       -0.51600       -2.23950
H          0.54380       -0.66620       -3.59130
H         -1.65920        1.00470        0.98150
H         -0.62840        0.84700       -0.43110
H          0.25470        1.13900        2.49370
H          1.39260        0.85580        1.17900
H          0.44400        2.35090        1.22630
H          7.55840       -1.09520       -5.44370
H          9.30430        3.14940       -8.48060
H          8.46250        5.42750       -8.81720
