112

C         -0.02790       -7.20580        1.04280
C         -0.94970       -8.13210        1.45120
C         -2.25670       -7.81140        2.05970
O         -2.64170       -6.73670        2.47030
C         -3.05190       -9.05530        1.95710
C         -4.36650       -9.26810        2.30940
C         -4.91680      -10.53040        2.07830
C         -6.34160      -10.74740        2.44440
O         -7.03830       -9.91460        2.96820
O         -6.77380      -11.97310        2.12080
C         -8.13280      -12.25010        2.42610
C         -4.14470      -11.54130        1.50800
C         -2.82120      -11.32460        1.15480
C         -2.27020      -10.07160        1.37740
C         -0.93950       -9.53660        1.10190
C          0.15000      -10.25470        0.68290
C          1.44760       -9.71670        0.54870
N          2.52990       -9.34630        0.44890
C          0.12200      -11.63120        0.37870
N          0.15450      -12.74700        0.11120
C          0.08540       -5.85350        1.42780
C         -0.07510       -5.18630        2.63860
C         -0.34330       -5.78820        3.97680
C          0.63530       -6.90420        4.33860
C          0.16970       -3.81520        2.49000
C          0.51140       -3.41020        1.19210
S          0.61420       -4.76360        0.13430
C          0.67720       -2.02550        1.10890
C          0.49270       -1.40110        2.34740
S          0.10230       -2.48950        3.63000
C          0.68890       -0.02740        2.14720
C          0.70430        1.02530        3.09870
N          0.48640        0.78430        4.39700
C          0.55680        1.79990        5.23150
C          0.30960        1.51010        6.67440
C          0.85830        3.10820        4.77430
C          0.95340        4.26510        5.71220
N          1.06460        3.35490        3.49780
C          0.98770        2.32850        2.64230
C          1.13990        2.52780        1.24530
C          1.27390        3.72530        0.53240
S          1.39440        5.42050        0.84350
C          1.38380        5.70510       -0.88820
C          1.41120        6.86630       -1.64360
C          1.54540        8.22460       -1.03800
C          3.00760        8.67960       -1.04620
C          1.34790        6.58480       -3.02370
S          1.26290        4.84910       -3.34260
C          1.30250        4.52410       -1.65200
C          1.24990        3.39780       -0.82950
N          1.14820        2.04070       -0.98150
C          0.82030        1.49010       -2.27710
C         -0.64130        1.05380       -2.34410
C          1.07410        1.47940        0.28020
C          0.94340        0.15320        0.75740
N          0.94700       -1.09080        0.14580
C          1.50800       -1.50960       -1.11950
C          2.99070       -1.15910       -1.21680
C          1.33110        7.57850       -4.00050
C          1.25390        7.49840       -5.37460
C          1.18720        6.27200       -6.16570
O          1.18850        5.11890       -5.77040
C          1.11290        6.70140       -7.57840
C          1.03200        5.91610       -8.71040
C          0.97070        6.56080       -9.93560
F          0.89040        5.83920      -11.06100
C          0.99180        7.95310      -10.00660
F          0.93230        8.54990      -11.20290
C          1.07250        8.74130       -8.86740
C          1.13290        8.10450       -7.63830
C          1.21750        8.63140       -6.27380
C          1.24270        9.96440       -5.94860
C          1.19430       11.00960       -6.89510
N          1.15840       11.90620       -7.61090
C          1.31460       10.49600       -4.64440
N          1.37080       11.00880       -3.61740
H          0.65610       -7.50340        0.25420
H         -4.96640       -8.48580        2.74900
H         -8.30170      -13.28680        2.14700
H         -8.32040      -12.10150        3.49140
H         -8.79020      -11.58770        1.85910
H         -4.59220      -12.50750        1.33620
H         -2.24800      -12.11990        0.70640
H         -1.36690       -6.17010        3.99270
H         -0.27360       -4.99030        4.71950
H          1.65750       -6.53190        4.32340
H          0.41770       -7.27290        5.33760
H          0.56410       -7.73550        3.64230
H          1.18020        1.77810        7.27120
H          0.10170        0.45090        6.79460
H         -0.53830        2.08850        7.03840
H          1.72950        4.08940        6.45560
H          1.19040        5.16260        5.14830
H          0.01040        4.40690        6.23820
H          0.93610        8.95580       -1.57110
H          1.19410        8.17330       -0.00570
H          3.38790        8.73750       -2.06330
H          3.08870        9.66300       -0.59250
H          3.62370        7.98190       -0.48380
H          1.49740        0.67340       -2.52640
H          0.99160        2.28520       -3.00670
H         -0.85580        0.62620       -3.31960
H         -0.86990        0.31780       -1.57650
H         -1.29080        1.91280       -2.19410
H          1.39110       -2.59520       -1.16630
H          0.94010       -1.09050       -1.95030
H          3.15150       -0.08980       -1.09940
H          3.54580       -1.67280       -0.43530
H          3.38270       -1.47100       -2.18090
H          1.38050        8.57860       -3.59290
H          1.01610        4.83970       -8.64980
H          1.08500        9.81290       -8.97910
