
  xtb     01272209323D
 energy: -203.810458125321 gnorm: 0.000587055375 xtb: 6.4.1 (unknown)
112123  0     0  0            999 V2000
   -5.6672    0.4376    4.5744 C   0  0  0  0  0  0  0  0  0  0  0  0
   -6.1564    1.7207    4.4904 C   0  0  0  0  0  0  0  0  0  0  0  0
   -5.6968    2.7637    3.5718 C   0  0  0  0  0  0  0  0  0  0  0  0
   -4.7705    2.7077    2.7809 O   0  0  0  0  0  0  0  0  0  0  0  0
   -6.5944    3.9175    3.7807 C   0  0  0  0  0  0  0  0  0  0  0  0
   -6.5990    5.1331    3.1315 C   0  0  0  0  0  0  0  0  0  0  0  0
   -7.5694    6.0659    3.4989 C   0  0  0  0  0  0  0  0  0  0  0  0
   -7.6603    7.3990    2.8475 C   0  0  0  0  0  0  0  0  0  0  0  0
   -8.4794    8.2368    3.1327 O   0  0  0  0  0  0  0  0  0  0  0  0
   -6.7306    7.5692    1.8997 O   0  0  0  0  0  0  0  0  0  0  0  0
   -6.7575    8.8181    1.2246 C   0  0  0  0  0  0  0  0  0  0  0  0
   -8.4949    5.7609    4.4965 C   0  0  0  0  0  0  0  0  0  0  0  0
   -8.4852    4.5378    5.1491 C   0  0  0  0  0  0  0  0  0  0  0  0
   -7.5256    3.6040    4.7879 C   0  0  0  0  0  0  0  0  0  0  0  0
   -7.2584    2.2470    5.2682 C   0  0  0  0  0  0  0  0  0  0  0  0
   -7.9312    1.6287    6.2919 C   0  0  0  0  0  0  0  0  0  0  0  0
   -7.6637    0.3382    6.7938 C   0  0  0  0  0  0  0  0  0  0  0  0
   -7.5059   -0.6976    7.2659 N   0  0  0  0  0  0  0  0  0  0  0  0
   -8.9930    2.2143    7.0132 C   0  0  0  0  0  0  0  0  0  0  0  0
   -9.8613    2.6222    7.6435 N   0  0  0  0  0  0  0  0  0  0  0  0
   -4.6225   -0.1922    3.8954 C   0  0  0  0  0  0  0  0  0  0  0  0
   -4.2793   -1.5415    4.1024 C   0  0  0  0  0  0  0  0  0  0  0  0
   -4.9259   -2.4694    5.0779 C   0  0  0  0  0  0  0  0  0  0  0  0
   -4.3290   -2.2875    6.4763 C   0  0  0  0  0  0  0  0  0  0  0  0
   -3.1966   -1.9146    3.3201 C   0  0  0  0  0  0  0  0  0  0  0  0
   -2.6887   -0.8816    2.5104 C   0  0  0  0  0  0  0  0  0  0  0  0
   -3.5744    0.5840    2.7047 S   0  0  0  0  0  0  0  0  0  0  0  0
   -1.5986   -1.3268    1.7576 C   0  0  0  0  0  0  0  0  0  0  0  0
   -1.2948   -2.6713    1.9996 C   0  0  0  0  0  0  0  0  0  0  0  0
   -2.3338   -3.4325    3.1502 S   0  0  0  0  0  0  0  0  0  0  0  0
   -0.1729   -2.9843    1.2245 C   0  0  0  0  0  0  0  0  0  0  0  0
    0.5475   -4.2050    1.1663 C   0  0  0  0  0  0  0  0  0  0  0  0
    0.1530   -5.2735    1.8690 N   0  0  0  0  0  0  0  0  0  0  0  0
    0.8859   -6.3642    1.7899 C   0  0  0  0  0  0  0  0  0  0  0  0
    0.4282   -7.5464    2.5773 C   0  0  0  0  0  0  0  0  0  0  0  0
    2.0576   -6.4074    0.9918 C   0  0  0  0  0  0  0  0  0  0  0  0
    2.8996   -7.6362    0.9005 C   0  0  0  0  0  0  0  0  0  0  0  0
    2.4494   -5.3610    0.2954 N   0  0  0  0  0  0  0  0  0  0  0  0
    1.7049   -4.2510    0.3664 C   0  0  0  0  0  0  0  0  0  0  0  0
    2.0460   -3.0914   -0.3766 C   0  0  0  0  0  0  0  0  0  0  0  0
    3.1130   -2.9061   -1.2622 C   0  0  0  0  0  0  0  0  0  0  0  0
    4.4701   -3.7872   -1.8658 S   0  0  0  0  0  0  0  0  0  0  0  0
    4.8894   -2.3963   -2.8497 C   0  0  0  0  0  0  0  0  0  0  0  0
    5.9253   -2.1639   -3.7399 C   0  0  0  0  0  0  0  0  0  0  0  0
    7.0041   -3.1622   -4.0037 C   0  0  0  0  0  0  0  0  0  0  0  0
    8.2176   -2.8973   -3.1078 C   0  0  0  0  0  0  0  0  0  0  0  0
    5.8518   -0.8677   -4.2887 C   0  0  0  0  0  0  0  0  0  0  0  0
    4.4590    0.0319   -3.6785 S   0  0  0  0  0  0  0  0  0  0  0  0
    4.0025   -1.3117   -2.7016 C   0  0  0  0  0  0  0  0  0  0  0  0
    2.9906   -1.6145   -1.7883 C   0  0  0  0  0  0  0  0  0  0  0  0
    1.8997   -0.9907   -1.2438 N   0  0  0  0  0  0  0  0  0  0  0  0
    1.4247    0.2356   -1.8434 C   0  0  0  0  0  0  0  0  0  0  0  0
    0.2378   -0.0236   -2.7691 C   0  0  0  0  0  0  0  0  0  0  0  0
    1.2947   -1.8771   -0.3689 C   0  0  0  0  0  0  0  0  0  0  0  0
    0.1787   -1.8034    0.5031 C   0  0  0  0  0  0  0  0  0  0  0  0
   -0.7208   -0.8077    0.8444 N   0  0  0  0  0  0  0  0  0  0  0  0
   -0.6976    0.6212    0.6314 C   0  0  0  0  0  0  0  0  0  0  0  0
    0.4238    1.2837    1.4293 C   0  0  0  0  0  0  0  0  0  0  0  0
    6.7888   -0.3773   -5.1962 C   0  0  0  0  0  0  0  0  0  0  0  0
    6.9034    0.8508   -5.8110 C   0  0  0  0  0  0  0  0  0  0  0  0
    5.9968    1.9841   -5.6428 C   0  0  0  0  0  0  0  0  0  0  0  0
    4.9907    2.0388   -4.9583 O   0  0  0  0  0  0  0  0  0  0  0  0
    6.5445    3.0708   -6.4838 C   0  0  0  0  0  0  0  0  0  0  0  0
    7.7101    2.6159   -7.1276 C   0  0  0  0  0  0  0  0  0  0  0  0
    8.4081    3.4630   -7.9725 C   0  0  0  0  0  0  0  0  0  0  0  0
    7.9322    4.7524   -8.1635 C   0  0  0  0  0  0  0  0  0  0  0  0
    6.7828    5.1951   -7.5282 C   0  0  0  0  0  0  0  0  0  0  0  0
    6.1856    6.9629   -7.8300 Br  0  0  0  0  0  0  0  0  0  0  0  0
    6.0628    4.3554   -6.6707 C   0  0  0  0  0  0  0  0  0  0  0  0
    4.6426    4.8982   -5.8843 Cl  0  0  0  0  0  0  0  0  0  0  0  0
    7.9535    1.2286   -6.7288 C   0  0  0  0  0  0  0  0  0  0  0  0
    9.0007    0.4583   -7.1714 C   0  0  0  0  0  0  0  0  0  0  0  0
    9.2547   -0.8792   -6.8043 C   0  0  0  0  0  0  0  0  0  0  0  0
    9.5340   -1.9667   -6.5582 N   0  0  0  0  0  0  0  0  0  0  0  0
    9.9878    0.9040   -8.0747 C   0  0  0  0  0  0  0  0  0  0  0  0
   10.8235    1.1982   -8.8051 N   0  0  0  0  0  0  0  0  0  0  0  0
   -6.1723   -0.2122    5.2761 H   0  0  0  0  0  0  0  0  0  0  0  0
   -5.8755    5.3511    2.3622 H   0  0  0  0  0  0  0  0  0  0  0  0
   -5.9600    8.7825    0.4872 H   0  0  0  0  0  0  0  0  0  0  0  0
   -7.7245    8.9656    0.7394 H   0  0  0  0  0  0  0  0  0  0  0  0
   -6.5926    9.6344    1.9307 H   0  0  0  0  0  0  0  0  0  0  0  0
   -9.2310    6.5086    4.7512 H   0  0  0  0  0  0  0  0  0  0  0  0
   -9.2164    4.3328    5.9133 H   0  0  0  0  0  0  0  0  0  0  0  0
   -4.7452   -3.4931    4.7439 H   0  0  0  0  0  0  0  0  0  0  0  0
   -6.0038   -2.3084    5.1208 H   0  0  0  0  0  0  0  0  0  0  0  0
   -4.5012   -1.2777    6.8407 H   0  0  0  0  0  0  0  0  0  0  0  0
   -3.2578   -2.4743    6.4569 H   0  0  0  0  0  0  0  0  0  0  0  0
   -4.7940   -2.9840    7.1677 H   0  0  0  0  0  0  0  0  0  0  0  0
    0.2333   -8.3907    1.9177 H   0  0  0  0  0  0  0  0  0  0  0  0
   -0.4818   -7.2880    3.1110 H   0  0  0  0  0  0  0  0  0  0  0  0
    1.1932   -7.8476    3.2915 H   0  0  0  0  0  0  0  0  0  0  0  0
    3.7398   -7.4444    0.2395 H   0  0  0  0  0  0  0  0  0  0  0  0
    3.2706   -7.9171    1.8851 H   0  0  0  0  0  0  0  0  0  0  0  0
    2.3161   -8.4693    0.5112 H   0  0  0  0  0  0  0  0  0  0  0  0
    7.3144   -3.1413   -5.0492 H   0  0  0  0  0  0  0  0  0  0  0  0
    6.6095   -4.1559   -3.7830 H   0  0  0  0  0  0  0  0  0  0  0  0
    8.6331   -1.9115   -3.3029 H   0  0  0  0  0  0  0  0  0  0  0  0
    8.9868   -3.6389   -3.3025 H   0  0  0  0  0  0  0  0  0  0  0  0
    7.9329   -2.9538   -2.0598 H   0  0  0  0  0  0  0  0  0  0  0  0
    1.1880    0.9703   -1.0758 H   0  0  0  0  0  0  0  0  0  0  0  0
    2.2545    0.6378   -2.4298 H   0  0  0  0  0  0  0  0  0  0  0  0
   -0.1240    0.9142   -3.1813 H   0  0  0  0  0  0  0  0  0  0  0  0
   -0.5754   -0.5160   -2.2395 H   0  0  0  0  0  0  0  0  0  0  0  0
    0.5438   -0.6662   -3.5913 H   0  0  0  0  0  0  0  0  0  0  0  0
   -1.6592    1.0047    0.9815 H   0  0  0  0  0  0  0  0  0  0  0  0
   -0.6284    0.8470   -0.4311 H   0  0  0  0  0  0  0  0  0  0  0  0
    0.2547    1.1390    2.4937 H   0  0  0  0  0  0  0  0  0  0  0  0
    1.3926    0.8558    1.1790 H   0  0  0  0  0  0  0  0  0  0  0  0
    0.4440    2.3509    1.2263 H   0  0  0  0  0  0  0  0  0  0  0  0
    7.5584   -1.0952   -5.4437 H   0  0  0  0  0  0  0  0  0  0  0  0
    9.3043    3.1494   -8.4806 H   0  0  0  0  0  0  0  0  0  0  0  0
    8.4625    5.4275   -8.8172 H   0  0  0  0  0  0  0  0  0  0  0  0
  1  2  2  0  0  0  0
  2  3  1  0  0  0  0
  3  4  2  0  0  0  0
  3  5  1  0  0  0  0
  5  6  2  0  0  0  0
  6  7  1  0  0  0  0
  7  8  1  0  0  0  0
  8  9  2  0  0  0  0
  8 10  1  0  0  0  0
 10 11  1  0  0  0  0
  7 12  2  0  0  0  0
 12 13  1  0  0  0  0
 13 14  2  0  0  0  0
 14 15  1  0  0  0  0
 15 16  2  0  0  0  0
 16 17  1  0  0  0  0
 17 18  3  0  0  0  0
 16 19  1  0  0  0  0
 19 20  3  0  0  0  0
  1 21  1  0  0  0  0
 21 22  2  0  0  0  0
 22 23  1  0  0  0  0
 23 24  1  0  0  0  0
 22 25  1  0  0  0  0
 25 26  2  0  0  0  0
 26 27  1  0  0  0  0
 26 28  1  0  0  0  0
 28 29  2  0  0  0  0
 29 30  1  0  0  0  0
 29 31  1  0  0  0  0
 31 32  2  0  0  0  0
 32 33  1  0  0  0  0
 33 34  2  0  0  0  0
 34 35  1  0  0  0  0
 34 36  1  0  0  0  0
 36 37  1  0  0  0  0
 36 38  2  0  0  0  0
 38 39  1  0  0  0  0
 39 40  2  0  0  0  0
 40 41  1  0  0  0  0
 41 42  1  0  0  0  0
 42 43  1  0  0  0  0
 43 44  1  0  0  0  0
 44 45  1  0  0  0  0
 45 46  1  0  0  0  0
 44 47  2  0  0  0  0
 47 48  1  0  0  0  0
 48 49  1  0  0  0  0
 49 50  1  0  0  0  0
 50 51  1  0  0  0  0
 51 52  1  0  0  0  0
 52 53  1  0  0  0  0
 51 54  1  0  0  0  0
 54 55  2  0  0  0  0
 55 56  1  0  0  0  0
 56 57  1  0  0  0  0
 57 58  1  0  0  0  0
 47 59  1  0  0  0  0
 59 60  2  0  0  0  0
 60 61  1  0  0  0  0
 61 62  2  0  0  0  0
 61 63  1  0  0  0  0
 63 64  2  0  0  0  0
 64 65  1  0  0  0  0
 65 66  2  0  0  0  0
 66 67  1  0  0  0  0
 67 68  1  0  0  0  0
 67 69  2  0  0  0  0
 69 70  1  0  0  0  0
 64 71  1  0  0  0  0
 71 72  2  0  0  0  0
 72 73  1  0  0  0  0
 73 74  3  0  0  0  0
 72 75  1  0  0  0  0
 75 76  3  0  0  0  0
 15  2  1  0  0  0  0
 27 21  1  0  0  0  0
 56 28  1  0  0  0  0
 71 60  1  0  0  0  0
 14  5  1  0  0  0  0
 30 25  1  0  0  0  0
 55 31  1  0  0  0  0
 69 63  1  0  0  0  0
 39 32  1  0  0  0  0
 54 40  1  0  0  0  0
 50 41  2  0  0  0  0
 49 43  2  0  0  0  0
  1 77  1  0  0  0  0
  6 78  1  0  0  0  0
 11 79  1  0  0  0  0
 11 80  1  0  0  0  0
 11 81  1  0  0  0  0
 12 82  1  0  0  0  0
 13 83  1  0  0  0  0
 23 84  1  0  0  0  0
 23 85  1  0  0  0  0
 24 86  1  0  0  0  0
 24 87  1  0  0  0  0
 24 88  1  0  0  0  0
 35 89  1  0  0  0  0
 35 90  1  0  0  0  0
 35 91  1  0  0  0  0
 37 92  1  0  0  0  0
 37 93  1  0  0  0  0
 37 94  1  0  0  0  0
 45 95  1  0  0  0  0
 45 96  1  0  0  0  0
 46 97  1  0  0  0  0
 46 98  1  0  0  0  0
 46 99  1  0  0  0  0
 52100  1  0  0  0  0
 52101  1  0  0  0  0
 53102  1  0  0  0  0
 53103  1  0  0  0  0
 53104  1  0  0  0  0
 57105  1  0  0  0  0
 57106  1  0  0  0  0
 58107  1  0  0  0  0
 58108  1  0  0  0  0
 58109  1  0  0  0  0
 59110  1  0  0  0  0
 65111  1  0  0  0  0
 66112  1  0  0  0  0
M  END
