230

C          1.00660        2.15920       11.56360
C          0.99600        1.07320       12.39330
C          1.30030        1.23090       13.83750
O          1.38510        2.26840       14.45350
C          1.52260       -0.14700       14.33650
C          1.92990       -0.56810       15.58340
C          2.08040       -1.93930       15.80320
C          2.50500       -2.38770       17.15510
O          2.75610       -1.64190       18.06830
O          2.57630       -3.72270       17.25450
C          2.96790       -4.22740       18.52240
C          1.83500       -2.84940       14.77590
C          1.41930       -2.42480       13.52320
C          1.25380       -1.06650       13.30410
C          0.77880       -0.32940       12.13400
C         -0.00420       -0.86010       11.13870
C         -0.72280       -0.07340       10.21680
N         -1.37230        0.53210        9.48820
C         -0.26810       -2.23520       10.99030
N         -0.50420       -3.34460       10.81070
C          1.15040        2.19270       10.16430
S          1.93680        0.89570        9.26570
C          1.64960        1.72700        7.79950
C          1.85130        1.51630        6.42150
C          1.30550        2.59180        5.71910
C          0.70770        3.60880        6.66000
C          0.98180        2.94400        7.98950
C          0.74400        3.22350        9.32100
C          1.39460        4.96020        6.64060
C          2.62670        5.14670        6.03260
C          3.24320        6.38470        6.06900
C          2.65010        7.45980        6.71550
C          3.34390        8.78890        6.79440
C          4.21880        8.86020        8.04770
C          1.41950        7.26350        7.33070
C          0.79830        6.03080        7.29550
C         -0.76930        3.71920        6.31720
C         -1.72360        2.93210        6.94520
C         -3.04950        3.01020        6.55770
C         -3.44920        3.85630        5.53250
C         -4.89470        3.96530        5.14080
C         -5.57740        5.08570        5.92780
C         -2.48500        4.63420        4.90380
C         -1.15980        4.56650        5.28750
C          1.36160        2.38250        4.34660
S          0.76740        3.22830        2.95000
C          1.32090        1.92770        1.94890
C          1.19110        1.58560        0.56680
C          0.52580        2.22570       -0.47580
C          0.46530        1.56620       -1.68090
C         -0.27230        1.98420       -2.94220
C         -1.71240        2.30690       -2.59700
C         -2.06890        3.59720       -2.22690
C         -3.37320        3.89140       -1.87800
C         -4.35320        2.90760       -1.88380
C         -5.78090        3.23950       -1.55910
C         -6.54790        3.59780       -2.83360
C         -3.98880        1.61690       -2.24260
C         -2.68450        1.31660       -2.58780
C          0.39490        3.12840       -3.68700
C         -0.25950        3.69420       -4.77490
C          0.33040        4.71370       -5.49570
C          1.58750        5.19530       -5.15130
C          2.24270        6.28060       -5.95590
C          3.07670        5.67850       -7.08860
C          2.24180        4.61670       -4.07280
C          1.65730        3.59250       -3.34900
C         -0.11200        0.74630       -3.78490
C          0.71050       -0.16810       -3.15010
C          1.06360        0.29460       -1.84500
C          1.75840       -0.33000       -0.81310
C          1.81220        0.32610        0.39370
C          2.41190       -0.16840        1.69930
C          1.85050       -1.54070        2.01280
C          0.67940       -1.68780        2.74220
C          0.15790       -2.94520        2.98450
C          0.78380       -4.08400        2.49670
C          0.18920       -5.44480        2.71740
C         -0.76010       -5.80300        1.57210
C          1.94750       -3.93010        1.75410
C          2.47630       -2.67650        1.51450
C          3.93120       -0.16660        1.71120
C          4.67470        0.44900        0.71540
C          6.05670        0.46010        0.78110
C          6.72760       -0.13340        1.84120
C          8.22580       -0.08350        1.92810
C          8.67660        1.17250        2.67650
C          5.97630       -0.73390        2.84410
C          4.59680       -0.75110        2.78230
C          1.95720        0.91260        2.64290
C          1.98330        1.16010        4.01250
S          2.49420        0.26430        5.40980
S          0.95640       -1.63430       -4.03790
C         -0.10730       -1.03960       -5.27790
C         -0.67860       -1.58330       -6.42100
C         -1.59190       -0.70480       -7.00610
S         -1.73660        0.81170       -6.17820
C         -0.58800        0.25840       -4.99960
C         -2.20660       -1.33570       -8.10690
S         -3.45690       -1.00610       -9.22530
C         -3.25570       -2.61530       -9.91630
C         -2.23780       -3.33460       -9.26290
C         -1.65190       -2.62350       -8.24760
C         -0.59450       -2.87530       -7.19630
C          0.81560       -2.98470       -7.75330
C          1.83900       -3.41190       -6.91630
C          3.13720       -3.48910       -7.38140
C          3.44840       -3.13740       -8.68880
C          4.84930       -3.27210       -9.21140
C          5.04370       -4.64060       -9.86770
C          2.42240       -2.70290       -9.51670
C          1.12080       -2.62050       -9.05610
C         -0.96050       -4.10900       -6.39360
C         -0.64790       -5.36460       -6.89950
C         -0.97870       -6.50580       -6.19530
C         -1.62720       -6.42470       -4.96930
C         -2.01050       -7.66660       -4.21770
C         -3.41810       -8.11810       -4.61250
C         -1.95410       -5.16840       -4.47850
C         -1.63130       -4.02260       -5.18290
C         -3.98870       -3.17270      -10.96420
C         -5.05540       -2.67430      -11.67890
C         -5.70480       -1.38140      -11.45280
O         -5.37180       -0.50810      -10.67160
C         -6.86600       -1.34260      -12.36710
C         -7.82260       -0.36290      -12.51430
C         -8.84490       -0.57200      -13.44280
C         -9.88300        0.48060      -13.59210
O         -9.89000        1.51770      -12.97730
O        -10.82270        0.15070      -14.48940
C        -11.85450        1.10610      -14.68430
C         -8.87960       -1.74410      -14.19590
C         -7.91160       -2.72640      -14.04740
C         -6.89560       -2.52740      -13.12520
C         -5.75950       -3.36520      -12.73490
C         -5.44040       -4.57270      -13.30570
C         -4.33890       -5.38250      -12.96150
N         -3.46710       -6.10140      -12.75190
C         -6.17470       -5.17800      -14.34610
N         -6.72090       -5.72880      -15.19320
H          0.95780        3.12440       12.05920
H          2.12580        0.13340       16.37980
H          3.96700       -3.87040       18.78070
H          2.26850       -3.89830       19.29380
H          2.95890       -5.31060       18.43420
H          1.96960       -3.90240       14.96670
H          1.23950       -3.14500       12.74110
H          0.24590        4.10070        9.69210
H          3.11050        4.32520        5.52430
H          4.20050        6.51520        5.58480
H          3.96870        8.93390        5.91080
H          2.60440        9.59140        6.82620
H          3.61210        8.72890        8.94080
H          4.97200        8.07570        8.02840
H          4.72090        9.82300        8.10710
H          0.94130        8.08760        7.84060
H         -0.16390        5.89660        7.76810
H         -1.44330        2.25420        7.73680
H         -3.78060        2.39320        7.05940
H         -4.97340        4.17580        4.07210
H         -5.40510        3.02160        5.34250
H         -5.08930        6.03780        5.73130
H         -5.51980        4.88590        6.99540
H         -6.62450        5.16690        5.64540
H         -2.77230        5.29620        4.09930
H         -0.42260        5.17800        4.78700
H          0.05030        3.18270       -0.32500
H         -1.32330        4.37940       -2.22300
H         -3.63350        4.90190       -1.59640
H         -5.81710        4.08370       -0.86760
H         -6.26000        2.38350       -1.07940
H         -7.58370        3.83380       -2.60090
H         -6.09500        4.45990       -3.31790
H         -6.52960        2.76510       -3.53300
H         -4.73440        0.83470       -2.24900
H         -2.42400        0.30160       -2.85100
H         -1.24200        3.33890       -5.05060
H         -0.19510        5.14470       -6.33560
H          1.48080        6.93720       -6.38060
H          2.89000        6.87940       -5.31190
H          2.44640        5.08750       -7.74920
H          3.55080        6.46480       -7.67140
H          3.85100        5.02970       -6.68490
H          3.22230        4.97330       -3.79030
H          2.18760        3.15930       -2.51360
H          2.20170       -1.30370       -0.95370
H          0.16730       -0.81710        3.12570
H         -0.74940       -3.04100        3.56370
H          0.98360       -6.19170        2.77280
H         -0.36140       -5.46020        3.65990
H         -1.19020       -6.78950        1.72890
H         -1.56770       -5.07690        1.51020
H         -0.22660       -5.80220        0.62390
H          2.44910       -4.80330        1.36150
H          3.38980       -2.57940        0.94520
H          4.17610        0.91820       -0.12010
H          6.62150        0.93610       -0.00800
H          8.59550       -0.96660        2.45300
H          8.65510       -0.07750        0.92420
H          9.76150        1.20770        2.74240
H          8.33040        2.06510        2.16000
H          8.26640        1.18000        3.68390
H          6.47740       -1.19740        3.68180
H          4.02850       -1.23040        3.56640
H         -1.97940       -4.33840       -9.55020
H          1.61420       -3.69230       -5.89730
H          3.92070       -3.82560       -6.71770
H          5.56270       -3.16040       -8.39250
H          5.04710       -2.48960       -9.94700
H          4.86050       -5.43460       -9.14710
H          6.05840       -4.74100      -10.24560
H          4.35030       -4.76470      -10.69640
H          2.64280       -2.42140      -10.53650
H          0.34160       -2.27460       -9.71910
H         -0.13080       -5.44550       -7.84460
H         -0.72340       -7.47450       -6.60050
H         -1.98310       -7.47230       -3.14350
H         -1.30120       -8.46650       -4.43910
H         -3.69220       -9.02280       -4.07490
H         -4.14370       -7.34190       -4.38000
H         -3.46470       -8.32050       -5.68020
H         -2.46460       -5.08230       -3.52980
H         -1.90280       -3.05800       -4.77990
H         -3.66030       -4.17210      -11.22330
H         -7.79550        0.54410      -11.92990
H        -11.43310        2.05770      -15.01470
H        -12.40060        1.26970      -13.75300
H        -12.51130        0.69270      -15.44540
H         -9.67860       -1.88610      -14.90640
H         -7.96680       -3.62310      -14.64240
