171

C          4.81420        7.24860       -4.75630
C          5.02540        8.48920       -4.20560
C          4.76830        8.88070       -2.80310
O          4.60610        8.17270       -1.83010
C          4.67840       10.35850       -2.82190
C          4.35120       11.21160       -1.79110
C          4.30290       12.58160       -2.05680
C          3.93090       13.49410       -0.94430
O          3.70890       13.12880        0.18330
O          3.85940       14.77480       -1.33080
C          3.49880       15.70550       -0.32090
C          4.58730       13.06010       -3.33500
C          4.92130       12.19850       -4.36950
C          4.96410       10.83640       -4.11310
C          5.25070        9.69330       -4.97650
C          5.72720        9.75830       -6.26040
C          6.10760        8.63800       -7.02950
N          6.46130        7.77730       -7.70230
C          5.94770       10.96140       -6.96130
N          6.13900       11.90710       -7.58350
C          4.60800        6.03050       -4.09160
S          3.69900        4.77830       -4.96140
C          3.73050        3.77560       -3.56820
C          3.23900        2.57360       -3.07510
S          2.20400        1.27290       -3.56660
C          2.35740        0.60720       -1.97510
C          1.72600       -0.48640       -1.30950
C          0.75080       -1.37260       -1.75690
C          0.21420       -2.23370       -0.83040
C         -0.92910       -3.22730       -1.01130
C         -2.14120       -2.54160       -1.61440
C         -2.93840       -3.14220       -2.58450
C         -4.03210       -2.46400       -3.09020
C         -4.35560       -1.19190       -2.65100
C         -3.57020       -0.58670       -1.67480
O         -3.77210        0.65350       -1.16440
C         -4.84490        1.43400       -1.65680
C         -4.79920        2.77940       -0.95020
C         -2.47300       -1.27700       -1.15940
C         -0.38980       -4.37780       -1.84770
C         -0.05790       -5.59760       -1.27970
C          0.46760       -6.61010       -2.06980
C          0.67670       -6.41510       -3.41630
C          0.36650       -5.18280       -3.99690
O          0.61720       -5.07290       -5.32540
C          0.38280       -3.83780       -5.97370
C          0.79510       -3.99550       -7.42840
C         -0.16560       -4.17310       -3.20590
C         -1.17920       -3.63430        0.42470
C         -0.20070       -3.09000        1.24340
C          0.65900       -2.21700        0.50900
C          1.67130       -1.36530        0.94410
C          2.19270       -0.48820        0.02310
C          3.19410        0.64360        0.24950
C          2.62410        1.50610        1.35880
C          2.76700        1.13930        2.69040
C          2.18620        1.90910        3.68510
C          1.44480        3.02710        3.36820
C          1.25890        3.38430        2.03190
O          0.51000        4.49770        1.81770
C          0.16110        4.87740        0.50120
C         -0.93830        4.00260       -0.09460
C          1.85430        2.61700        1.03670
C          4.59340        0.09460        0.49550
C          5.03000       -0.95830       -0.29680
C          6.31010       -1.46120       -0.13970
C          7.15830       -0.93140        0.80820
C          6.73300        0.12640        1.61360
O          7.63520        0.54710        2.53820
C          7.30540        1.56230        3.46520
C          7.50730        2.96510        2.90020
C          5.45500        0.64790        1.43570
C          3.17750        1.31300       -1.10970
C          3.69820        2.45390       -1.73360
N          4.46490        3.54110       -1.41940
C          4.47850        4.36510       -2.51490
C          4.97370        5.62490       -2.81530
C          5.12900        3.82750       -0.17290
C          4.45790        4.96300        0.59630
S         -0.32460       -3.49550        2.92040
C         -1.74700       -4.41300        2.54940
C         -2.71990       -5.15800        3.20310
S         -3.18490       -5.70350        4.76070
C         -4.64720       -6.44980        4.07740
C         -4.71880       -6.29320        2.69790
C         -3.64470       -5.57050        2.20550
N         -3.24900       -5.09790        0.98100
C         -3.96730       -5.33210       -0.24650
C         -3.49130       -6.59890       -0.95320
C         -2.09120       -4.39360        1.16770
C         -5.50210       -7.07070        4.99730
C         -6.77580       -7.57070        4.85970
C         -7.68840       -7.46000        3.70590
O         -7.45390       -7.10130        2.56720
C         -9.01740       -7.86890        4.20560
C        -10.21040       -7.85790        3.52570
C        -11.35650       -8.26890        4.21420
C        -12.69730       -8.33860        3.74540
C        -13.54700       -8.77730        4.70380
Br       -15.39890       -9.01530        4.52140
S        -12.77950       -9.13380        6.22820
C        -11.24000       -8.67590        5.56380
C        -10.03070       -8.69360        6.24850
C         -8.90870       -8.28400        5.55330
C         -7.51060       -8.17530        5.95600
C         -6.99730       -8.63960        7.14100
C         -5.63400       -8.65200        7.50360
N         -4.54860       -8.72740        7.87230
C         -7.77600       -9.22850        8.15830
N         -8.35430       -9.70960        9.02600
H          4.70060        7.20050       -5.83360
H          4.13010       10.84200       -0.80150
H          4.23630       15.69600        0.48430
H          3.46920       16.67970       -0.80170
H          2.52200       15.45220        0.09640
H          4.54130       14.12200       -3.51800
H          5.12890       12.59360       -5.35060
H          0.40500       -1.32550       -2.77730
H         -2.70310       -4.12910       -2.95270
H         -4.64660       -2.93320       -3.84430
H         -5.21180       -0.68940       -3.07150
H         -5.80060        0.93060       -1.45520
H         -4.74210        1.57300       -2.74190
H         -5.61260        3.40820       -1.30030
H         -3.85220        3.27150       -1.15350
H         -4.89300        2.63770        0.12290
H         -1.88080       -0.79000       -0.39990
H         -0.19730       -5.76790       -0.22350
H          0.71620       -7.56010       -1.62110
H          1.08470       -7.19190       -4.04250
H          0.97410       -3.04400       -5.49610
H         -0.68190       -3.57170       -5.90770
H          0.63300       -3.06320       -7.96170
H          1.84630       -4.26330       -7.48820
H          0.21070       -4.78250       -7.89670
H         -0.42340       -3.22070       -3.63890
H          1.98350       -1.37420        1.97590
H          3.32940        0.25730        2.95530
H          2.31010        1.62610        4.71970
H          0.98790        3.63490        4.13220
H          1.04480        4.89270       -0.14980
H         -0.19910        5.90440        0.60640
H         -0.61560        2.96790       -0.18590
H         -1.20430        4.37660       -1.07980
H         -1.81620        4.03000        0.54610
H          1.71800        2.87080       -0.00210
H          4.37000       -1.38750       -1.03510
H          6.64350       -2.27940       -0.75970
H          8.15340       -1.31910        0.95440
H          7.99540        1.40180        4.29880
H          6.28170        1.43400        3.83700
H          7.31390        3.70170        3.67510
H          6.83990        3.15010        2.06320
H          8.53180        3.07680        2.55440
H          5.11650        1.46980        2.04690
H          5.57670        6.22780       -2.16550
H          5.12000        2.90830        0.41360
H          6.16820        4.09530       -0.39470
H          3.45590        4.67550        0.90350
H          4.39590        5.86020       -0.01460
H          5.03580        5.19130        1.48780
H         -5.53190       -6.68900        2.11940
H         -3.83590       -4.46340       -0.89490
H         -5.02680       -5.42390        0.00630
H         -4.08270       -6.76140       -1.84990
H         -3.60550       -7.46140       -0.30080
H         -2.44500       -6.50890       -1.23650
H         -5.08810       -7.11140        5.99840
H        -10.25900       -7.53860        2.49640
H        -13.00130       -8.07340        2.74930
H         -9.99590       -9.00850        7.27790
