
  xtb     02012214553D
 energy: -366.949609133051 gnorm: 0.000579926193 xtb: 6.4.1 (unknown)
230252  0     0  0            999 V2000
    1.0066    2.1592   11.5636 C   0  0  0  0  0  0  0  0  0  0  0  0
    0.9960    1.0732   12.3933 C   0  0  0  0  0  0  0  0  0  0  0  0
    1.3003    1.2309   13.8375 C   0  0  0  0  0  0  0  0  0  0  0  0
    1.3851    2.2684   14.4535 O   0  0  0  0  0  0  0  0  0  0  0  0
    1.5226   -0.1470   14.3365 C   0  0  0  0  0  0  0  0  0  0  0  0
    1.9299   -0.5681   15.5834 C   0  0  0  0  0  0  0  0  0  0  0  0
    2.0804   -1.9393   15.8032 C   0  0  0  0  0  0  0  0  0  0  0  0
    2.5050   -2.3877   17.1551 C   0  0  0  0  0  0  0  0  0  0  0  0
    2.7561   -1.6419   18.0683 O   0  0  0  0  0  0  0  0  0  0  0  0
    2.5763   -3.7227   17.2545 O   0  0  0  0  0  0  0  0  0  0  0  0
    2.9679   -4.2274   18.5224 C   0  0  0  0  0  0  0  0  0  0  0  0
    1.8350   -2.8494   14.7759 C   0  0  0  0  0  0  0  0  0  0  0  0
    1.4193   -2.4248   13.5232 C   0  0  0  0  0  0  0  0  0  0  0  0
    1.2538   -1.0665   13.3041 C   0  0  0  0  0  0  0  0  0  0  0  0
    0.7788   -0.3294   12.1340 C   0  0  0  0  0  0  0  0  0  0  0  0
   -0.0042   -0.8601   11.1387 C   0  0  0  0  0  0  0  0  0  0  0  0
   -0.7228   -0.0734   10.2168 C   0  0  0  0  0  0  0  0  0  0  0  0
   -1.3723    0.5321    9.4882 N   0  0  0  0  0  0  0  0  0  0  0  0
   -0.2681   -2.2352   10.9903 C   0  0  0  0  0  0  0  0  0  0  0  0
   -0.5042   -3.3446   10.8107 N   0  0  0  0  0  0  0  0  0  0  0  0
    1.1504    2.1927   10.1643 C   0  0  0  0  0  0  0  0  0  0  0  0
    1.9368    0.8957    9.2657 S   0  0  0  0  0  0  0  0  0  0  0  0
    1.6496    1.7270    7.7995 C   0  0  0  0  0  0  0  0  0  0  0  0
    1.8513    1.5163    6.4215 C   0  0  0  0  0  0  0  0  0  0  0  0
    1.3055    2.5918    5.7191 C   0  0  0  0  0  0  0  0  0  0  0  0
    0.7077    3.6088    6.6600 C   0  0  0  0  0  0  0  0  0  0  0  0
    0.9818    2.9440    7.9895 C   0  0  0  0  0  0  0  0  0  0  0  0
    0.7440    3.2235    9.3210 C   0  0  0  0  0  0  0  0  0  0  0  0
    1.3946    4.9602    6.6406 C   0  0  0  0  0  0  0  0  0  0  0  0
    2.6267    5.1467    6.0326 C   0  0  0  0  0  0  0  0  0  0  0  0
    3.2432    6.3847    6.0690 C   0  0  0  0  0  0  0  0  0  0  0  0
    2.6501    7.4598    6.7155 C   0  0  0  0  0  0  0  0  0  0  0  0
    3.3439    8.7889    6.7944 C   0  0  0  0  0  0  0  0  0  0  0  0
    4.2188    8.8602    8.0477 C   0  0  0  0  0  0  0  0  0  0  0  0
    1.4195    7.2635    7.3307 C   0  0  0  0  0  0  0  0  0  0  0  0
    0.7983    6.0308    7.2955 C   0  0  0  0  0  0  0  0  0  0  0  0
   -0.7693    3.7192    6.3172 C   0  0  0  0  0  0  0  0  0  0  0  0
   -1.7236    2.9321    6.9452 C   0  0  0  0  0  0  0  0  0  0  0  0
   -3.0495    3.0102    6.5577 C   0  0  0  0  0  0  0  0  0  0  0  0
   -3.4492    3.8563    5.5325 C   0  0  0  0  0  0  0  0  0  0  0  0
   -4.8947    3.9653    5.1408 C   0  0  0  0  0  0  0  0  0  0  0  0
   -5.5774    5.0857    5.9278 C   0  0  0  0  0  0  0  0  0  0  0  0
   -2.4850    4.6342    4.9038 C   0  0  0  0  0  0  0  0  0  0  0  0
   -1.1598    4.5665    5.2875 C   0  0  0  0  0  0  0  0  0  0  0  0
    1.3616    2.3825    4.3466 C   0  0  0  0  0  0  0  0  0  0  0  0
    0.7674    3.2283    2.9500 S   0  0  0  0  0  0  0  0  0  0  0  0
    1.3209    1.9277    1.9489 C   0  0  0  0  0  0  0  0  0  0  0  0
    1.1911    1.5856    0.5668 C   0  0  0  0  0  0  0  0  0  0  0  0
    0.5258    2.2257   -0.4758 C   0  0  0  0  0  0  0  0  0  0  0  0
    0.4653    1.5662   -1.6809 C   0  0  0  0  0  0  0  0  0  0  0  0
   -0.2723    1.9842   -2.9422 C   0  0  0  0  0  0  0  0  0  0  0  0
   -1.7124    2.3069   -2.5970 C   0  0  0  0  0  0  0  0  0  0  0  0
   -2.0689    3.5972   -2.2269 C   0  0  0  0  0  0  0  0  0  0  0  0
   -3.3732    3.8914   -1.8780 C   0  0  0  0  0  0  0  0  0  0  0  0
   -4.3532    2.9076   -1.8838 C   0  0  0  0  0  0  0  0  0  0  0  0
   -5.7809    3.2395   -1.5591 C   0  0  0  0  0  0  0  0  0  0  0  0
   -6.5479    3.5978   -2.8336 C   0  0  0  0  0  0  0  0  0  0  0  0
   -3.9888    1.6169   -2.2426 C   0  0  0  0  0  0  0  0  0  0  0  0
   -2.6845    1.3166   -2.5878 C   0  0  0  0  0  0  0  0  0  0  0  0
    0.3949    3.1284   -3.6870 C   0  0  0  0  0  0  0  0  0  0  0  0
   -0.2595    3.6942   -4.7749 C   0  0  0  0  0  0  0  0  0  0  0  0
    0.3304    4.7137   -5.4957 C   0  0  0  0  0  0  0  0  0  0  0  0
    1.5875    5.1953   -5.1513 C   0  0  0  0  0  0  0  0  0  0  0  0
    2.2427    6.2806   -5.9559 C   0  0  0  0  0  0  0  0  0  0  0  0
    3.0767    5.6785   -7.0886 C   0  0  0  0  0  0  0  0  0  0  0  0
    2.2418    4.6167   -4.0728 C   0  0  0  0  0  0  0  0  0  0  0  0
    1.6573    3.5925   -3.3490 C   0  0  0  0  0  0  0  0  0  0  0  0
   -0.1120    0.7463   -3.7849 C   0  0  0  0  0  0  0  0  0  0  0  0
    0.7105   -0.1681   -3.1501 C   0  0  0  0  0  0  0  0  0  0  0  0
    1.0636    0.2946   -1.8450 C   0  0  0  0  0  0  0  0  0  0  0  0
    1.7584   -0.3300   -0.8131 C   0  0  0  0  0  0  0  0  0  0  0  0
    1.8122    0.3261    0.3937 C   0  0  0  0  0  0  0  0  0  0  0  0
    2.4119   -0.1684    1.6993 C   0  0  0  0  0  0  0  0  0  0  0  0
    1.8505   -1.5407    2.0128 C   0  0  0  0  0  0  0  0  0  0  0  0
    0.6794   -1.6878    2.7422 C   0  0  0  0  0  0  0  0  0  0  0  0
    0.1579   -2.9452    2.9845 C   0  0  0  0  0  0  0  0  0  0  0  0
    0.7838   -4.0840    2.4967 C   0  0  0  0  0  0  0  0  0  0  0  0
    0.1892   -5.4448    2.7174 C   0  0  0  0  0  0  0  0  0  0  0  0
   -0.7601   -5.8030    1.5721 C   0  0  0  0  0  0  0  0  0  0  0  0
    1.9475   -3.9301    1.7541 C   0  0  0  0  0  0  0  0  0  0  0  0
    2.4763   -2.6765    1.5145 C   0  0  0  0  0  0  0  0  0  0  0  0
    3.9312   -0.1666    1.7112 C   0  0  0  0  0  0  0  0  0  0  0  0
    4.6747    0.4490    0.7154 C   0  0  0  0  0  0  0  0  0  0  0  0
    6.0567    0.4601    0.7811 C   0  0  0  0  0  0  0  0  0  0  0  0
    6.7276   -0.1334    1.8412 C   0  0  0  0  0  0  0  0  0  0  0  0
    8.2258   -0.0835    1.9281 C   0  0  0  0  0  0  0  0  0  0  0  0
    8.6766    1.1725    2.6765 C   0  0  0  0  0  0  0  0  0  0  0  0
    5.9763   -0.7339    2.8441 C   0  0  0  0  0  0  0  0  0  0  0  0
    4.5968   -0.7511    2.7823 C   0  0  0  0  0  0  0  0  0  0  0  0
    1.9572    0.9126    2.6429 C   0  0  0  0  0  0  0  0  0  0  0  0
    1.9833    1.1601    4.0125 C   0  0  0  0  0  0  0  0  0  0  0  0
    2.4942    0.2643    5.4098 S   0  0  0  0  0  0  0  0  0  0  0  0
    0.9564   -1.6343   -4.0379 S   0  0  0  0  0  0  0  0  0  0  0  0
   -0.1073   -1.0396   -5.2779 C   0  0  0  0  0  0  0  0  0  0  0  0
   -0.6786   -1.5833   -6.4210 C   0  0  0  0  0  0  0  0  0  0  0  0
   -1.5919   -0.7048   -7.0061 C   0  0  0  0  0  0  0  0  0  0  0  0
   -1.7366    0.8117   -6.1782 S   0  0  0  0  0  0  0  0  0  0  0  0
   -0.5880    0.2584   -4.9996 C   0  0  0  0  0  0  0  0  0  0  0  0
   -2.2066   -1.3357   -8.1069 C   0  0  0  0  0  0  0  0  0  0  0  0
   -3.4569   -1.0061   -9.2253 S   0  0  0  0  0  0  0  0  0  0  0  0
   -3.2557   -2.6153   -9.9163 C   0  0  0  0  0  0  0  0  0  0  0  0
   -2.2378   -3.3346   -9.2629 C   0  0  0  0  0  0  0  0  0  0  0  0
   -1.6519   -2.6235   -8.2476 C   0  0  0  0  0  0  0  0  0  0  0  0
   -0.5945   -2.8753   -7.1963 C   0  0  0  0  0  0  0  0  0  0  0  0
    0.8156   -2.9847   -7.7533 C   0  0  0  0  0  0  0  0  0  0  0  0
    1.8390   -3.4119   -6.9163 C   0  0  0  0  0  0  0  0  0  0  0  0
    3.1372   -3.4891   -7.3814 C   0  0  0  0  0  0  0  0  0  0  0  0
    3.4484   -3.1374   -8.6888 C   0  0  0  0  0  0  0  0  0  0  0  0
    4.8493   -3.2721   -9.2114 C   0  0  0  0  0  0  0  0  0  0  0  0
    5.0437   -4.6406   -9.8677 C   0  0  0  0  0  0  0  0  0  0  0  0
    2.4224   -2.7029   -9.5167 C   0  0  0  0  0  0  0  0  0  0  0  0
    1.1208   -2.6205   -9.0561 C   0  0  0  0  0  0  0  0  0  0  0  0
   -0.9605   -4.1090   -6.3936 C   0  0  0  0  0  0  0  0  0  0  0  0
   -0.6479   -5.3646   -6.8995 C   0  0  0  0  0  0  0  0  0  0  0  0
   -0.9787   -6.5058   -6.1953 C   0  0  0  0  0  0  0  0  0  0  0  0
   -1.6272   -6.4247   -4.9693 C   0  0  0  0  0  0  0  0  0  0  0  0
   -2.0105   -7.6666   -4.2177 C   0  0  0  0  0  0  0  0  0  0  0  0
   -3.4181   -8.1181   -4.6125 C   0  0  0  0  0  0  0  0  0  0  0  0
   -1.9541   -5.1684   -4.4785 C   0  0  0  0  0  0  0  0  0  0  0  0
   -1.6313   -4.0226   -5.1829 C   0  0  0  0  0  0  0  0  0  0  0  0
   -3.9887   -3.1727  -10.9642 C   0  0  0  0  0  0  0  0  0  0  0  0
   -5.0554   -2.6743  -11.6789 C   0  0  0  0  0  0  0  0  0  0  0  0
   -5.7048   -1.3814  -11.4528 C   0  0  0  0  0  0  0  0  0  0  0  0
   -5.3718   -0.5081  -10.6716 O   0  0  0  0  0  0  0  0  0  0  0  0
   -6.8660   -1.3426  -12.3671 C   0  0  0  0  0  0  0  0  0  0  0  0
   -7.8226   -0.3629  -12.5143 C   0  0  0  0  0  0  0  0  0  0  0  0
   -8.8449   -0.5720  -13.4428 C   0  0  0  0  0  0  0  0  0  0  0  0
   -9.8830    0.4806  -13.5921 C   0  0  0  0  0  0  0  0  0  0  0  0
   -9.8900    1.5177  -12.9773 O   0  0  0  0  0  0  0  0  0  0  0  0
  -10.8227    0.1507  -14.4894 O   0  0  0  0  0  0  0  0  0  0  0  0
  -11.8545    1.1061  -14.6843 C   0  0  0  0  0  0  0  0  0  0  0  0
   -8.8796   -1.7441  -14.1959 C   0  0  0  0  0  0  0  0  0  0  0  0
   -7.9116   -2.7264  -14.0474 C   0  0  0  0  0  0  0  0  0  0  0  0
   -6.8956   -2.5274  -13.1252 C   0  0  0  0  0  0  0  0  0  0  0  0
   -5.7595   -3.3652  -12.7349 C   0  0  0  0  0  0  0  0  0  0  0  0
   -5.4404   -4.5727  -13.3057 C   0  0  0  0  0  0  0  0  0  0  0  0
   -4.3389   -5.3825  -12.9615 C   0  0  0  0  0  0  0  0  0  0  0  0
   -3.4671   -6.1014  -12.7519 N   0  0  0  0  0  0  0  0  0  0  0  0
   -6.1747   -5.1780  -14.3461 C   0  0  0  0  0  0  0  0  0  0  0  0
   -6.7209   -5.7288  -15.1932 N   0  0  0  0  0  0  0  0  0  0  0  0
    0.9578    3.1244   12.0592 H   0  0  0  0  0  0  0  0  0  0  0  0
    2.1258    0.1334   16.3798 H   0  0  0  0  0  0  0  0  0  0  0  0
    3.9670   -3.8704   18.7807 H   0  0  0  0  0  0  0  0  0  0  0  0
    2.2685   -3.8983   19.2938 H   0  0  0  0  0  0  0  0  0  0  0  0
    2.9589   -5.3106   18.4342 H   0  0  0  0  0  0  0  0  0  0  0  0
    1.9696   -3.9024   14.9667 H   0  0  0  0  0  0  0  0  0  0  0  0
    1.2395   -3.1450   12.7411 H   0  0  0  0  0  0  0  0  0  0  0  0
    0.2459    4.1007    9.6921 H   0  0  0  0  0  0  0  0  0  0  0  0
    3.1105    4.3252    5.5243 H   0  0  0  0  0  0  0  0  0  0  0  0
    4.2005    6.5152    5.5848 H   0  0  0  0  0  0  0  0  0  0  0  0
    3.9687    8.9339    5.9108 H   0  0  0  0  0  0  0  0  0  0  0  0
    2.6044    9.5914    6.8262 H   0  0  0  0  0  0  0  0  0  0  0  0
    3.6121    8.7289    8.9408 H   0  0  0  0  0  0  0  0  0  0  0  0
    4.9720    8.0757    8.0284 H   0  0  0  0  0  0  0  0  0  0  0  0
    4.7209    9.8230    8.1071 H   0  0  0  0  0  0  0  0  0  0  0  0
    0.9413    8.0876    7.8406 H   0  0  0  0  0  0  0  0  0  0  0  0
   -0.1639    5.8966    7.7681 H   0  0  0  0  0  0  0  0  0  0  0  0
   -1.4433    2.2542    7.7368 H   0  0  0  0  0  0  0  0  0  0  0  0
   -3.7806    2.3932    7.0594 H   0  0  0  0  0  0  0  0  0  0  0  0
   -4.9734    4.1758    4.0721 H   0  0  0  0  0  0  0  0  0  0  0  0
   -5.4051    3.0216    5.3425 H   0  0  0  0  0  0  0  0  0  0  0  0
   -5.0893    6.0378    5.7313 H   0  0  0  0  0  0  0  0  0  0  0  0
   -5.5198    4.8859    6.9954 H   0  0  0  0  0  0  0  0  0  0  0  0
   -6.6245    5.1669    5.6454 H   0  0  0  0  0  0  0  0  0  0  0  0
   -2.7723    5.2962    4.0993 H   0  0  0  0  0  0  0  0  0  0  0  0
   -0.4226    5.1780    4.7870 H   0  0  0  0  0  0  0  0  0  0  0  0
    0.0503    3.1827   -0.3250 H   0  0  0  0  0  0  0  0  0  0  0  0
   -1.3233    4.3794   -2.2230 H   0  0  0  0  0  0  0  0  0  0  0  0
   -3.6335    4.9019   -1.5964 H   0  0  0  0  0  0  0  0  0  0  0  0
   -5.8171    4.0837   -0.8676 H   0  0  0  0  0  0  0  0  0  0  0  0
   -6.2600    2.3835   -1.0794 H   0  0  0  0  0  0  0  0  0  0  0  0
   -7.5837    3.8338   -2.6009 H   0  0  0  0  0  0  0  0  0  0  0  0
   -6.0950    4.4599   -3.3179 H   0  0  0  0  0  0  0  0  0  0  0  0
   -6.5296    2.7651   -3.5330 H   0  0  0  0  0  0  0  0  0  0  0  0
   -4.7344    0.8347   -2.2490 H   0  0  0  0  0  0  0  0  0  0  0  0
   -2.4240    0.3016   -2.8510 H   0  0  0  0  0  0  0  0  0  0  0  0
   -1.2420    3.3389   -5.0506 H   0  0  0  0  0  0  0  0  0  0  0  0
   -0.1951    5.1447   -6.3356 H   0  0  0  0  0  0  0  0  0  0  0  0
    1.4808    6.9372   -6.3806 H   0  0  0  0  0  0  0  0  0  0  0  0
    2.8900    6.8794   -5.3119 H   0  0  0  0  0  0  0  0  0  0  0  0
    2.4464    5.0875   -7.7492 H   0  0  0  0  0  0  0  0  0  0  0  0
    3.5508    6.4648   -7.6714 H   0  0  0  0  0  0  0  0  0  0  0  0
    3.8510    5.0297   -6.6849 H   0  0  0  0  0  0  0  0  0  0  0  0
    3.2223    4.9733   -3.7903 H   0  0  0  0  0  0  0  0  0  0  0  0
    2.1876    3.1593   -2.5136 H   0  0  0  0  0  0  0  0  0  0  0  0
    2.2017   -1.3037   -0.9537 H   0  0  0  0  0  0  0  0  0  0  0  0
    0.1673   -0.8171    3.1257 H   0  0  0  0  0  0  0  0  0  0  0  0
   -0.7494   -3.0410    3.5637 H   0  0  0  0  0  0  0  0  0  0  0  0
    0.9836   -6.1917    2.7728 H   0  0  0  0  0  0  0  0  0  0  0  0
   -0.3614   -5.4602    3.6599 H   0  0  0  0  0  0  0  0  0  0  0  0
   -1.1902   -6.7895    1.7289 H   0  0  0  0  0  0  0  0  0  0  0  0
   -1.5677   -5.0769    1.5102 H   0  0  0  0  0  0  0  0  0  0  0  0
   -0.2266   -5.8022    0.6239 H   0  0  0  0  0  0  0  0  0  0  0  0
    2.4491   -4.8033    1.3615 H   0  0  0  0  0  0  0  0  0  0  0  0
    3.3898   -2.5794    0.9452 H   0  0  0  0  0  0  0  0  0  0  0  0
    4.1761    0.9182   -0.1201 H   0  0  0  0  0  0  0  0  0  0  0  0
    6.6215    0.9361   -0.0080 H   0  0  0  0  0  0  0  0  0  0  0  0
    8.5955   -0.9666    2.4530 H   0  0  0  0  0  0  0  0  0  0  0  0
    8.6551   -0.0775    0.9242 H   0  0  0  0  0  0  0  0  0  0  0  0
    9.7615    1.2077    2.7424 H   0  0  0  0  0  0  0  0  0  0  0  0
    8.3304    2.0651    2.1600 H   0  0  0  0  0  0  0  0  0  0  0  0
    8.2664    1.1800    3.6839 H   0  0  0  0  0  0  0  0  0  0  0  0
    6.4774   -1.1974    3.6818 H   0  0  0  0  0  0  0  0  0  0  0  0
    4.0285   -1.2304    3.5664 H   0  0  0  0  0  0  0  0  0  0  0  0
   -1.9794   -4.3384   -9.5502 H   0  0  0  0  0  0  0  0  0  0  0  0
    1.6142   -3.6923   -5.8973 H   0  0  0  0  0  0  0  0  0  0  0  0
    3.9207   -3.8256   -6.7177 H   0  0  0  0  0  0  0  0  0  0  0  0
    5.5627   -3.1604   -8.3925 H   0  0  0  0  0  0  0  0  0  0  0  0
    5.0471   -2.4896   -9.9470 H   0  0  0  0  0  0  0  0  0  0  0  0
    4.8605   -5.4346   -9.1471 H   0  0  0  0  0  0  0  0  0  0  0  0
    6.0584   -4.7410  -10.2456 H   0  0  0  0  0  0  0  0  0  0  0  0
    4.3503   -4.7647  -10.6964 H   0  0  0  0  0  0  0  0  0  0  0  0
    2.6428   -2.4214  -10.5365 H   0  0  0  0  0  0  0  0  0  0  0  0
    0.3416   -2.2746   -9.7191 H   0  0  0  0  0  0  0  0  0  0  0  0
   -0.1308   -5.4455   -7.8446 H   0  0  0  0  0  0  0  0  0  0  0  0
   -0.7234   -7.4745   -6.6005 H   0  0  0  0  0  0  0  0  0  0  0  0
   -1.9831   -7.4723   -3.1435 H   0  0  0  0  0  0  0  0  0  0  0  0
   -1.3012   -8.4665   -4.4391 H   0  0  0  0  0  0  0  0  0  0  0  0
   -3.6922   -9.0228   -4.0749 H   0  0  0  0  0  0  0  0  0  0  0  0
   -4.1437   -7.3419   -4.3800 H   0  0  0  0  0  0  0  0  0  0  0  0
   -3.4647   -8.3205   -5.6802 H   0  0  0  0  0  0  0  0  0  0  0  0
   -2.4646   -5.0823   -3.5298 H   0  0  0  0  0  0  0  0  0  0  0  0
   -1.9028   -3.0580   -4.7799 H   0  0  0  0  0  0  0  0  0  0  0  0
   -3.6603   -4.1721  -11.2233 H   0  0  0  0  0  0  0  0  0  0  0  0
   -7.7955    0.5441  -11.9299 H   0  0  0  0  0  0  0  0  0  0  0  0
  -11.4331    2.0577  -15.0147 H   0  0  0  0  0  0  0  0  0  0  0  0
  -12.4006    1.2697  -13.7530 H   0  0  0  0  0  0  0  0  0  0  0  0
  -12.5113    0.6927  -15.4454 H   0  0  0  0  0  0  0  0  0  0  0  0
   -9.6786   -1.8861  -14.9064 H   0  0  0  0  0  0  0  0  0  0  0  0
   -7.9668   -3.6231  -14.6424 H   0  0  0  0  0  0  0  0  0  0  0  0
  1  2  2  0  0  0  0
  2  3  1  0  0  0  0
  3  4  2  0  0  0  0
  3  5  1  0  0  0  0
  5  6  2  0  0  0  0
  6  7  1  0  0  0  0
  7  8  1  0  0  0  0
  8  9  2  0  0  0  0
  8 10  1  0  0  0  0
 10 11  1  0  0  0  0
  7 12  2  0  0  0  0
 12 13  1  0  0  0  0
 13 14  2  0  0  0  0
 14 15  1  0  0  0  0
 15 16  2  0  0  0  0
 16 17  1  0  0  0  0
 17 18  3  0  0  0  0
 16 19  1  0  0  0  0
 19 20  3  0  0  0  0
  1 21  1  0  0  0  0
 21 22  1  0  0  0  0
 22 23  1  0  0  0  0
 23 24  1  0  0  0  0
 24 25  2  0  0  0  0
 25 26  1  0  0  0  0
 26 27  1  0  0  0  0
 27 28  1  0  0  0  0
 26 29  1  0  0  0  0
 29 30  2  0  0  0  0
 30 31  1  0  0  0  0
 31 32  2  0  0  0  0
 32 33  1  0  0  0  0
 33 34  1  0  0  0  0
 32 35  1  0  0  0  0
 35 36  2  0  0  0  0
 26 37  1  0  0  0  0
 37 38  2  0  0  0  0
 38 39  1  0  0  0  0
 39 40  2  0  0  0  0
 40 41  1  0  0  0  0
 41 42  1  0  0  0  0
 40 43  1  0  0  0  0
 43 44  2  0  0  0  0
 25 45  1  0  0  0  0
 45 46  1  0  0  0  0
 46 47  1  0  0  0  0
 47 48  1  0  0  0  0
 48 49  2  0  0  0  0
 49 50  1  0  0  0  0
 50 51  1  0  0  0  0
 51 52  1  0  0  0  0
 52 53  2  0  0  0  0
 53 54  1  0  0  0  0
 54 55  2  0  0  0  0
 55 56  1  0  0  0  0
 56 57  1  0  0  0  0
 55 58  1  0  0  0  0
 58 59  2  0  0  0  0
 51 60  1  0  0  0  0
 60 61  2  0  0  0  0
 61 62  1  0  0  0  0
 62 63  2  0  0  0  0
 63 64  1  0  0  0  0
 64 65  1  0  0  0  0
 63 66  1  0  0  0  0
 66 67  2  0  0  0  0
 51 68  1  0  0  0  0
 68 69  2  0  0  0  0
 69 70  1  0  0  0  0
 70 71  1  0  0  0  0
 71 72  2  0  0  0  0
 72 73  1  0  0  0  0
 73 74  1  0  0  0  0
 74 75  2  0  0  0  0
 75 76  1  0  0  0  0
 76 77  2  0  0  0  0
 77 78  1  0  0  0  0
 78 79  1  0  0  0  0
 77 80  1  0  0  0  0
 80 81  2  0  0  0  0
 73 82  1  0  0  0  0
 82 83  2  0  0  0  0
 83 84  1  0  0  0  0
 84 85  2  0  0  0  0
 85 86  1  0  0  0  0
 86 87  1  0  0  0  0
 85 88  1  0  0  0  0
 88 89  2  0  0  0  0
 73 90  1  0  0  0  0
 90 91  1  0  0  0  0
 91 92  1  0  0  0  0
 69 93  1  0  0  0  0
 93 94  1  0  0  0  0
 94 95  1  0  0  0  0
 95 96  2  0  0  0  0
 96 97  1  0  0  0  0
 97 98  1  0  0  0  0
 96 99  1  0  0  0  0
 99100  1  0  0  0  0
100101  1  0  0  0  0
101102  2  0  0  0  0
102103  1  0  0  0  0
103104  1  0  0  0  0
104105  1  0  0  0  0
105106  2  0  0  0  0
106107  1  0  0  0  0
107108  2  0  0  0  0
108109  1  0  0  0  0
109110  1  0  0  0  0
108111  1  0  0  0  0
111112  2  0  0  0  0
104113  1  0  0  0  0
113114  2  0  0  0  0
114115  1  0  0  0  0
115116  2  0  0  0  0
116117  1  0  0  0  0
117118  1  0  0  0  0
116119  1  0  0  0  0
119120  2  0  0  0  0
101121  1  0  0  0  0
121122  2  0  0  0  0
122123  1  0  0  0  0
123124  2  0  0  0  0
123125  1  0  0  0  0
125126  2  0  0  0  0
126127  1  0  0  0  0
127128  1  0  0  0  0
128129  2  0  0  0  0
128130  1  0  0  0  0
130131  1  0  0  0  0
127132  2  0  0  0  0
132133  1  0  0  0  0
133134  2  0  0  0  0
134135  1  0  0  0  0
135136  2  0  0  0  0
136137  1  0  0  0  0
137138  3  0  0  0  0
136139  1  0  0  0  0
139140  3  0  0  0  0
 15  2  1  0  0  0  0
 28 21  2  0  0  0  0
 36 29  1  0  0  0  0
 44 37  1  0  0  0  0
 91 45  2  0  0  0  0
 98 94  2  0  0  0  0
103 99  2  0  0  0  0
112105  1  0  0  0  0
120113  1  0  0  0  0
135122  1  0  0  0  0
 14  5  1  0  0  0  0
 27 23  2  0  0  0  0
 90 47  2  0  0  0  0
104 95  1  0  0  0  0
134125  1  0  0  0  0
 92 24  1  0  0  0  0
 72 48  1  0  0  0  0
 81 74  1  0  0  0  0
 89 82  1  0  0  0  0
 70 50  2  0  0  0  0
 59 52  1  0  0  0  0
 67 60  1  0  0  0  0
 98 68  1  0  0  0  0
  1141  1  0  0  0  0
  6142  1  0  0  0  0
 11143  1  0  0  0  0
 11144  1  0  0  0  0
 11145  1  0  0  0  0
 12146  1  0  0  0  0
 13147  1  0  0  0  0
 28148  1  0  0  0  0
 30149  1  0  0  0  0
 31150  1  0  0  0  0
 33151  1  0  0  0  0
 33152  1  0  0  0  0
 34153  1  0  0  0  0
 34154  1  0  0  0  0
 34155  1  0  0  0  0
 35156  1  0  0  0  0
 36157  1  0  0  0  0
 38158  1  0  0  0  0
 39159  1  0  0  0  0
 41160  1  0  0  0  0
 41161  1  0  0  0  0
 42162  1  0  0  0  0
 42163  1  0  0  0  0
 42164  1  0  0  0  0
 43165  1  0  0  0  0
 44166  1  0  0  0  0
 49167  1  0  0  0  0
 53168  1  0  0  0  0
 54169  1  0  0  0  0
 56170  1  0  0  0  0
 56171  1  0  0  0  0
 57172  1  0  0  0  0
 57173  1  0  0  0  0
 57174  1  0  0  0  0
 58175  1  0  0  0  0
 59176  1  0  0  0  0
 61177  1  0  0  0  0
 62178  1  0  0  0  0
 64179  1  0  0  0  0
 64180  1  0  0  0  0
 65181  1  0  0  0  0
 65182  1  0  0  0  0
 65183  1  0  0  0  0
 66184  1  0  0  0  0
 67185  1  0  0  0  0
 71186  1  0  0  0  0
 75187  1  0  0  0  0
 76188  1  0  0  0  0
 78189  1  0  0  0  0
 78190  1  0  0  0  0
 79191  1  0  0  0  0
 79192  1  0  0  0  0
 79193  1  0  0  0  0
 80194  1  0  0  0  0
 81195  1  0  0  0  0
 83196  1  0  0  0  0
 84197  1  0  0  0  0
 86198  1  0  0  0  0
 86199  1  0  0  0  0
 87200  1  0  0  0  0
 87201  1  0  0  0  0
 87202  1  0  0  0  0
 88203  1  0  0  0  0
 89204  1  0  0  0  0
102205  1  0  0  0  0
106206  1  0  0  0  0
107207  1  0  0  0  0
109208  1  0  0  0  0
109209  1  0  0  0  0
110210  1  0  0  0  0
110211  1  0  0  0  0
110212  1  0  0  0  0
111213  1  0  0  0  0
112214  1  0  0  0  0
114215  1  0  0  0  0
115216  1  0  0  0  0
117217  1  0  0  0  0
117218  1  0  0  0  0
118219  1  0  0  0  0
118220  1  0  0  0  0
118221  1  0  0  0  0
119222  1  0  0  0  0
120223  1  0  0  0  0
121224  1  0  0  0  0
126225  1  0  0  0  0
131226  1  0  0  0  0
131227  1  0  0  0  0
131228  1  0  0  0  0
132229  1  0  0  0  0
133230  1  0  0  0  0
M  END
