174

C         -6.65230       -4.46470       -5.59130
C         -7.39100       -5.57460       -5.29620
C         -7.62480       -6.59860       -6.34640
O         -7.47960       -6.46570       -7.53950
C         -8.00230       -7.82380       -5.60230
C         -8.17730       -9.10790       -6.06960
C         -8.48790      -10.11120       -5.14880
C         -8.65690      -11.49700       -5.65900
O         -8.56580      -11.80630       -6.82060
O         -8.91670      -12.37690       -4.68170
C         -9.08260      -13.72540       -5.09400
C         -8.62010       -9.80950       -3.79390
C         -8.45440       -8.51470       -3.32590
C         -8.14230       -7.51660       -4.23470
C         -7.92200       -6.08270       -4.05480
C         -8.40340       -5.32520       -3.01810
C         -8.43500       -3.91570       -3.06280
N         -8.52700       -2.77210       -3.10260
C         -9.00750       -5.86280       -1.86580
N         -9.49570       -6.25700       -0.90430
C         -5.88480       -3.64470       -4.74400
S         -5.47080       -4.10580       -3.08840
C         -4.43360       -2.74380       -2.95390
C         -3.54830       -2.13360       -2.07530
S         -2.92900       -2.34720       -0.47200
C         -1.90610       -0.97480       -0.73160
C         -0.89190       -0.34870        0.05460
C         -0.46470       -0.59690        1.35670
C          0.57960        0.16010        1.83020
C          1.22860        0.13480        3.21150
C          0.27880        0.75620        4.23100
C          0.16770        0.30060        5.53500
C         -0.68230        0.94610        6.42220
C         -1.42250        2.03750        6.02600
C         -1.31620        2.50900        4.71540
O         -2.08060        3.58380        4.39960
C         -2.03480        4.09660        3.08210
C         -2.99790        5.27050        3.00700
C         -0.45810        1.86750        3.83270
C          1.64840       -1.28780        3.50790
C          2.94190       -1.71490        3.25290
C          3.28730       -3.04120        3.46710
C          2.35380       -3.94580        3.92160
C          1.03980       -3.53360        4.15570
O          0.18310       -4.49400        4.58330
C         -1.17500       -4.16290        4.80200
C         -1.89510       -5.42910        5.23680
C          0.69600       -2.20460        3.94280
C          2.37650        1.10230        3.00750
C          2.29740        1.66350        1.74120
C          1.20030        1.12330        1.00500
C          0.73650        1.40950       -0.27530
C         -0.32390        0.67010       -0.74040
C         -1.02010        0.75680       -2.09540
C         -1.77190        2.07200       -2.22380
C         -2.46760        2.55400       -1.11750
C         -3.20130        3.71830       -1.21600
C         -3.26780        4.42520       -2.40570
C         -2.58590        3.94980       -3.51940
O         -2.58060        4.51480       -4.75590
C         -3.25220        5.73980       -4.97780
C         -2.46710        6.94330       -4.46480
C         -1.84200        2.77110       -3.41480
C          0.03440        0.51340       -3.15840
C          0.20970       -0.74290       -3.71750
C          1.22000       -0.95260       -4.64470
C          2.06350        0.07300       -5.00850
C          1.91760        1.33650       -4.43080
O          2.79660        2.27960       -4.85890
C          2.84890        3.54260       -4.22480
C          3.55330        3.48840       -2.87220
C          0.90220        1.54410       -3.50540
C         -2.02420       -0.37040       -1.97340
C         -2.99600       -1.01080       -2.75340
N         -3.55660       -0.91500       -3.99790
C         -4.41920       -1.97090       -4.14200
C         -5.22730       -2.48770       -5.14490
C         -3.34970        0.10520       -4.99540
C         -2.36290       -0.33260       -6.07440
S          3.55350        2.78480        1.34360
C          4.23520        2.51100        2.91280
C          5.33930        2.90410        3.66070
S          6.76120        3.86550        3.55640
C          7.20480        3.37950        5.19600
C          6.26340        2.51400        5.76970
C          5.22260        2.23210        4.90870
N          4.09000        1.45690        4.92380
C          3.66820        0.65030        6.04090
C          4.51680       -0.60930        6.19460
C          3.48230        1.60120        3.70570
C          8.35810        3.75700        5.89020
C          9.43230        4.52310        5.50230
C          9.61320        5.14310        4.18660
O          8.83320        5.15160        3.25170
C         10.95160        5.76910        4.21170
C         11.60300        6.44720        3.20440
C         12.88150        6.93980        3.46920
C         13.66460        7.67620        2.44310
O         14.76630        8.13060        2.62890
O         13.01120        7.78080        1.27920
C         13.69660        8.47020        0.24470
C         13.46350        6.74490        4.72140
C         12.80380        6.06360        5.73260
C         11.53380        5.56820        5.47660
C         10.59790        4.81040        6.30990
C         10.81630        4.46340        7.61990
C          9.92430        3.74780        8.44470
N          9.26070        3.17110        9.18500
C         11.98260        4.78700        8.34430
N         12.89900        5.01330        8.99810
H         -6.54360       -4.25920       -6.65230
H         -8.07510       -9.34650       -7.11730
H         -8.17770      -14.08440       -5.58870
H         -9.27810      -14.29740       -4.19070
H         -9.91880      -13.80880       -5.79110
H         -8.85370      -10.60330       -3.10200
H         -8.55280       -8.30250       -2.27310
H         -0.94270       -1.36040        1.94900
H          0.72060       -0.56510        5.86760
H         -0.76430        0.58440        7.43620
H         -2.08920        2.54340        6.70550
H         -2.32810        3.31820        2.36340
H         -1.01500        4.42800        2.84050
H         -2.98070        5.69660        2.00780
H         -2.70930        6.03300        3.72510
H         -4.00630        4.94020        3.24020
H         -0.35450        2.22470        2.82090
H          3.67920       -1.02160        2.87740
H          4.29790       -3.36830        3.27210
H          2.60740       -4.97930        4.09340
H         -1.62220       -3.77350        3.87670
H         -1.25560       -3.39310        5.58270
H         -2.94350       -5.21250        5.42040
H         -1.44530       -5.81870        6.14580
H         -1.81720       -6.18480        4.46030
H         -0.31250       -1.86640        4.11950
H          1.20490        2.18500       -0.85890
H         -2.43410        2.01320       -0.18390
H         -3.73740        4.08730       -0.35410
H         -3.85420        5.32880       -2.44670
H         -4.25810        5.71300       -4.54180
H         -3.35100        5.79910       -6.06520
H         -1.48810        6.97280       -4.93640
H         -2.32820        6.88900       -3.38770
H         -3.00200        7.85760       -4.70580
H         -1.31630        2.43870       -4.29700
H         -0.42970       -1.56360       -3.43070
H          1.34620       -1.93120       -5.08330
H          2.85070       -0.07440       -5.73010
H          3.42170        4.16700       -4.91600
H          1.84400        3.97250       -4.12870
H          3.04110        2.81300       -2.19120
H          3.58250        4.48020       -2.42990
H          4.57110        3.12940       -3.00010
H          0.76340        2.51230       -3.05250
H         -5.35760       -2.06550       -6.12470
H         -4.32050        0.32890       -5.44870
H         -2.98900        1.00270       -4.49130
H         -2.70700       -1.24300       -6.55940
H         -1.38230       -0.51600       -5.64200
H         -2.27180        0.44890       -6.82340
H          6.37910        2.12820        6.76670
H          3.74200        1.26010        6.94760
H          2.62270        0.38670        5.88430
H          4.20130       -1.15690        7.07820
H          4.39960       -1.25440        5.32770
H          5.56750       -0.35140        6.30150
H          8.39970        3.34390        6.89080
H         11.13630        6.58750        2.24260
H         14.61560        7.94210       -0.01820
H         13.01700        8.50000       -0.60290
H         13.95450        9.48070        0.56840
H         14.45430        7.14050        4.88740
H         13.28340        5.92810        6.68790
