
  xtb     02112202593D
 energy: -191.855929746641 gnorm: 0.000719096581 xtb: 6.4.1 (unknown)
107120  0     0  0            999 V2000
   -6.0656   -0.4200   -5.3620 C   0  0  0  0  0  0  0  0  0  0  0  0
   -7.4186   -0.5610   -5.2989 C   0  0  0  0  0  0  0  0  0  0  0  0
   -8.2503   -0.3874   -6.5178 C   0  0  0  0  0  0  0  0  0  0  0  0
   -7.9034    0.0934   -7.5714 O   0  0  0  0  0  0  0  0  0  0  0  0
   -9.5683   -0.9639   -6.1653 C   0  0  0  0  0  0  0  0  0  0  0  0
  -10.6676   -1.1495   -6.9789 C   0  0  0  0  0  0  0  0  0  0  0  0
  -11.7996   -1.7236   -6.4071 C   0  0  0  0  0  0  0  0  0  0  0  0
  -12.9829   -1.9064   -7.0934 O   0  0  0  0  0  0  0  0  0  0  0  0
  -13.0109   -2.2504   -8.4022 C   0  0  0  0  0  0  0  0  0  0  0  0
  -12.0414   -2.5036   -9.0573 O   0  0  0  0  0  0  0  0  0  0  0  0
  -14.4335   -2.2783   -8.8853 C   0  0  0  0  0  0  0  0  0  0  0  0
  -11.8128   -2.0938   -5.0626 C   0  0  0  0  0  0  0  0  0  0  0  0
  -10.7092   -1.8955   -4.2511 C   0  0  0  0  0  0  0  0  0  0  0  0
   -9.5747   -1.3223   -4.8052 C   0  0  0  0  0  0  0  0  0  0  0  0
   -8.2968   -0.9383   -4.2120 C   0  0  0  0  0  0  0  0  0  0  0  0
   -8.0898   -0.6789   -2.8803 C   0  0  0  0  0  0  0  0  0  0  0  0
   -6.9536    0.0011   -2.3950 C   0  0  0  0  0  0  0  0  0  0  0  0
   -6.0748    0.6081   -1.9717 N   0  0  0  0  0  0  0  0  0  0  0  0
   -9.0327   -0.9585   -1.8715 C   0  0  0  0  0  0  0  0  0  0  0  0
   -9.7691   -1.1705   -1.0168 N   0  0  0  0  0  0  0  0  0  0  0  0
   -5.0875   -0.8959   -4.4564 C   0  0  0  0  0  0  0  0  0  0  0  0
   -5.3214   -2.4656   -3.3840 Se  0  0  0  0  0  2  0  0  0  0  0  0
   -3.6237   -2.1183   -2.7583 C   0  0  0  0  0  0  0  0  0  0  0  0
   -2.6753   -2.6475   -1.8764 C   0  0  0  0  0  0  0  0  0  0  0  0
   -2.6602   -3.8649   -1.1639 C   0  0  0  0  0  0  0  0  0  0  0  0
   -1.4841   -4.2266   -0.4292 C   0  0  0  0  0  0  0  0  0  0  0  0
   -1.5882   -5.4223    0.1287 N   0  0  0  0  0  0  0  0  0  0  0  0
   -3.0413   -6.0359   -0.2348 S   0  0  0  0  0  0  0  0  0  0  0  0
   -3.5966   -4.7987   -1.1237 N   0  0  0  0  0  0  0  0  0  0  0  0
   -0.4334   -3.2855   -0.3278 C   0  0  0  0  0  0  0  0  0  0  0  0
    0.7321   -3.2848    0.4506 C   0  0  0  0  0  0  0  0  0  0  0  0
    1.5821   -4.3275    1.5379 S   0  0  0  0  0  0  0  0  0  0  0  0
    2.7290   -3.0324    1.8328 C   0  0  0  0  0  0  0  0  0  0  0  0
    3.8439   -2.9385    2.6558 C   0  0  0  0  0  0  0  0  0  0  0  0
    4.2925   -4.0545    3.5418 C   0  0  0  0  0  0  0  0  0  0  0  0
    3.7139   -3.8975    4.9508 C   0  0  0  0  0  0  0  0  0  0  0  0
    4.4264   -1.6614    2.5848 C   0  0  0  0  0  0  0  0  0  0  0  0
    3.5736   -0.6015    1.4619 S   0  0  0  0  0  0  0  0  0  0  0  0
    2.4521   -1.8609    1.1085 C   0  0  0  0  0  0  0  0  0  0  0  0
    1.3158   -2.0196    0.3104 C   0  0  0  0  0  0  0  0  0  0  0  0
    0.5856   -1.2558   -0.5616 N   0  0  0  0  0  0  0  0  0  0  0  0
   -0.4957   -2.0153   -0.9758 C   0  0  0  0  0  0  0  0  0  0  0  0
   -1.5644   -1.7580   -1.8726 C   0  0  0  0  0  0  0  0  0  0  0  0
   -1.8105   -0.7599   -2.7935 N   0  0  0  0  0  0  0  0  0  0  0  0
   -3.0570   -0.9675   -3.3289 C   0  0  0  0  0  0  0  0  0  0  0  0
   -3.8328   -0.3328   -4.2992 C   0  0  0  0  0  0  0  0  0  0  0  0
   -0.8960    0.1578   -3.4334 C   0  0  0  0  0  0  0  0  0  0  0  0
   -1.1979    1.6148   -3.0863 C   0  0  0  0  0  0  0  0  0  0  0  0
    0.7170    0.1845   -0.4917 C   0  0  0  0  0  0  0  0  0  0  0  0
   -0.3199    0.7797    0.4581 C   0  0  0  0  0  0  0  0  0  0  0  0
    5.5461   -1.2931    3.3394 C   0  0  0  0  0  0  0  0  0  0  0  0
    6.2054   -0.0942    3.4446 C   0  0  0  0  0  0  0  0  0  0  0  0
    5.8605    1.1506    2.7536 C   0  0  0  0  0  0  0  0  0  0  0  0
    4.9760    1.3248    1.9307 O   0  0  0  0  0  0  0  0  0  0  0  0
    6.7974    2.1733    3.2460 C   0  0  0  0  0  0  0  0  0  0  0  0
    6.8362    3.5182    2.8847 C   0  0  0  0  0  0  0  0  0  0  0  0
    7.8169    4.2395    3.5220 C   0  0  0  0  0  0  0  0  0  0  0  0
    8.6964    3.6645    4.4488 C   0  0  0  0  0  0  0  0  0  0  0  0
    8.6731    2.3376    4.8082 C   0  0  0  0  0  0  0  0  0  0  0  0
    7.6809    1.5845    4.1729 C   0  0  0  0  0  0  0  0  0  0  0  0
    7.3489    0.1654    4.2972 C   0  0  0  0  0  0  0  0  0  0  0  0
    8.0263   -0.7395    5.0753 C   0  0  0  0  0  0  0  0  0  0  0  0
    7.7359   -2.1151    5.1852 C   0  0  0  0  0  0  0  0  0  0  0  0
    7.5693   -3.2430    5.3312 N   0  0  0  0  0  0  0  0  0  0  0  0
    9.1385   -0.4249    5.8838 C   0  0  0  0  0  0  0  0  0  0  0  0
   10.0449   -0.2505    6.5670 N   0  0  0  0  0  0  0  0  0  0  0  0
    9.4085    4.9697    4.7036 C   0  0  0  0  0  0  0  0  0  0  0  0
    9.0526    5.7052    6.0130 C   0  0  0  0  0  0  0  0  0  0  0  0
    9.5095    7.1249    5.7658 C   0  0  0  0  0  0  0  0  0  0  0  0
    8.6774    7.6696    4.8875 C   0  0  0  0  0  0  0  0  0  0  0  0
    7.6440    6.6271    4.5260 C   0  0  0  0  0  0  0  0  0  0  0  0
    7.5363    5.8871    5.8656 C   0  0  0  0  0  0  0  0  0  0  0  0
    8.4284    5.6106    3.6692 C   0  0  0  0  0  0  0  0  0  0  0  0
   -5.6937    0.0735   -6.2561 H   0  0  0  0  0  0  0  0  0  0  0  0
  -10.6350   -0.8561   -8.0156 H   0  0  0  0  0  0  0  0  0  0  0  0
  -14.8000   -1.2562   -8.9594 H   0  0  0  0  0  0  0  0  0  0  0  0
  -14.4775   -2.7504   -9.8617 H   0  0  0  0  0  0  0  0  0  0  0  0
  -15.0582   -2.8117   -8.1741 H   0  0  0  0  0  0  0  0  0  0  0  0
  -12.7110   -2.5376   -4.6624 H   0  0  0  0  0  0  0  0  0  0  0  0
  -10.7407   -2.1968   -3.2166 H   0  0  0  0  0  0  0  0  0  0  0  0
    5.3811   -4.0970    3.5994 H   0  0  0  0  0  0  0  0  0  0  0  0
    3.9358   -4.9935    3.1138 H   0  0  0  0  0  0  0  0  0  0  0  0
    4.0472   -2.9661    5.4028 H   0  0  0  0  0  0  0  0  0  0  0  0
    2.6270   -3.8971    4.9154 H   0  0  0  0  0  0  0  0  0  0  0  0
    4.0431   -4.7213    5.5776 H   0  0  0  0  0  0  0  0  0  0  0  0
   -3.5414    0.5485   -4.8440 H   0  0  0  0  0  0  0  0  0  0  0  0
    0.1256   -0.1224   -3.1732 H   0  0  0  0  0  0  0  0  0  0  0  0
   -1.0011    0.0235   -4.5165 H   0  0  0  0  0  0  0  0  0  0  0  0
   -1.1590    1.7865   -2.0151 H   0  0  0  0  0  0  0  0  0  0  0  0
   -0.4771    2.2656   -3.5745 H   0  0  0  0  0  0  0  0  0  0  0  0
   -2.1941    1.8824   -3.4270 H   0  0  0  0  0  0  0  0  0  0  0  0
    0.6358    0.6358   -1.4765 H   0  0  0  0  0  0  0  0  0  0  0  0
    1.7215    0.3891   -0.1136 H   0  0  0  0  0  0  0  0  0  0  0  0
   -1.3297    0.5631    0.1148 H   0  0  0  0  0  0  0  0  0  0  0  0
   -0.1994    0.3600    1.4541 H   0  0  0  0  0  0  0  0  0  0  0  0
   -0.1893    1.8565    0.5205 H   0  0  0  0  0  0  0  0  0  0  0  0
    5.9299   -2.0985    3.9501 H   0  0  0  0  0  0  0  0  0  0  0  0
    6.1403    3.9186    2.1641 H   0  0  0  0  0  0  0  0  0  0  0  0
    9.3602    1.9125    5.5202 H   0  0  0  0  0  0  0  0  0  0  0  0
   10.4749    4.9787    4.4867 H   0  0  0  0  0  0  0  0  0  0  0  0
    9.4146    5.2248    6.9177 H   0  0  0  0  0  0  0  0  0  0  0  0
   10.3938    7.5544    6.1987 H   0  0  0  0  0  0  0  0  0  0  0  0
    8.7277    8.6448    4.4398 H   0  0  0  0  0  0  0  0  0  0  0  0
    6.7223    6.9869    4.0765 H   0  0  0  0  0  0  0  0  0  0  0  0
    6.9800    4.9530    5.8135 H   0  0  0  0  0  0  0  0  0  0  0  0
    7.1192    6.5159    6.6505 H   0  0  0  0  0  0  0  0  0  0  0  0
    8.8414    6.0474    2.7618 H   0  0  0  0  0  0  0  0  0  0  0  0
  1  2  2  0  0  0  0
  2  3  1  0  0  0  0
  3  4  2  0  0  0  0
  3  5  1  0  0  0  0
  5  6  2  0  0  0  0
  6  7  1  0  0  0  0
  7  8  1  0  0  0  0
  8  9  1  0  0  0  0
  9 10  2  0  0  0  0
  9 11  1  0  0  0  0
  7 12  2  0  0  0  0
 12 13  1  0  0  0  0
 13 14  2  0  0  0  0
 14 15  1  0  0  0  0
 15 16  2  0  0  0  0
 16 17  1  0  0  0  0
 17 18  3  0  0  0  0
 16 19  1  0  0  0  0
 19 20  3  0  0  0  0
  1 21  1  0  0  0  0
 21 22  1  0  0  0  0
 22 23  1  0  0  0  0
 23 24  1  0  0  0  0
 24 25  1  0  0  0  0
 25 26  1  0  0  0  0
 26 27  2  0  0  0  0
 27 28  1  0  0  0  0
 28 29  1  0  0  0  0
 26 30  1  0  0  0  0
 30 31  1  0  0  0  0
 31 32  1  0  0  0  0
 32 33  1  0  0  0  0
 33 34  1  0  0  0  0
 34 35  1  0  0  0  0
 35 36  1  0  0  0  0
 34 37  2  0  0  0  0
 37 38  1  0  0  0  0
 38 39  1  0  0  0  0
 39 40  1  0  0  0  0
 40 41  1  0  0  0  0
 41 42  1  0  0  0  0
 42 43  1  0  0  0  0
 43 44  1  0  0  0  0
 44 45  1  0  0  0  0
 45 46  1  0  0  0  0
 44 47  1  0  0  0  0
 47 48  1  0  0  0  0
 41 49  1  0  0  0  0
 49 50  1  0  0  0  0
 37 51  1  0  0  0  0
 51 52  2  0  0  0  0
 52 53  1  0  0  0  0
 53 54  2  0  0  0  0
 53 55  1  0  0  0  0
 55 56  2  0  0  0  0
 56 57  1  0  0  0  0
 57 58  2  0  0  0  0
 58 59  1  0  0  0  0
 59 60  2  0  0  0  0
 60 61  1  0  0  0  0
 61 62  2  0  0  0  0
 62 63  1  0  0  0  0
 63 64  3  0  0  0  0
 62 65  1  0  0  0  0
 65 66  3  0  0  0  0
 58 67  1  0  0  0  0
 67 68  1  0  0  0  0
 68 69  1  0  0  0  0
 69 70  2  0  0  0  0
 70 71  1  0  0  0  0
 71 72  1  0  0  0  0
 71 73  1  0  0  0  0
 15  2  1  0  0  0  0
 46 21  2  0  0  0  0
 61 52  1  0  0  0  0
 73 67  1  0  0  0  0
 14  5  1  0  0  0  0
 45 23  2  0  0  0  0
 60 55  1  0  0  0  0
 72 68  1  0  0  0  0
 43 24  2  0  0  0  0
 73 57  1  0  0  0  0
 29 25  2  0  0  0  0
 42 30  2  0  0  0  0
 40 31  2  0  0  0  0
 39 33  2  0  0  0  0
  1 74  1  0  0  0  0
  6 75  1  0  0  0  0
 11 76  1  0  0  0  0
 11 77  1  0  0  0  0
 11 78  1  0  0  0  0
 12 79  1  0  0  0  0
 13 80  1  0  0  0  0
 35 81  1  0  0  0  0
 35 82  1  0  0  0  0
 36 83  1  0  0  0  0
 36 84  1  0  0  0  0
 36 85  1  0  0  0  0
 46 86  1  0  0  0  0
 47 87  1  0  0  0  0
 47 88  1  0  0  0  0
 48 89  1  0  0  0  0
 48 90  1  0  0  0  0
 48 91  1  0  0  0  0
 49 92  1  0  0  0  0
 49 93  1  0  0  0  0
 50 94  1  0  0  0  0
 50 95  1  0  0  0  0
 50 96  1  0  0  0  0
 51 97  1  0  0  0  0
 56 98  1  0  0  0  0
 59 99  1  0  0  0  0
 67100  1  0  0  0  0
 68101  1  0  0  0  0
 69102  1  0  0  0  0
 70103  1  0  0  0  0
 71104  1  0  0  0  0
 72105  1  0  0  0  0
 72106  1  0  0  0  0
 73107  1  0  0  0  0
M  END
