
  xtb     02032200443D
 energy: -205.738832204811 gnorm: 0.000652597608 xtb: 6.4.1 (unknown)
116130  0     0  0            999 V2000
    7.7663   -1.7312    0.2938 C   0  0  0  0  0  0  0  0  0  0  0  0
    7.7631   -2.0470    1.6323 C   0  0  0  0  0  0  0  0  0  0  0  0
    6.6501   -1.8546    2.5632 C   0  0  0  0  0  0  0  0  0  0  0  0
    5.5468   -1.3957    2.3235 O   0  0  0  0  0  0  0  0  0  0  0  0
    7.1301   -2.3258    3.8776 C   0  0  0  0  0  0  0  0  0  0  0  0
    6.4468   -2.3441    5.0760 C   0  0  0  0  0  0  0  0  0  0  0  0
    7.1207   -2.8406    6.1880 C   0  0  0  0  0  0  0  0  0  0  0  0
    6.5781   -2.8721    7.4567 O   0  0  0  0  0  0  0  0  0  0  0  0
    5.2621   -3.0925    7.6790 C   0  0  0  0  0  0  0  0  0  0  0  0
    4.4601   -3.3414    6.8253 O   0  0  0  0  0  0  0  0  0  0  0  0
    4.9784   -2.9940    9.1515 C   0  0  0  0  0  0  0  0  0  0  0  0
    8.4373   -3.2868    6.0810 C   0  0  0  0  0  0  0  0  0  0  0  0
    9.1135   -3.2607    4.8729 C   0  0  0  0  0  0  0  0  0  0  0  0
    8.4539   -2.7776    3.7520 C   0  0  0  0  0  0  0  0  0  0  0  0
    8.8764   -2.6211    2.3605 C   0  0  0  0  0  0  0  0  0  0  0  0
   10.1068   -2.9751    1.8665 C   0  0  0  0  0  0  0  0  0  0  0  0
   10.5312   -2.8387    0.5289 C   0  0  0  0  0  0  0  0  0  0  0  0
   10.9536   -2.7613   -0.5372 N   0  0  0  0  0  0  0  0  0  0  0  0
   11.1373   -3.5414    2.6455 C   0  0  0  0  0  0  0  0  0  0  0  0
   12.0177   -4.0054    3.2180 N   0  0  0  0  0  0  0  0  0  0  0  0
    6.7642   -1.2071   -0.5260 C   0  0  0  0  0  0  0  0  0  0  0  0
    6.9550   -0.9422   -1.8950 C   0  0  0  0  0  0  0  0  0  0  0  0
    8.2390   -1.0960   -2.6423 C   0  0  0  0  0  0  0  0  0  0  0  0
    9.1421    0.1221   -2.4286 C   0  0  0  0  0  0  0  0  0  0  0  0
    5.7964   -0.4550   -2.4824 C   0  0  0  0  0  0  0  0  0  0  0  0
    5.4221    0.0436   -4.1233 S   0  0  0  0  0  0  0  0  0  0  0  0
    3.8064    0.3882   -3.6150 C   0  0  0  0  0  0  0  0  0  0  0  0
    2.6114    0.8876   -4.1477 C   0  0  0  0  0  0  0  0  0  0  0  0
    2.3328    1.4011   -5.4370 C   0  0  0  0  0  0  0  0  0  0  0  0
    1.0342    1.9679   -5.6811 C   0  0  0  0  0  0  0  0  0  0  0  0
    0.8639    2.4720   -6.8876 N   0  0  0  0  0  0  0  0  0  0  0  0
    2.3543    2.2547   -7.8047 Se  0  0  0  0  0  2  0  0  0  0  0  0
    3.1671    1.4607   -6.4563 N   0  0  0  0  0  0  0  0  0  0  0  0
    0.0628    1.8895   -4.6545 C   0  0  0  0  0  0  0  0  0  0  0  0
   -1.2917    2.2508   -4.6659 C   0  0  0  0  0  0  0  0  0  0  0  0
   -2.4375    3.0012   -5.7187 S   0  0  0  0  0  0  0  0  0  0  0  0
   -3.6742    2.7541   -4.5067 C   0  0  0  0  0  0  0  0  0  0  0  0
   -5.0412    3.0509   -4.4790 C   0  0  0  0  0  0  0  0  0  0  0  0
   -5.7521    3.7876   -5.5630 C   0  0  0  0  0  0  0  0  0  0  0  0
   -5.8704    5.2718   -5.2079 C   0  0  0  0  0  0  0  0  0  0  0  0
   -5.6199    2.6686   -3.2763 C   0  0  0  0  0  0  0  0  0  0  0  0
   -4.4576    1.8943   -2.1982 S   0  0  0  0  0  0  0  0  0  0  0  0
   -3.1980    2.1194   -3.3527 C   0  0  0  0  0  0  0  0  0  0  0  0
   -1.8320    1.8399   -3.4418 C   0  0  0  0  0  0  0  0  0  0  0  0
   -0.8585    1.2716   -2.6672 N   0  0  0  0  0  0  0  0  0  0  0  0
    0.3245    1.2971   -3.3853 C   0  0  0  0  0  0  0  0  0  0  0  0
    1.6525    0.8847   -3.0912 C   0  0  0  0  0  0  0  0  0  0  0  0
    2.2730    0.4266   -1.9442 N   0  0  0  0  0  0  0  0  0  0  0  0
    3.5723    0.1316   -2.2584 C   0  0  0  0  0  0  0  0  0  0  0  0
    4.7076   -0.3462   -1.5989 C   0  0  0  0  0  0  0  0  0  0  0  0
    5.1215   -0.8320    0.0009 S   0  0  0  0  0  0  0  0  0  0  0  0
    1.8946    0.5523   -0.5534 C   0  0  0  0  0  0  0  0  0  0  0  0
    1.6945    2.0136   -0.1599 C   0  0  0  0  0  0  0  0  0  0  0  0
   -1.2333    0.5049   -1.5005 C   0  0  0  0  0  0  0  0  0  0  0  0
   -1.0688   -0.9938   -1.7403 C   0  0  0  0  0  0  0  0  0  0  0  0
   -6.9870    2.7534   -2.9319 C   0  0  0  0  0  0  0  0  0  0  0  0
   -7.5588    2.6771   -1.6995 C   0  0  0  0  0  0  0  0  0  0  0  0
   -8.9810    2.2704   -1.5548 C   0  0  0  0  0  0  0  0  0  0  0  0
   -9.8179    2.2335   -2.4289 O   0  0  0  0  0  0  0  0  0  0  0  0
   -9.1227    1.8623   -0.1424 C   0  0  0  0  0  0  0  0  0  0  0  0
  -10.2316    1.2708    0.4582 C   0  0  0  0  0  0  0  0  0  0  0  0
  -10.0551    0.9692    1.7874 C   0  0  0  0  0  0  0  0  0  0  0  0
   -8.8637    1.2353    2.4763 C   0  0  0  0  0  0  0  0  0  0  0  0
   -7.7655    1.8300    1.9019 C   0  0  0  0  0  0  0  0  0  0  0  0
   -7.9251    2.1421    0.5503 C   0  0  0  0  0  0  0  0  0  0  0  0
   -7.0023    2.7979   -0.3706 C   0  0  0  0  0  0  0  0  0  0  0  0
   -5.9586    3.6142   -0.0170 C   0  0  0  0  0  0  0  0  0  0  0  0
   -5.3151    4.4618   -0.9427 C   0  0  0  0  0  0  0  0  0  0  0  0
   -4.8128    5.1976   -1.6671 N   0  0  0  0  0  0  0  0  0  0  0  0
   -5.4756    3.7645    1.2963 C   0  0  0  0  0  0  0  0  0  0  0  0
   -5.0215    3.9019    2.3421 N   0  0  0  0  0  0  0  0  0  0  0  0
   -9.3835    0.6484    3.7642 C   0  0  0  0  0  0  0  0  0  0  0  0
   -8.8967   -0.7680    4.1591 C   0  0  0  0  0  0  0  0  0  0  0  0
   -8.5439   -1.4755    2.8742 C   0  0  0  0  0  0  0  0  0  0  0  0
   -9.6735   -1.7240    2.2252 C   0  0  0  0  0  0  0  0  0  0  0  0
  -10.8108   -1.1888    3.0595 C   0  0  0  0  0  0  0  0  0  0  0  0
  -10.2488   -1.4297    4.4697 C   0  0  0  0  0  0  0  0  0  0  0  0
  -10.7123    0.3558    2.9987 C   0  0  0  0  0  0  0  0  0  0  0  0
    8.6926   -1.9178   -0.2318 H   0  0  0  0  0  0  0  0  0  0  0  0
    5.4303   -1.9898    5.1291 H   0  0  0  0  0  0  0  0  0  0  0  0
    5.1347   -1.9675    9.4767 H   0  0  0  0  0  0  0  0  0  0  0  0
    5.6648   -3.6312    9.7028 H   0  0  0  0  0  0  0  0  0  0  0  0
    3.9517   -3.2879    9.3452 H   0  0  0  0  0  0  0  0  0  0  0  0
    8.9262   -3.6558    6.9690 H   0  0  0  0  0  0  0  0  0  0  0  0
   10.1300   -3.6145    4.8255 H   0  0  0  0  0  0  0  0  0  0  0  0
    8.0059   -1.1843   -3.7052 H   0  0  0  0  0  0  0  0  0  0  0  0
    8.7690   -1.9979   -2.3322 H   0  0  0  0  0  0  0  0  0  0  0  0
   10.0650   -0.0023   -2.9878 H   0  0  0  0  0  0  0  0  0  0  0  0
    8.6445    1.0264   -2.7710 H   0  0  0  0  0  0  0  0  0  0  0  0
    9.3899    0.2386   -1.3762 H   0  0  0  0  0  0  0  0  0  0  0  0
   -5.1853    3.6778   -6.4896 H   0  0  0  0  0  0  0  0  0  0  0  0
   -6.7494    3.3683   -5.7114 H   0  0  0  0  0  0  0  0  0  0  0  0
   -6.4268    5.3983   -4.2823 H   0  0  0  0  0  0  0  0  0  0  0  0
   -4.8835    5.7063   -5.0726 H   0  0  0  0  0  0  0  0  0  0  0  0
   -6.3825    5.8062   -6.0037 H   0  0  0  0  0  0  0  0  0  0  0  0
    1.0116   -0.0490   -0.3384 H   0  0  0  0  0  0  0  0  0  0  0  0
    2.7170    0.1329    0.0310 H   0  0  0  0  0  0  0  0  0  0  0  0
    0.9342    2.4908   -0.7743 H   0  0  0  0  0  0  0  0  0  0  0  0
    2.6250    2.5619   -0.2866 H   0  0  0  0  0  0  0  0  0  0  0  0
    1.3964    2.0775    0.8828 H   0  0  0  0  0  0  0  0  0  0  0  0
   -0.6749    0.8383   -0.6260 H   0  0  0  0  0  0  0  0  0  0  0  0
   -2.2866    0.7253   -1.3098 H   0  0  0  0  0  0  0  0  0  0  0  0
   -1.7235   -1.3148   -2.5473 H   0  0  0  0  0  0  0  0  0  0  0  0
   -1.3329   -1.5441   -0.8415 H   0  0  0  0  0  0  0  0  0  0  0  0
   -0.0460   -1.2392   -2.0166 H   0  0  0  0  0  0  0  0  0  0  0  0
   -7.6829    2.7907   -3.7648 H   0  0  0  0  0  0  0  0  0  0  0  0
  -11.1326    1.0823   -0.1044 H   0  0  0  0  0  0  0  0  0  0  0  0
   -6.8505    2.0293    2.4359 H   0  0  0  0  0  0  0  0  0  0  0  0
   -9.4227    1.3253    4.6152 H   0  0  0  0  0  0  0  0  0  0  0  0
   -8.1401   -0.7838    4.9390 H   0  0  0  0  0  0  0  0  0  0  0  0
   -7.5367   -1.6655    2.5520 H   0  0  0  0  0  0  0  0  0  0  0  0
   -9.7986   -2.1630    1.2526 H   0  0  0  0  0  0  0  0  0  0  0  0
  -11.7974   -1.5878    2.8388 H   0  0  0  0  0  0  0  0  0  0  0  0
  -10.8102   -0.9225    5.2531 H   0  0  0  0  0  0  0  0  0  0  0  0
  -10.1547   -2.4875    4.7104 H   0  0  0  0  0  0  0  0  0  0  0  0
  -11.6196    0.8440    3.3488 H   0  0  0  0  0  0  0  0  0  0  0  0
  1  2  2  0  0  0  0
  2  3  1  0  0  0  0
  3  4  2  0  0  0  0
  3  5  1  0  0  0  0
  5  6  2  0  0  0  0
  6  7  1  0  0  0  0
  7  8  1  0  0  0  0
  8  9  1  0  0  0  0
  9 10  2  0  0  0  0
  9 11  1  0  0  0  0
  7 12  2  0  0  0  0
 12 13  1  0  0  0  0
 13 14  2  0  0  0  0
 14 15  1  0  0  0  0
 15 16  2  0  0  0  0
 16 17  1  0  0  0  0
 17 18  3  0  0  0  0
 16 19  1  0  0  0  0
 19 20  3  0  0  0  0
  1 21  1  0  0  0  0
 21 22  2  0  0  0  0
 22 23  1  0  0  0  0
 23 24  1  0  0  0  0
 22 25  1  0  0  0  0
 25 26  1  0  0  0  0
 26 27  1  0  0  0  0
 27 28  1  0  0  0  0
 28 29  1  0  0  0  0
 29 30  1  0  0  0  0
 30 31  2  0  0  0  0
 31 32  1  0  0  0  0
 32 33  1  0  0  0  0
 30 34  1  0  0  0  0
 34 35  1  0  0  0  0
 35 36  1  0  0  0  0
 36 37  1  0  0  0  0
 37 38  1  0  0  0  0
 38 39  1  0  0  0  0
 39 40  1  0  0  0  0
 38 41  2  0  0  0  0
 41 42  1  0  0  0  0
 42 43  1  0  0  0  0
 43 44  1  0  0  0  0
 44 45  1  0  0  0  0
 45 46  1  0  0  0  0
 46 47  1  0  0  0  0
 47 48  1  0  0  0  0
 48 49  1  0  0  0  0
 49 50  1  0  0  0  0
 50 51  1  0  0  0  0
 48 52  1  0  0  0  0
 52 53  1  0  0  0  0
 45 54  1  0  0  0  0
 54 55  1  0  0  0  0
 41 56  1  0  0  0  0
 56 57  2  0  0  0  0
 57 58  1  0  0  0  0
 58 59  2  0  0  0  0
 58 60  1  0  0  0  0
 60 61  2  0  0  0  0
 61 62  1  0  0  0  0
 62 63  2  0  0  0  0
 63 64  1  0  0  0  0
 64 65  2  0  0  0  0
 65 66  1  0  0  0  0
 66 67  2  0  0  0  0
 67 68  1  0  0  0  0
 68 69  3  0  0  0  0
 67 70  1  0  0  0  0
 70 71  3  0  0  0  0
 63 72  1  0  0  0  0
 72 73  1  0  0  0  0
 73 74  1  0  0  0  0
 74 75  2  0  0  0  0
 75 76  1  0  0  0  0
 76 77  1  0  0  0  0
 76 78  1  0  0  0  0
 15  2  1  0  0  0  0
 51 21  1  0  0  0  0
 66 57  1  0  0  0  0
 78 72  1  0  0  0  0
 14  5  1  0  0  0  0
 50 25  2  0  0  0  0
 65 60  1  0  0  0  0
 77 73  1  0  0  0  0
 49 27  2  0  0  0  0
 78 62  1  0  0  0  0
 47 28  2  0  0  0  0
 33 29  2  0  0  0  0
 46 34  2  0  0  0  0
 44 35  2  0  0  0  0
 43 37  2  0  0  0  0
  1 79  1  0  0  0  0
  6 80  1  0  0  0  0
 11 81  1  0  0  0  0
 11 82  1  0  0  0  0
 11 83  1  0  0  0  0
 12 84  1  0  0  0  0
 13 85  1  0  0  0  0
 23 86  1  0  0  0  0
 23 87  1  0  0  0  0
 24 88  1  0  0  0  0
 24 89  1  0  0  0  0
 24 90  1  0  0  0  0
 39 91  1  0  0  0  0
 39 92  1  0  0  0  0
 40 93  1  0  0  0  0
 40 94  1  0  0  0  0
 40 95  1  0  0  0  0
 52 96  1  0  0  0  0
 52 97  1  0  0  0  0
 53 98  1  0  0  0  0
 53 99  1  0  0  0  0
 53100  1  0  0  0  0
 54101  1  0  0  0  0
 54102  1  0  0  0  0
 55103  1  0  0  0  0
 55104  1  0  0  0  0
 55105  1  0  0  0  0
 56106  1  0  0  0  0
 61107  1  0  0  0  0
 64108  1  0  0  0  0
 72109  1  0  0  0  0
 73110  1  0  0  0  0
 74111  1  0  0  0  0
 75112  1  0  0  0  0
 76113  1  0  0  0  0
 77114  1  0  0  0  0
 77115  1  0  0  0  0
 78116  1  0  0  0  0
M  END
