
  xtb     02012221003D
 energy: -200.443093400174 gnorm: 0.000833749986 xtb: 6.4.1 (unknown)
103114  0     0  0            999 V2000
    0.0206    2.9717    7.2085 C   0  0  0  0  0  0  0  0  0  0  0  0
    0.9960    2.2692    7.8744 C   0  0  0  0  0  0  0  0  0  0  0  0
    1.8972    1.2736    7.2901 C   0  0  0  0  0  0  0  0  0  0  0  0
    1.9807    0.9377    6.1218 O   0  0  0  0  0  0  0  0  0  0  0  0
    2.7080    0.7506    8.4073 C   0  0  0  0  0  0  0  0  0  0  0  0
    3.6827   -0.2253    8.3664 C   0  0  0  0  0  0  0  0  0  0  0  0
    4.3087   -0.5531    9.5657 C   0  0  0  0  0  0  0  0  0  0  0  0
    5.3264   -1.4791    9.6692 O   0  0  0  0  0  0  0  0  0  0  0  0
    5.3920   -2.5823    8.8896 C   0  0  0  0  0  0  0  0  0  0  0  0
    4.5760   -2.8849    8.0668 O   0  0  0  0  0  0  0  0  0  0  0  0
    6.6162   -3.3782    9.2454 C   0  0  0  0  0  0  0  0  0  0  0  0
    3.9649    0.1000   10.7490 C   0  0  0  0  0  0  0  0  0  0  0  0
    2.9885    1.0812   10.7762 C   0  0  0  0  0  0  0  0  0  0  0  0
    2.3444    1.4111    9.5923 C   0  0  0  0  0  0  0  0  0  0  0  0
    1.2870    2.3750    9.2909 C   0  0  0  0  0  0  0  0  0  0  0  0
    0.7078    3.2205   10.2028 C   0  0  0  0  0  0  0  0  0  0  0  0
    1.0572    3.2679   11.5688 C   0  0  0  0  0  0  0  0  0  0  0  0
    1.2919    3.3608   12.6888 N   0  0  0  0  0  0  0  0  0  0  0  0
   -0.3033    4.1644    9.9283 C   0  0  0  0  0  0  0  0  0  0  0  0
   -1.1232    4.9574    9.7874 N   0  0  0  0  0  0  0  0  0  0  0  0
   -0.3682    2.9524    5.8657 C   0  0  0  0  0  0  0  0  0  0  0  0
   -1.4389    3.7175    5.3686 C   0  0  0  0  0  0  0  0  0  0  0  0
   -2.3241    4.6111    6.1740 C   0  0  0  0  0  0  0  0  0  0  0  0
   -3.4520    3.8094    6.8299 C   0  0  0  0  0  0  0  0  0  0  0  0
   -1.6315    3.4949    4.0119 C   0  0  0  0  0  0  0  0  0  0  0  0
   -2.8087    4.1155    2.8683 S   0  0  0  0  0  0  0  0  0  0  0  0
   -2.0731    3.1492    1.6373 C   0  0  0  0  0  0  0  0  0  0  0  0
   -2.2648    2.8238    0.2883 C   0  0  0  0  0  0  0  0  0  0  0  0
   -3.3037    3.1645   -0.6067 C   0  0  0  0  0  0  0  0  0  0  0  0
   -3.3345    2.5454   -1.8989 C   0  0  0  0  0  0  0  0  0  0  0  0
   -4.3950    2.9018   -2.6061 N   0  0  0  0  0  0  0  0  0  0  0  0
   -5.2770    3.9327   -1.7230 S   0  0  0  0  0  0  0  0  0  0  0  0
   -4.3402    3.9624   -0.4041 N   0  0  0  0  0  0  0  0  0  0  0  0
   -2.2554    1.7187   -2.2831 C   0  0  0  0  0  0  0  0  0  0  0  0
   -1.9558    1.1108   -3.5085 C   0  0  0  0  0  0  0  0  0  0  0  0
   -2.6561    0.9150   -5.0731 S   0  0  0  0  0  0  0  0  0  0  0  0
   -1.2159    0.0665   -5.5945 C   0  0  0  0  0  0  0  0  0  0  0  0
   -0.8646   -0.5573   -6.7960 C   0  0  0  0  0  0  0  0  0  0  0  0
   -1.6581   -0.4772   -8.0548 C   0  0  0  0  0  0  0  0  0  0  0  0
   -2.1684    0.9317   -8.3496 C   0  0  0  0  0  0  0  0  0  0  0  0
    0.3922   -1.1596   -6.6958 C   0  0  0  0  0  0  0  0  0  0  0  0
    1.1581   -0.8562   -5.1329 S   0  0  0  0  0  0  0  0  0  0  0  0
   -0.2479   -0.0347   -4.5784 C   0  0  0  0  0  0  0  0  0  0  0  0
   -0.6778    0.5494   -3.3862 C   0  0  0  0  0  0  0  0  0  0  0  0
   -0.1921    0.7697   -2.1239 N   0  0  0  0  0  0  0  0  0  0  0  0
   -1.1539    1.4624   -1.4139 C   0  0  0  0  0  0  0  0  0  0  0  0
   -1.2262    1.9133   -0.0699 C   0  0  0  0  0  0  0  0  0  0  0  0
   -0.4508    1.6698    1.0515 N   0  0  0  0  0  0  0  0  0  0  0  0
   -0.9728    2.4066    2.0823 C   0  0  0  0  0  0  0  0  0  0  0  0
   -0.7186    2.5888    3.4445 C   0  0  0  0  0  0  0  0  0  0  0  0
    0.3952    1.9782    4.6074 S   0  0  0  0  0  0  0  0  0  0  0  0
    0.3624    0.5183    1.3829 C   0  0  0  0  0  0  0  0  0  0  0  0
   -0.5044   -0.7263    1.5599 C   0  0  0  0  0  0  0  0  0  0  0  0
    1.2163    0.5839   -1.8554 C   0  0  0  0  0  0  0  0  0  0  0  0
    1.5689   -0.8793   -1.5935 C   0  0  0  0  0  0  0  0  0  0  0  0
    1.1453   -1.8994   -7.6199 C   0  0  0  0  0  0  0  0  0  0  0  0
    0.6632   -2.7554   -8.5827 C   0  0  0  0  0  0  0  0  0  0  0  0
   -0.6582   -3.4084   -8.5191 C   0  0  0  0  0  0  0  0  0  0  0  0
   -1.5426   -3.2252   -7.7134 O   0  0  0  0  0  0  0  0  0  0  0  0
   -0.6264   -4.4440   -9.5847 C   0  0  0  0  0  0  0  0  0  0  0  0
    0.6204   -4.4226  -10.2338 C   0  0  0  0  0  0  0  0  0  0  0  0
    0.8991   -5.3123  -11.2570 C   0  0  0  0  0  0  0  0  0  0  0  0
   -0.0875   -6.2183  -11.6197 C   0  0  0  0  0  0  0  0  0  0  0  0
    0.1589   -7.0879  -12.6026 F   0  0  0  0  0  0  0  0  0  0  0  0
   -1.3293   -6.2510  -10.9896 C   0  0  0  0  0  0  0  0  0  0  0  0
   -2.2546   -7.1354  -11.3714 F   0  0  0  0  0  0  0  0  0  0  0  0
   -1.6009   -5.3528   -9.9547 C   0  0  0  0  0  0  0  0  0  0  0  0
   -2.7886   -5.3854   -9.3573 F   0  0  0  0  0  0  0  0  0  0  0  0
    1.4352   -3.3630   -9.6385 C   0  0  0  0  0  0  0  0  0  0  0  0
    2.6751   -2.9673  -10.0720 C   0  0  0  0  0  0  0  0  0  0  0  0
    3.3880   -1.8684   -9.5473 C   0  0  0  0  0  0  0  0  0  0  0  0
    4.0129   -0.9762   -9.1842 N   0  0  0  0  0  0  0  0  0  0  0  0
    3.3856   -3.5891  -11.1190 C   0  0  0  0  0  0  0  0  0  0  0  0
    4.0102   -4.0557  -11.9615 N   0  0  0  0  0  0  0  0  0  0  0  0
   -0.5673    3.6493    7.8123 H   0  0  0  0  0  0  0  0  0  0  0  0
    3.9303   -0.7096    7.4361 H   0  0  0  0  0  0  0  0  0  0  0  0
    6.4067   -3.9573   10.1432 H   0  0  0  0  0  0  0  0  0  0  0  0
    6.8557   -4.0595    8.4347 H   0  0  0  0  0  0  0  0  0  0  0  0
    7.4504   -2.7141    9.4524 H   0  0  0  0  0  0  0  0  0  0  0  0
    4.4815   -0.1775   11.6545 H   0  0  0  0  0  0  0  0  0  0  0  0
    2.7456    1.5629   11.7087 H   0  0  0  0  0  0  0  0  0  0  0  0
   -1.7579    5.1371    6.9438 H   0  0  0  0  0  0  0  0  0  0  0  0
   -2.7602    5.3536    5.5027 H   0  0  0  0  0  0  0  0  0  0  0  0
   -4.0910    4.4751    7.4027 H   0  0  0  0  0  0  0  0  0  0  0  0
   -4.0536    3.3132    6.0719 H   0  0  0  0  0  0  0  0  0  0  0  0
   -3.0484    3.0557    7.5021 H   0  0  0  0  0  0  0  0  0  0  0  0
   -1.0382   -0.8178   -8.8866 H   0  0  0  0  0  0  0  0  0  0  0  0
   -2.5039   -1.1669   -7.9725 H   0  0  0  0  0  0  0  0  0  0  0  0
   -2.6426    0.9462   -9.3275 H   0  0  0  0  0  0  0  0  0  0  0  0
   -1.3444    1.6420   -8.3556 H   0  0  0  0  0  0  0  0  0  0  0  0
   -2.8995    1.2514   -7.6131 H   0  0  0  0  0  0  0  0  0  0  0  0
    0.8661    0.7503    2.3244 H   0  0  0  0  0  0  0  0  0  0  0  0
    1.1256    0.3445    0.6313 H   0  0  0  0  0  0  0  0  0  0  0  0
   -1.0421   -0.9561    0.6418 H   0  0  0  0  0  0  0  0  0  0  0  0
   -1.2314   -0.5681    2.3528 H   0  0  0  0  0  0  0  0  0  0  0  0
    0.1187   -1.5746    1.8288 H   0  0  0  0  0  0  0  0  0  0  0  0
    1.5045    1.2343   -1.0286 H   0  0  0  0  0  0  0  0  0  0  0  0
    1.7663    0.9201   -2.7418 H   0  0  0  0  0  0  0  0  0  0  0  0
    1.4128   -1.4659   -2.4947 H   0  0  0  0  0  0  0  0  0  0  0  0
    2.6152   -0.9594   -1.3119 H   0  0  0  0  0  0  0  0  0  0  0  0
    0.9563   -1.3040   -0.8036 H   0  0  0  0  0  0  0  0  0  0  0  0
    2.2206   -1.8308   -7.4994 H   0  0  0  0  0  0  0  0  0  0  0  0
    1.8428   -5.3345  -11.7763 H   0  0  0  0  0  0  0  0  0  0  0  0
  1  2  2  0  0  0  0
  2  3  1  0  0  0  0
  3  4  2  0  0  0  0
  3  5  1  0  0  0  0
  5  6  2  0  0  0  0
  6  7  1  0  0  0  0
  7  8  1  0  0  0  0
  8  9  1  0  0  0  0
  9 10  2  0  0  0  0
  9 11  1  0  0  0  0
  7 12  2  0  0  0  0
 12 13  1  0  0  0  0
 13 14  2  0  0  0  0
 14 15  1  0  0  0  0
 15 16  2  0  0  0  0
 16 17  1  0  0  0  0
 17 18  3  0  0  0  0
 16 19  1  0  0  0  0
 19 20  3  0  0  0  0
  1 21  1  0  0  0  0
 21 22  2  0  0  0  0
 22 23  1  0  0  0  0
 23 24  1  0  0  0  0
 22 25  1  0  0  0  0
 25 26  1  0  0  0  0
 26 27  1  0  0  0  0
 27 28  1  0  0  0  0
 28 29  1  0  0  0  0
 29 30  1  0  0  0  0
 30 31  2  0  0  0  0
 31 32  1  0  0  0  0
 32 33  1  0  0  0  0
 30 34  1  0  0  0  0
 34 35  1  0  0  0  0
 35 36  1  0  0  0  0
 36 37  1  0  0  0  0
 37 38  1  0  0  0  0
 38 39  1  0  0  0  0
 39 40  1  0  0  0  0
 38 41  2  0  0  0  0
 41 42  1  0  0  0  0
 42 43  1  0  0  0  0
 43 44  1  0  0  0  0
 44 45  1  0  0  0  0
 45 46  1  0  0  0  0
 46 47  1  0  0  0  0
 47 48  1  0  0  0  0
 48 49  1  0  0  0  0
 49 50  1  0  0  0  0
 50 51  1  0  0  0  0
 48 52  1  0  0  0  0
 52 53  1  0  0  0  0
 45 54  1  0  0  0  0
 54 55  1  0  0  0  0
 41 56  1  0  0  0  0
 56 57  2  0  0  0  0
 57 58  1  0  0  0  0
 58 59  2  0  0  0  0
 58 60  1  0  0  0  0
 60 61  2  0  0  0  0
 61 62  1  0  0  0  0
 62 63  2  0  0  0  0
 63 64  1  0  0  0  0
 63 65  1  0  0  0  0
 65 66  1  0  0  0  0
 65 67  2  0  0  0  0
 67 68  1  0  0  0  0
 61 69  1  0  0  0  0
 69 70  2  0  0  0  0
 70 71  1  0  0  0  0
 71 72  3  0  0  0  0
 70 73  1  0  0  0  0
 73 74  3  0  0  0  0
 15  2  1  0  0  0  0
 51 21  1  0  0  0  0
 69 57  1  0  0  0  0
 14  5  1  0  0  0  0
 50 25  2  0  0  0  0
 67 60  1  0  0  0  0
 49 27  2  0  0  0  0
 47 28  2  0  0  0  0
 33 29  2  0  0  0  0
 46 34  2  0  0  0  0
 44 35  2  0  0  0  0
 43 37  2  0  0  0  0
  1 75  1  0  0  0  0
  6 76  1  0  0  0  0
 11 77  1  0  0  0  0
 11 78  1  0  0  0  0
 11 79  1  0  0  0  0
 12 80  1  0  0  0  0
 13 81  1  0  0  0  0
 23 82  1  0  0  0  0
 23 83  1  0  0  0  0
 24 84  1  0  0  0  0
 24 85  1  0  0  0  0
 24 86  1  0  0  0  0
 39 87  1  0  0  0  0
 39 88  1  0  0  0  0
 40 89  1  0  0  0  0
 40 90  1  0  0  0  0
 40 91  1  0  0  0  0
 52 92  1  0  0  0  0
 52 93  1  0  0  0  0
 53 94  1  0  0  0  0
 53 95  1  0  0  0  0
 53 96  1  0  0  0  0
 54 97  1  0  0  0  0
 54 98  1  0  0  0  0
 55 99  1  0  0  0  0
 55100  1  0  0  0  0
 55101  1  0  0  0  0
 56102  1  0  0  0  0
 62103  1  0  0  0  0
M  END
