152

C         -4.58220        6.07400        1.74430
C         -4.16500        7.38240        1.80110
C         -2.82880        7.88600        1.46750
O         -1.84940        7.24500        1.13480
C         -2.89830        9.35450        1.62020
C         -1.90180       10.28180        1.39480
C         -2.21450       11.62090        1.61000
O         -1.29970       12.64510        1.46370
C         -0.37250       12.64240        0.47850
O         -0.28720       11.80310       -0.37110
C          0.50230       13.85780        0.60770
C         -3.48290       11.99430        2.05050
C         -4.47450       11.05410        2.27500
C         -4.18470        9.71580        2.05210
C         -4.99640        8.50620        2.18220
C         -6.30240        8.47810        2.60350
C         -7.10120        7.32590        2.75210
N         -7.81900        6.44070        2.90330
C         -7.04190        9.62410        2.96280
N         -7.70220       10.51200        3.27000
C         -3.90000        4.90410        1.39660
C         -4.51880        3.63910        1.39310
C         -5.92850        3.34910        1.79400
C         -6.04840        3.22710        3.31570
C         -3.62250        2.65070        1.01690
S         -3.77540        0.92180        0.81760
C         -2.11120        0.85540        0.34880
C         -1.20620       -0.18180       -0.03700
C         -1.39950       -1.55080       -0.20320
C         -0.31120       -2.29640       -0.59160
C         -0.23820       -3.79400       -0.83610
C         -0.71260       -4.52950        0.40120
C         -2.06390       -4.80320        0.57030
C         -2.51240       -5.44090        1.71100
C         -1.62750       -5.81740        2.71320
C         -2.10930       -6.55760        3.92710
C         -2.04310       -8.06790        3.69220
C         -0.27940       -5.53380        2.54260
C          0.17410       -4.89220        1.40500
C         -0.98620       -4.24620       -2.07970
C         -1.45220       -3.34800       -3.02810
C         -2.08390       -3.80580       -4.17070
C         -2.25610       -5.16390       -4.39910
C         -2.90100       -5.65460       -5.66310
C         -1.85400       -5.82470       -6.76580
C         -1.77210       -6.05860       -3.45270
C         -1.14530       -5.60800       -2.30770
C          1.22950       -3.96020       -1.12420
C          1.86910       -2.73320       -1.12460
C          0.95080       -1.68830       -0.79170
C          1.14060       -0.31790       -0.64110
C          0.05060        0.42970       -0.25990
C         -0.02730        1.92990       -0.03850
C          0.33580        2.62720       -1.33720
C          1.66700        2.89400       -1.63040
C          2.01450        3.49710       -2.82370
C          1.04540        3.84930       -3.75440
C          1.42890        4.46900       -5.06690
C          1.67640        3.38390       -6.11680
C         -0.28200        3.56970       -3.46100
C         -0.63480        2.96250       -2.26990
C          0.81250        2.43950        1.11920
C          0.97640        3.81110        1.27480
C          1.69340        4.31300        2.34250
C          2.26250        3.46240        3.28240
C          3.09070        4.00980        4.40890
C          4.54820        4.16530        3.96980
C          2.08640        2.09480        3.12660
C          1.36290        1.58520        2.06270
C         -1.47400        2.08440        0.34370
C         -2.32550        3.11870        0.72720
S         -2.20060        4.82160        0.92090
S          3.56000       -2.81640       -1.47470
C          3.42220       -4.54660       -1.63470
C          4.36670       -5.54160       -1.91350
C          5.81650       -5.22380       -2.03310
C          6.66630       -5.94040       -0.98430
C          3.76310       -6.79860       -1.92760
S          2.03540       -6.71020       -1.52730
C          2.11110       -4.99870       -1.41900
C          4.23440       -8.11180       -2.12540
C          5.29840       -8.62470       -2.81110
C          6.19990       -8.03170       -3.79990
O          6.13320       -6.93870       -4.32790
C          7.18020       -9.09820       -4.14180
C          8.27510       -9.03670       -4.98010
C          9.03640      -10.18820       -5.15160
Cl        10.41290      -10.14460       -6.17960
C          8.69350      -11.37710       -4.49930
Cl         9.64870      -12.78670       -4.73490
C          7.58460      -11.43510       -3.66140
C          6.83710      -10.28730       -3.48990
C          5.62250      -10.06140       -2.66580
O          5.02850      -10.87730       -1.99760
H         -5.61760        5.90230        2.00540
H         -0.92800        9.96520        1.05830
H         -0.11340       14.75380        0.59570
H          1.02970       13.82300        1.55820
H          1.21410       13.88220       -0.21130
H         -3.68060       13.04210        2.21470
H         -5.44580       11.37740        2.61060
H         -6.22690        2.40340        1.33630
H         -6.60610        4.12730        1.43990
H         -7.07500        2.99840        3.58660
H         -5.76540        4.15850        3.79980
H         -5.40250        2.43340        3.68450
H         -2.36630       -1.99850       -0.03240
H         -2.76740       -4.52730       -0.20210
H         -3.56670       -5.64910        1.82480
H         -3.13940       -6.27300        4.14990
H         -1.48940       -6.30010        4.78810
H         -1.02110       -8.37330        3.47940
H         -2.66590       -8.34660        2.84520
H         -2.39090       -8.60540        4.57130
H          0.42620       -5.81560        3.31120
H          1.22730       -4.67500        1.30000
H         -1.32620       -2.28580       -2.87770
H         -2.44860       -3.09260       -4.89630
H         -3.39060       -6.61320       -5.48110
H         -3.65810       -4.94060       -5.99360
H         -1.09750       -6.54440       -6.46130
H         -2.32070       -6.17750       -7.68250
H         -1.36100       -4.87670       -6.96890
H         -1.88820       -7.12080       -3.61280
H         -0.78040       -6.31770       -1.57900
H          2.10810        0.12880       -0.81040
H          2.43470        2.64320       -0.91270
H          3.05450        3.70330       -3.03310
H          0.63050        5.12880       -5.41200
H          2.33550        5.06480       -4.94430
H          2.47730        2.72180       -5.79520
H          1.95550        3.83070       -7.06820
H          0.77870        2.78710       -6.26290
H         -1.05240        3.83420       -4.17130
H         -1.67540        2.75490       -2.06690
H          0.54350        4.48910        0.55420
H          1.80740        5.38190        2.44820
H          2.70160        4.98310        4.71460
H          3.04280        3.33670        5.26730
H          5.15140        4.56330        4.78250
H          4.95790        3.20260        3.67200
H          4.61650        4.84290        3.12170
H          2.51540        1.41540        3.84960
H          1.23060        0.51680        1.97020
H          6.16180       -5.50620       -3.03210
H          5.93800       -4.14360       -1.92390
H          6.34170       -5.66880        0.01840
H          6.59190       -7.01950       -1.08990
H          7.70870       -5.65500       -1.09910
H          3.62220       -8.87650       -1.64940
H          8.53680       -8.12110       -5.48680
H          7.31710      -12.35290       -3.16190
