
  xtb     02022212583D
 energy: -235.592497140005 gnorm: 0.000568073241 xtb: 6.4.1 (unknown)
136152  0     0  0            999 V2000
    3.6087   -5.1981   -4.6554 C   0  0  0  0  0  0  0  0  0  0  0  0
    3.9784   -6.4148   -5.1636 C   0  0  0  0  0  0  0  0  0  0  0  0
    4.0906   -7.6838   -4.4091 C   0  0  0  0  0  0  0  0  0  0  0  0
    4.2071   -7.8241   -3.2109 O   0  0  0  0  0  0  0  0  0  0  0  0
    4.1998   -8.7399   -5.4395 C   0  0  0  0  0  0  0  0  0  0  0  0
    4.1345  -10.1069   -5.2763 C   0  0  0  0  0  0  0  0  0  0  0  0
    4.2236  -10.8928   -6.4197 C   0  0  0  0  0  0  0  0  0  0  0  0
    4.1623  -12.2761   -6.3502 O   0  0  0  0  0  0  0  0  0  0  0  0
    3.1155  -12.8633   -5.7336 C   0  0  0  0  0  0  0  0  0  0  0  0
    2.1722  -12.2636   -5.2987 O   0  0  0  0  0  0  0  0  0  0  0  0
    3.3050  -14.3525   -5.6926 C   0  0  0  0  0  0  0  0  0  0  0  0
    4.4111  -10.3190   -7.6732 C   0  0  0  0  0  0  0  0  0  0  0  0
    4.4878   -8.9440   -7.8251 C   0  0  0  0  0  0  0  0  0  0  0  0
    4.3640   -8.1424   -6.6995 C   0  0  0  0  0  0  0  0  0  0  0  0
    4.3230   -6.6878   -6.5436 C   0  0  0  0  0  0  0  0  0  0  0  0
    4.5409   -5.7799   -7.5488 C   0  0  0  0  0  0  0  0  0  0  0  0
    4.4975   -4.3773   -7.4116 C   0  0  0  0  0  0  0  0  0  0  0  0
    4.4814   -3.2289   -7.3817 N   0  0  0  0  0  0  0  0  0  0  0  0
    4.8708   -6.1330   -8.8737 C   0  0  0  0  0  0  0  0  0  0  0  0
    5.1460   -6.3508   -9.9670 N   0  0  0  0  0  0  0  0  0  0  0  0
    2.9634   -4.9206   -3.4343 C   0  0  0  0  0  0  0  0  0  0  0  0
    2.1543   -5.6988   -2.6024 C   0  0  0  0  0  0  0  0  0  0  0  0
    1.7095   -7.0564   -2.8977 C   0  0  0  0  0  0  0  0  0  0  0  0
    1.7606   -8.0338   -1.9098 C   0  0  0  0  0  0  0  0  0  0  0  0
    1.4275   -9.3413   -2.2189 C   0  0  0  0  0  0  0  0  0  0  0  0
    1.0541   -9.6832   -3.5042 C   0  0  0  0  0  0  0  0  0  0  0  0
    0.9748   -8.7108   -4.4980 C   0  0  0  0  0  0  0  0  0  0  0  0
    0.5410   -9.0828   -5.8858 C   0  0  0  0  0  0  0  0  0  0  0  0
   -0.9783   -8.9719   -6.0241 C   0  0  0  0  0  0  0  0  0  0  0  0
    1.2841   -7.3997   -4.1794 C   0  0  0  0  0  0  0  0  0  0  0  0
    1.7364   -4.9751   -1.4782 C   0  0  0  0  0  0  0  0  0  0  0  0
    0.7196   -5.3926   -0.1178 S   0  0  0  0  0  0  0  0  0  0  0  0
    0.8685   -3.7701    0.4631 C   0  0  0  0  0  0  0  0  0  0  0  0
    0.4009   -2.9717    1.5202 C   0  0  0  0  0  0  0  0  0  0  0  0
   -0.3347   -3.2637    2.6914 C   0  0  0  0  0  0  0  0  0  0  0  0
   -0.6091   -2.2039    3.6238 C   0  0  0  0  0  0  0  0  0  0  0  0
   -1.2511   -2.6329    4.6981 N   0  0  0  0  0  0  0  0  0  0  0  0
   -1.4953   -4.2262    4.5519 S   0  0  0  0  0  0  0  0  0  0  0  0
   -0.7919   -4.4331    3.1086 N   0  0  0  0  0  0  0  0  0  0  0  0
   -0.2758   -0.8746    3.2730 C   0  0  0  0  0  0  0  0  0  0  0  0
   -0.6381    0.3590    3.8331 C   0  0  0  0  0  0  0  0  0  0  0  0
   -1.4845    0.9754    5.2114 S   0  0  0  0  0  0  0  0  0  0  0  0
   -1.3222    2.5908    4.5491 C   0  0  0  0  0  0  0  0  0  0  0  0
   -1.8044    3.8316    4.9599 C   0  0  0  0  0  0  0  0  0  0  0  0
   -2.5903    4.0320    6.1752 C   0  0  0  0  0  0  0  0  0  0  0  0
   -2.1480    3.4875    7.3786 C   0  0  0  0  0  0  0  0  0  0  0  0
   -2.8798    3.6864    8.5331 C   0  0  0  0  0  0  0  0  0  0  0  0
   -4.0548    4.4161    8.4985 C   0  0  0  0  0  0  0  0  0  0  0  0
   -4.5243    4.9471    7.3034 C   0  0  0  0  0  0  0  0  0  0  0  0
   -5.8267    5.6908    7.2566 C   0  0  0  0  0  0  0  0  0  0  0  0
   -6.9967    4.7177    7.1009 C   0  0  0  0  0  0  0  0  0  0  0  0
   -3.7886    4.7417    6.1474 C   0  0  0  0  0  0  0  0  0  0  0  0
   -1.4647    4.8475    4.0458 C   0  0  0  0  0  0  0  0  0  0  0  0
   -0.5704    4.2218    2.6627 S   0  0  0  0  0  0  0  0  0  0  0  0
   -0.6319    2.6314    3.3276 C   0  0  0  0  0  0  0  0  0  0  0  0
   -0.2321    1.3517    2.9310 C   0  0  0  0  0  0  0  0  0  0  0  0
    0.4103    0.7857    1.8612 N   0  0  0  0  0  0  0  0  0  0  0  0
    0.4047   -0.5830    2.0569 C   0  0  0  0  0  0  0  0  0  0  0  0
    0.8831   -1.6581    1.2714 C   0  0  0  0  0  0  0  0  0  0  0  0
    1.6936   -1.6753    0.1517 N   0  0  0  0  0  0  0  0  0  0  0  0
    1.6651   -2.9522   -0.3503 C   0  0  0  0  0  0  0  0  0  0  0  0
    2.1664   -3.6399   -1.4569 C   0  0  0  0  0  0  0  0  0  0  0  0
    3.1153   -3.2621   -2.8428 S   0  0  0  0  0  0  0  0  0  0  0  0
    2.8160   -0.8003   -0.1111 C   0  0  0  0  0  0  0  0  0  0  0  0
    4.1433   -1.4773    0.2280 C   0  0  0  0  0  0  0  0  0  0  0  0
    0.5548    1.5372    0.6294 C   0  0  0  0  0  0  0  0  0  0  0  0
   -0.3346    0.9898   -0.4817 C   0  0  0  0  0  0  0  0  0  0  0  0
   -1.7615    6.1969    4.2704 C   0  0  0  0  0  0  0  0  0  0  0  0
   -1.5937    7.2926    3.4602 C   0  0  0  0  0  0  0  0  0  0  0  0
   -1.0331    7.2888    2.1074 C   0  0  0  0  0  0  0  0  0  0  0  0
   -0.5587    6.3421    1.4995 O   0  0  0  0  0  0  0  0  0  0  0  0
   -1.1455    8.6670    1.6050 C   0  0  0  0  0  0  0  0  0  0  0  0
   -0.7647    9.1337    0.3488 C   0  0  0  0  0  0  0  0  0  0  0  0
   -1.0091   10.4716    0.1534 C   0  0  0  0  0  0  0  0  0  0  0  0
   -1.5851   11.2856    1.1374 C   0  0  0  0  0  0  0  0  0  0  0  0
   -1.9568   10.8387    2.3836 C   0  0  0  0  0  0  0  0  0  0  0  0
   -1.7215    9.4780    2.6031 C   0  0  0  0  0  0  0  0  0  0  0  0
   -1.9937    8.6490    3.7780 C   0  0  0  0  0  0  0  0  0  0  0  0
   -2.5382    9.1012    4.9533 C   0  0  0  0  0  0  0  0  0  0  0  0
   -2.8142    8.3261    6.0992 C   0  0  0  0  0  0  0  0  0  0  0  0
   -3.0828    7.7852    7.0771 N   0  0  0  0  0  0  0  0  0  0  0  0
   -2.9127   10.4394    5.1963 C   0  0  0  0  0  0  0  0  0  0  0  0
   -3.2472   11.5037    5.4693 N   0  0  0  0  0  0  0  0  0  0  0  0
   -1.5587   12.5086    0.2545 C   0  0  0  0  0  0  0  0  0  0  0  0
   -2.9001   12.9214   -0.3879 C   0  0  0  0  0  0  0  0  0  0  0  0
   -2.4912   13.8120   -1.5389 C   0  0  0  0  0  0  0  0  0  0  0  0
   -1.9440   13.0418   -2.4706 C   0  0  0  0  0  0  0  0  0  0  0  0
   -1.9741   11.6175   -1.9650 C   0  0  0  0  0  0  0  0  0  0  0  0
   -3.2797   11.6511   -1.1601 C   0  0  0  0  0  0  0  0  0  0  0  0
   -0.9149   11.6008   -0.8422 C   0  0  0  0  0  0  0  0  0  0  0  0
    3.8103   -4.3193   -5.2571 H   0  0  0  0  0  0  0  0  0  0  0  0
    3.9949  -10.5371   -4.2973 H   0  0  0  0  0  0  0  0  0  0  0  0
    2.3521  -14.8377   -5.5053 H   0  0  0  0  0  0  0  0  0  0  0  0
    3.7389  -14.7010   -6.6252 H   0  0  0  0  0  0  0  0  0  0  0  0
    3.9930  -14.5935   -4.8841 H   0  0  0  0  0  0  0  0  0  0  0  0
    4.4868  -10.9660   -8.5332 H   0  0  0  0  0  0  0  0  0  0  0  0
    4.6235   -8.5252   -8.8085 H   0  0  0  0  0  0  0  0  0  0  0  0
    2.1025   -7.7774   -0.9194 H   0  0  0  0  0  0  0  0  0  0  0  0
    1.4814  -10.0999   -1.4523 H   0  0  0  0  0  0  0  0  0  0  0  0
    0.8410  -10.7106   -3.7570 H   0  0  0  0  0  0  0  0  0  0  0  0
    0.8504  -10.1085   -6.0928 H   0  0  0  0  0  0  0  0  0  0  0  0
    1.0201   -8.4238   -6.6147 H   0  0  0  0  0  0  0  0  0  0  0  0
   -1.4696   -9.6426   -5.3234 H   0  0  0  0  0  0  0  0  0  0  0  0
   -1.3054   -7.9557   -5.8132 H   0  0  0  0  0  0  0  0  0  0  0  0
   -1.2883   -9.2344   -7.0328 H   0  0  0  0  0  0  0  0  0  0  0  0
    1.2081   -6.6323   -4.9381 H   0  0  0  0  0  0  0  0  0  0  0  0
   -1.2209    2.9349    7.4065 H   0  0  0  0  0  0  0  0  0  0  0  0
   -2.5272    3.2746    9.4671 H   0  0  0  0  0  0  0  0  0  0  0  0
   -4.6157    4.5767    9.4074 H   0  0  0  0  0  0  0  0  0  0  0  0
   -5.8216    6.3910    6.4195 H   0  0  0  0  0  0  0  0  0  0  0  0
   -5.9511    6.2647    8.1760 H   0  0  0  0  0  0  0  0  0  0  0  0
   -6.8921    4.1422    6.1834 H   0  0  0  0  0  0  0  0  0  0  0  0
   -7.0263    4.0230    7.9373 H   0  0  0  0  0  0  0  0  0  0  0  0
   -7.9390    5.2592    7.0655 H   0  0  0  0  0  0  0  0  0  0  0  0
   -4.1611    5.1204    5.2054 H   0  0  0  0  0  0  0  0  0  0  0  0
    2.8034   -0.5070   -1.1656 H   0  0  0  0  0  0  0  0  0  0  0  0
    2.7154    0.0798    0.5188 H   0  0  0  0  0  0  0  0  0  0  0  0
    4.1388   -1.8159    1.2620 H   0  0  0  0  0  0  0  0  0  0  0  0
    4.9545   -0.7665    0.0973 H   0  0  0  0  0  0  0  0  0  0  0  0
    4.3281   -2.3302   -0.4180 H   0  0  0  0  0  0  0  0  0  0  0  0
    1.5955    1.5705    0.3010 H   0  0  0  0  0  0  0  0  0  0  0  0
    0.2577    2.5629    0.8596 H   0  0  0  0  0  0  0  0  0  0  0  0
   -0.0463   -0.0207   -0.7579 H   0  0  0  0  0  0  0  0  0  0  0  0
   -1.3728    0.9776   -0.1582 H   0  0  0  0  0  0  0  0  0  0  0  0
   -0.2517    1.6271   -1.3573 H   0  0  0  0  0  0  0  0  0  0  0  0
   -2.2082    6.3763    5.2407 H   0  0  0  0  0  0  0  0  0  0  0  0
   -0.3225    8.4704   -0.3780 H   0  0  0  0  0  0  0  0  0  0  0  0
   -2.3944   11.4817    3.1283 H   0  0  0  0  0  0  0  0  0  0  0  0
   -0.9887   13.3554    0.6315 H   0  0  0  0  0  0  0  0  0  0  0  0
   -3.6323   13.3237    0.3067 H   0  0  0  0  0  0  0  0  0  0  0  0
   -2.5883   14.8817   -1.5335 H   0  0  0  0  0  0  0  0  0  0  0  0
   -1.4927   13.3394   -3.3989 H   0  0  0  0  0  0  0  0  0  0  0  0
   -1.8632   10.8320   -2.7078 H   0  0  0  0  0  0  0  0  0  0  0  0
   -3.4353   10.7777   -0.5294 H   0  0  0  0  0  0  0  0  0  0  0  0
   -4.1510   11.8009   -1.7955 H   0  0  0  0  0  0  0  0  0  0  0  0
    0.0856   11.8416   -1.1966 H   0  0  0  0  0  0  0  0  0  0  0  0
  1  2  2  0  0  0  0
  2  3  1  0  0  0  0
  3  4  2  0  0  0  0
  3  5  1  0  0  0  0
  5  6  2  0  0  0  0
  6  7  1  0  0  0  0
  7  8  1  0  0  0  0
  8  9  1  0  0  0  0
  9 10  2  0  0  0  0
  9 11  1  0  0  0  0
  7 12  2  0  0  0  0
 12 13  1  0  0  0  0
 13 14  2  0  0  0  0
 14 15  1  0  0  0  0
 15 16  2  0  0  0  0
 16 17  1  0  0  0  0
 17 18  3  0  0  0  0
 16 19  1  0  0  0  0
 19 20  3  0  0  0  0
  1 21  1  0  0  0  0
 21 22  2  0  0  0  0
 22 23  1  0  0  0  0
 23 24  2  0  0  0  0
 24 25  1  0  0  0  0
 25 26  2  0  0  0  0
 26 27  1  0  0  0  0
 27 28  1  0  0  0  0
 28 29  1  0  0  0  0
 27 30  2  0  0  0  0
 22 31  1  0  0  0  0
 31 32  1  0  0  0  0
 32 33  1  0  0  0  0
 33 34  1  0  0  0  0
 34 35  1  0  0  0  0
 35 36  1  0  0  0  0
 36 37  2  0  0  0  0
 37 38  1  0  0  0  0
 38 39  1  0  0  0  0
 36 40  1  0  0  0  0
 40 41  1  0  0  0  0
 41 42  1  0  0  0  0
 42 43  1  0  0  0  0
 43 44  1  0  0  0  0
 44 45  1  0  0  0  0
 45 46  2  0  0  0  0
 46 47  1  0  0  0  0
 47 48  2  0  0  0  0
 48 49  1  0  0  0  0
 49 50  1  0  0  0  0
 50 51  1  0  0  0  0
 49 52  2  0  0  0  0
 44 53  2  0  0  0  0
 53 54  1  0  0  0  0
 54 55  1  0  0  0  0
 55 56  1  0  0  0  0
 56 57  1  0  0  0  0
 57 58  1  0  0  0  0
 58 59  1  0  0  0  0
 59 60  1  0  0  0  0
 60 61  1  0  0  0  0
 61 62  1  0  0  0  0
 62 63  1  0  0  0  0
 60 64  1  0  0  0  0
 64 65  1  0  0  0  0
 57 66  1  0  0  0  0
 66 67  1  0  0  0  0
 53 68  1  0  0  0  0
 68 69  2  0  0  0  0
 69 70  1  0  0  0  0
 70 71  2  0  0  0  0
 70 72  1  0  0  0  0
 72 73  2  0  0  0  0
 73 74  1  0  0  0  0
 74 75  2  0  0  0  0
 75 76  1  0  0  0  0
 76 77  2  0  0  0  0
 77 78  1  0  0  0  0
 78 79  2  0  0  0  0
 79 80  1  0  0  0  0
 80 81  3  0  0  0  0
 79 82  1  0  0  0  0
 82 83  3  0  0  0  0
 75 84  1  0  0  0  0
 84 85  1  0  0  0  0
 85 86  1  0  0  0  0
 86 87  2  0  0  0  0
 87 88  1  0  0  0  0
 88 89  1  0  0  0  0
 88 90  1  0  0  0  0
 15  2  1  0  0  0  0
 63 21  1  0  0  0  0
 78 69  1  0  0  0  0
 90 84  1  0  0  0  0
 14  5  1  0  0  0  0
 30 23  1  0  0  0  0
 62 31  2  0  0  0  0
 77 72  1  0  0  0  0
 89 85  1  0  0  0  0
 61 33  2  0  0  0  0
 90 74  1  0  0  0  0
 59 34  2  0  0  0  0
 39 35  2  0  0  0  0
 58 40  2  0  0  0  0
 56 41  2  0  0  0  0
 55 43  2  0  0  0  0
 52 45  1  0  0  0  0
  1 91  1  0  0  0  0
  6 92  1  0  0  0  0
 11 93  1  0  0  0  0
 11 94  1  0  0  0  0
 11 95  1  0  0  0  0
 12 96  1  0  0  0  0
 13 97  1  0  0  0  0
 24 98  1  0  0  0  0
 25 99  1  0  0  0  0
 26100  1  0  0  0  0
 28101  1  0  0  0  0
 28102  1  0  0  0  0
 29103  1  0  0  0  0
 29104  1  0  0  0  0
 29105  1  0  0  0  0
 30106  1  0  0  0  0
 46107  1  0  0  0  0
 47108  1  0  0  0  0
 48109  1  0  0  0  0
 50110  1  0  0  0  0
 50111  1  0  0  0  0
 51112  1  0  0  0  0
 51113  1  0  0  0  0
 51114  1  0  0  0  0
 52115  1  0  0  0  0
 64116  1  0  0  0  0
 64117  1  0  0  0  0
 65118  1  0  0  0  0
 65119  1  0  0  0  0
 65120  1  0  0  0  0
 66121  1  0  0  0  0
 66122  1  0  0  0  0
 67123  1  0  0  0  0
 67124  1  0  0  0  0
 67125  1  0  0  0  0
 68126  1  0  0  0  0
 73127  1  0  0  0  0
 76128  1  0  0  0  0
 84129  1  0  0  0  0
 85130  1  0  0  0  0
 86131  1  0  0  0  0
 87132  1  0  0  0  0
 88133  1  0  0  0  0
 89134  1  0  0  0  0
 89135  1  0  0  0  0
 90136  1  0  0  0  0
M  END
