145

C          7.35070       -3.31340       -0.31470
C          8.50180       -3.04270       -1.00190
C          8.70790       -1.83160       -1.83230
O          8.01470       -0.83660       -1.88010
C          9.86870       -2.14020       -2.68830
C         10.42880       -1.37460       -3.66890
C         11.53280       -1.88080       -4.39210
C         12.15120       -1.13640       -5.41530
C         13.21100       -1.65080       -6.11220
C         13.69970       -2.93130       -5.81440
C         13.12310       -3.67900       -4.82380
C         12.03040       -3.18010       -4.08660
C         11.43060       -3.94970       -3.06280
C         10.36680       -3.43620       -2.37070
C          9.55810       -3.98830       -1.29200
C          9.80480       -5.14940       -0.60490
C          9.05660       -5.58100        0.50960
N          8.50220       -5.97220        1.43630
C         10.86370       -6.03060       -0.90030
N         11.70270       -6.78780       -1.10370
C          6.37550       -2.37100        0.07760
C          6.50540       -1.07400        0.55940
C          7.80480       -0.42020        0.88820
C          7.83990        0.11980        2.31670
C          5.24810       -0.50410        0.80930
S          4.74780        1.08080        1.35930
C          3.09880        0.60510        1.17900
C          1.81500        1.13160        1.37620
C          1.44380        2.39180        1.90530
N          2.35110        3.32940        2.16710
C          1.94750        4.46910        2.70760
C          2.96490        5.49410        2.78350
S          2.61580        7.19330        2.65800
C          4.29580        7.60610        2.67800
C          4.76270        9.01600        2.57030
C          4.47240        9.59360        1.18400
C          5.04550        6.46860        2.76880
C          4.31440        5.26910        2.81660
F          6.39010        6.49490        2.81390
C          0.58700        4.63200        3.10480
C          0.09690        5.71120        3.92780
C          0.70300        6.40380        4.94010
C         -0.18310        7.31290        5.54280
F          0.19430        8.11330        6.55800
C         -1.44590        7.33260        5.02190
C         -2.60090        8.17440        5.44200
C         -3.74680        7.32200        5.98800
S         -1.56940        6.16710        3.75190
N         -0.32790        3.74680        2.74260
C          0.06640        2.64500        2.10980
C         -0.86320        1.68860        1.63410
C         -2.26100        1.76960        1.58780
S         -3.52300        2.85880        2.04310
C         -4.68300        1.76620        1.30620
C         -6.06240        1.82690        1.15700
C         -6.87590        2.97900        1.64950
C         -7.05610        4.02650        0.54740
C         -6.55070        0.71890        0.44300
S         -5.26490       -0.40260       -0.00660
C         -4.09810        0.61720        0.74640
C         -2.71230        0.62340        0.92610
N         -1.64850       -0.16760        0.58560
C         -1.88940       -1.35030       -0.20690
C         -2.39140       -2.51310        0.64880
C         -0.49530        0.44970        1.02500
C          0.88580        0.12420        0.98030
N          1.60410       -0.99670        0.60780
C          2.93680       -0.70420        0.71940
C          4.16310       -1.34620        0.52380
S          4.69420       -2.90180        0.01090
C          1.20520       -2.34430        0.27790
C          1.31810       -2.62040       -1.22170
C         -7.90260        0.55510        0.12220
C         -8.54350       -0.41310       -0.61010
C         -7.91700       -1.56030       -1.27100
O         -6.74320       -1.89320       -1.23100
C         -8.98760       -2.25210       -2.00760
C         -8.85630       -3.37820       -2.81710
C        -10.03270       -3.79080       -3.39500
C        -11.24990       -3.12950       -3.18590
C        -11.39270       -2.01800       -2.38920
C        -10.20820       -1.58330       -1.78680
C         -9.96400       -0.44930       -0.89550
C        -10.92910        0.39960       -0.41460
C        -10.71230        1.48890        0.45420
N        -10.62700        2.39170        1.16060
C        -12.30420        0.29690       -0.71130
N        -13.43680        0.27820       -0.90090
C        -12.01130       -4.07970       -4.07650
C        -12.86870       -5.15140       -3.37120
C        -13.09090       -6.19710       -4.44000
C        -11.93850       -6.82490       -4.63620
C        -10.91770       -6.21380       -3.70340
C        -11.82110       -5.87090       -2.51190
C        -10.65410       -4.81840       -4.30810
H          7.10400       -4.35010       -0.11300
H         10.03430       -0.39430       -3.89210
H         11.77000       -0.15100       -5.64070
H         13.67760       -1.07410       -6.89690
H         14.53590       -3.32290       -6.37400
H         13.49680       -4.66510       -4.58960
H         11.82290       -4.93350       -2.85800
H          8.61270       -1.14160        0.75570
H          7.96900        0.39550        0.17880
H          7.11100        0.91270        2.45650
H          8.82720        0.52180        2.52900
H          7.63130       -0.67620        3.02850
H          5.83720        9.03800        2.76420
H          4.26190        9.62590        3.32630
H          3.40250        9.58240        0.98840
H          4.97170        9.00630        0.41680
H          4.82820       10.61870        1.12370
H          4.75220        4.29080        2.87530
H          1.71700        6.26220        5.26500
H         -2.96000        8.75050        4.58520
H         -2.25830        8.87420        6.20710
H         -4.58160        7.95600        6.27480
H         -3.42020        6.76170        6.86090
H         -4.08420        6.61840        5.23050
H         -6.34610        3.43430        2.48860
H         -7.85450        2.64920        2.00070
H         -7.63920        4.86160        0.92470
H         -7.57690        3.60020       -0.30700
H         -6.08840        4.39610        0.21630
H         -2.66690       -1.09900       -0.93590
H         -0.99030       -1.61030       -0.75780
H         -3.37860       -2.28520        1.04130
H         -2.46470       -3.41110        0.04230
H         -1.72870       -2.70580        1.49040
H          0.20010       -2.52650        0.64840
H          1.88260       -3.02280        0.80800
H          2.36060       -2.60400       -1.52750
H          0.78670       -1.87220       -1.80650
H          0.90940       -3.60130       -1.44750
H         -8.52940        1.34730        0.50770
H         -7.89680       -3.85130       -2.95690
H        -12.33590       -1.51810       -2.24660
H        -12.51170       -3.62920       -4.93160
H        -13.75280       -4.76880       -2.86880
H        -14.01840       -6.33040       -4.96530
H        -11.71100       -7.58710       -5.35820
H        -10.02490       -6.80030       -3.50350
H        -12.22400       -6.76100       -2.03150
H        -11.34840       -5.23620       -1.76460
H        -10.25050       -4.86180       -5.31820
