113

C         -6.04980        4.54890        3.19990
C         -6.64300        5.38430        2.28790
C         -5.95920        5.95110        1.10260
O         -4.91130        5.59810        0.59600
C         -6.78400        7.10360        0.69370
C         -6.55810        7.99740       -0.31220
C         -7.49400        9.03260       -0.53760
C         -7.31600        9.98080       -1.56370
C         -8.23170       10.97870       -1.76120
C         -9.36600       11.07080       -0.94170
C         -9.56920       10.16410        0.06310
C         -8.64690        9.12390        0.29360
C         -8.85500        8.18210        1.32840
C         -7.93900        7.18420        1.52320
C         -7.88950        6.08910        2.48310
C         -8.88950        5.71920        3.34640
C         -8.84470        4.55980        4.14770
N         -8.88250        3.60990        4.79210
C        -10.10380        6.41790        3.49070
N        -11.10660        6.95450        3.65090
C         -4.87650        3.80180        2.98350
S         -3.77340        3.61130        4.35430
C         -2.64060        2.86010        3.31730
C         -1.37140        2.27360        3.38390
C         -0.56990        1.92020        4.49240
C          0.54870        1.04600        4.28180
N          1.14790        0.71000        5.41310
S          0.37960        1.43950        6.63700
N         -0.75380        2.20570        5.77120
C          0.90260        0.69810        2.95940
C          1.94690       -0.09270        2.45260
S          3.20740       -1.12650        3.02570
C          3.67770       -1.44280        1.37050
C          4.66030       -2.26750        0.79930
C          5.68670       -2.99700        1.60520
C          5.06400       -3.98540        2.59030
C          4.63800       -2.17860       -0.58310
S          3.43270       -1.03320       -1.17000
C          2.90160       -0.73910        0.44130
C          1.89900        0.01230        1.06010
N          0.85800        0.82230        0.67640
C          0.20030        1.21810        1.83570
C         -1.04030        1.87250        2.05800
N         -2.11930        2.13730        1.24280
C         -3.10580        2.72790        1.99860
C         -4.41650        3.20080        1.81180
C         -5.34580        2.82780        0.69870
C         -5.74710        1.35490        0.84540
C         -2.27480        1.91520       -0.17310
C         -2.14250        3.22500       -0.95370
C          1.01050        1.55180       -0.56760
C          2.21140        2.49630       -0.50880
C          5.46310       -2.79420       -1.56170
C          5.81590       -4.10980       -1.58120
C          5.05170       -5.17460       -0.88360
O          4.14780       -5.03640       -0.08780
C          5.51720       -6.44260       -1.47390
C          5.03960       -7.71850       -1.18400
C          5.63160       -8.71760       -1.91780
C          6.62580       -8.46890       -2.87430
C          7.10810       -7.21590       -3.16890
C          6.51770       -6.18400       -2.43340
C          6.75340       -4.74550       -2.48330
C          7.74150       -4.10420       -3.18400
C          8.66320       -4.74710       -4.03480
N          9.43600       -5.21240       -4.74500
C          7.98510       -2.71670       -3.10870
N          8.25030       -1.60000       -3.07210
C          6.74670       -9.92630       -3.24280
C          6.07910      -10.39410       -4.55980
C          4.93870       -9.44270       -4.82460
C          3.99810       -9.67610       -3.91910
C          4.48520      -10.79020       -3.02580
C          5.29950      -11.61180       -4.03780
C          5.64020      -10.20290       -2.17680
H         -6.43840        4.53500        4.21160
H         -5.67680        7.91650       -0.93120
H         -6.44010        9.90530       -2.19160
H         -8.08630       11.70230       -2.54940
H        -10.07890       11.86390       -1.11040
H        -10.44210       10.22970        0.69590
H         -9.73330        8.27820        1.94700
H          6.37210       -3.51990        0.93730
H          6.26090       -2.25140        2.16510
H          4.45670       -3.46470        3.32580
H          4.43690       -4.69420        2.05770
H          5.84890       -4.52900        3.11010
H         -6.25090        3.42790        0.75730
H         -4.89230        3.00960       -0.27450
H         -6.37680        1.05690        0.01050
H         -4.88000        0.69870        0.88010
H         -6.30840        1.21570        1.76670
H         -3.26940        1.49840       -0.34480
H         -1.55320        1.16390       -0.49550
H         -2.90980        3.92790       -0.63730
H         -1.17930        3.69980       -0.77810
H         -2.25300        3.03770       -2.01860
H          0.12410        2.13960       -0.77070
H          1.15230        0.82020       -1.36890
H          2.28370        3.05070       -1.44040
H          3.13610        1.94460       -0.36420
H          2.09540        3.20230        0.31110
H          5.76390       -2.15840       -2.38720
H          4.27040       -7.86690       -0.44210
H          7.86750       -7.03630       -3.91190
H          7.72550      -10.37670       -3.09120
H          6.76970      -10.55640       -5.38280
H          4.95680       -8.68310       -5.58410
H          3.07330       -9.14990       -3.77060
H          3.72420      -11.31320       -2.45260
H          4.67730      -12.07300       -4.80330
H          5.93290      -12.36670       -3.57430
H          5.89520      -10.83570       -1.32900
