
  xtb     02022209043D
 energy: -194.390464870196 gnorm: 0.000516749942 xtb: 6.4.1 (unknown)
113127  0     0  0            999 V2000
   -6.0498    4.5489    3.1999 C   0  0  0  0  0  0  0  0  0  0  0  0
   -6.6430    5.3843    2.2879 C   0  0  0  0  0  0  0  0  0  0  0  0
   -5.9592    5.9511    1.1026 C   0  0  0  0  0  0  0  0  0  0  0  0
   -4.9113    5.5981    0.5960 O   0  0  0  0  0  0  0  0  0  0  0  0
   -6.7840    7.1036    0.6937 C   0  0  0  0  0  0  0  0  0  0  0  0
   -6.5581    7.9974   -0.3122 C   0  0  0  0  0  0  0  0  0  0  0  0
   -7.4940    9.0326   -0.5376 C   0  0  0  0  0  0  0  0  0  0  0  0
   -7.3160    9.9808   -1.5637 C   0  0  0  0  0  0  0  0  0  0  0  0
   -8.2317   10.9787   -1.7612 C   0  0  0  0  0  0  0  0  0  0  0  0
   -9.3660   11.0708   -0.9417 C   0  0  0  0  0  0  0  0  0  0  0  0
   -9.5692   10.1641    0.0631 C   0  0  0  0  0  0  0  0  0  0  0  0
   -8.6469    9.1239    0.2936 C   0  0  0  0  0  0  0  0  0  0  0  0
   -8.8550    8.1821    1.3284 C   0  0  0  0  0  0  0  0  0  0  0  0
   -7.9390    7.1842    1.5232 C   0  0  0  0  0  0  0  0  0  0  0  0
   -7.8895    6.0891    2.4831 C   0  0  0  0  0  0  0  0  0  0  0  0
   -8.8895    5.7192    3.3464 C   0  0  0  0  0  0  0  0  0  0  0  0
   -8.8447    4.5598    4.1477 C   0  0  0  0  0  0  0  0  0  0  0  0
   -8.8825    3.6099    4.7921 N   0  0  0  0  0  0  0  0  0  0  0  0
  -10.1038    6.4179    3.4907 C   0  0  0  0  0  0  0  0  0  0  0  0
  -11.1066    6.9545    3.6509 N   0  0  0  0  0  0  0  0  0  0  0  0
   -4.8765    3.8018    2.9835 C   0  0  0  0  0  0  0  0  0  0  0  0
   -3.7734    3.6113    4.3543 S   0  0  0  0  0  0  0  0  0  0  0  0
   -2.6406    2.8601    3.3173 C   0  0  0  0  0  0  0  0  0  0  0  0
   -1.3714    2.2736    3.3839 C   0  0  0  0  0  0  0  0  0  0  0  0
   -0.5699    1.9202    4.4924 C   0  0  0  0  0  0  0  0  0  0  0  0
    0.5487    1.0460    4.2818 C   0  0  0  0  0  0  0  0  0  0  0  0
    1.1479    0.7100    5.4131 N   0  0  0  0  0  0  0  0  0  0  0  0
    0.3796    1.4395    6.6370 S   0  0  0  0  0  0  0  0  0  0  0  0
   -0.7538    2.2057    5.7712 N   0  0  0  0  0  0  0  0  0  0  0  0
    0.9026    0.6981    2.9594 C   0  0  0  0  0  0  0  0  0  0  0  0
    1.9469   -0.0927    2.4526 C   0  0  0  0  0  0  0  0  0  0  0  0
    3.2074   -1.1265    3.0257 S   0  0  0  0  0  0  0  0  0  0  0  0
    3.6777   -1.4428    1.3705 C   0  0  0  0  0  0  0  0  0  0  0  0
    4.6603   -2.2675    0.7993 C   0  0  0  0  0  0  0  0  0  0  0  0
    5.6867   -2.9970    1.6052 C   0  0  0  0  0  0  0  0  0  0  0  0
    5.0640   -3.9854    2.5903 C   0  0  0  0  0  0  0  0  0  0  0  0
    4.6380   -2.1786   -0.5831 C   0  0  0  0  0  0  0  0  0  0  0  0
    3.4327   -1.0332   -1.1700 S   0  0  0  0  0  0  0  0  0  0  0  0
    2.9016   -0.7391    0.4413 C   0  0  0  0  0  0  0  0  0  0  0  0
    1.8990    0.0123    1.0601 C   0  0  0  0  0  0  0  0  0  0  0  0
    0.8580    0.8223    0.6764 N   0  0  0  0  0  0  0  0  0  0  0  0
    0.2003    1.2181    1.8357 C   0  0  0  0  0  0  0  0  0  0  0  0
   -1.0403    1.8725    2.0580 C   0  0  0  0  0  0  0  0  0  0  0  0
   -2.1193    2.1373    1.2428 N   0  0  0  0  0  0  0  0  0  0  0  0
   -3.1058    2.7279    1.9986 C   0  0  0  0  0  0  0  0  0  0  0  0
   -4.4165    3.2008    1.8118 C   0  0  0  0  0  0  0  0  0  0  0  0
   -5.3458    2.8278    0.6987 C   0  0  0  0  0  0  0  0  0  0  0  0
   -5.7471    1.3549    0.8454 C   0  0  0  0  0  0  0  0  0  0  0  0
   -2.2748    1.9152   -0.1731 C   0  0  0  0  0  0  0  0  0  0  0  0
   -2.1425    3.2250   -0.9537 C   0  0  0  0  0  0  0  0  0  0  0  0
    1.0105    1.5518   -0.5676 C   0  0  0  0  0  0  0  0  0  0  0  0
    2.2114    2.4963   -0.5088 C   0  0  0  0  0  0  0  0  0  0  0  0
    5.4631   -2.7942   -1.5617 C   0  0  0  0  0  0  0  0  0  0  0  0
    5.8159   -4.1098   -1.5812 C   0  0  0  0  0  0  0  0  0  0  0  0
    5.0517   -5.1746   -0.8836 C   0  0  0  0  0  0  0  0  0  0  0  0
    4.1478   -5.0364   -0.0878 O   0  0  0  0  0  0  0  0  0  0  0  0
    5.5172   -6.4426   -1.4739 C   0  0  0  0  0  0  0  0  0  0  0  0
    5.0396   -7.7185   -1.1840 C   0  0  0  0  0  0  0  0  0  0  0  0
    5.6316   -8.7176   -1.9178 C   0  0  0  0  0  0  0  0  0  0  0  0
    6.6258   -8.4689   -2.8743 C   0  0  0  0  0  0  0  0  0  0  0  0
    7.1081   -7.2159   -3.1689 C   0  0  0  0  0  0  0  0  0  0  0  0
    6.5177   -6.1840   -2.4334 C   0  0  0  0  0  0  0  0  0  0  0  0
    6.7534   -4.7455   -2.4833 C   0  0  0  0  0  0  0  0  0  0  0  0
    7.7415   -4.1042   -3.1840 C   0  0  0  0  0  0  0  0  0  0  0  0
    8.6632   -4.7471   -4.0348 C   0  0  0  0  0  0  0  0  0  0  0  0
    9.4360   -5.2124   -4.7450 N   0  0  0  0  0  0  0  0  0  0  0  0
    7.9851   -2.7167   -3.1087 C   0  0  0  0  0  0  0  0  0  0  0  0
    8.2503   -1.6000   -3.0721 N   0  0  0  0  0  0  0  0  0  0  0  0
    6.7467   -9.9263   -3.2428 C   0  0  0  0  0  0  0  0  0  0  0  0
    6.0791  -10.3941   -4.5598 C   0  0  0  0  0  0  0  0  0  0  0  0
    4.9387   -9.4427   -4.8246 C   0  0  0  0  0  0  0  0  0  0  0  0
    3.9981   -9.6761   -3.9191 C   0  0  0  0  0  0  0  0  0  0  0  0
    4.4852  -10.7902   -3.0258 C   0  0  0  0  0  0  0  0  0  0  0  0
    5.2995  -11.6118   -4.0378 C   0  0  0  0  0  0  0  0  0  0  0  0
    5.6402  -10.2029   -2.1768 C   0  0  0  0  0  0  0  0  0  0  0  0
   -6.4384    4.5350    4.2116 H   0  0  0  0  0  0  0  0  0  0  0  0
   -5.6768    7.9165   -0.9312 H   0  0  0  0  0  0  0  0  0  0  0  0
   -6.4401    9.9053   -2.1916 H   0  0  0  0  0  0  0  0  0  0  0  0
   -8.0863   11.7023   -2.5494 H   0  0  0  0  0  0  0  0  0  0  0  0
  -10.0789   11.8639   -1.1104 H   0  0  0  0  0  0  0  0  0  0  0  0
  -10.4421   10.2297    0.6959 H   0  0  0  0  0  0  0  0  0  0  0  0
   -9.7333    8.2782    1.9470 H   0  0  0  0  0  0  0  0  0  0  0  0
    6.3721   -3.5199    0.9373 H   0  0  0  0  0  0  0  0  0  0  0  0
    6.2609   -2.2514    2.1651 H   0  0  0  0  0  0  0  0  0  0  0  0
    4.4567   -3.4647    3.3258 H   0  0  0  0  0  0  0  0  0  0  0  0
    4.4369   -4.6942    2.0577 H   0  0  0  0  0  0  0  0  0  0  0  0
    5.8489   -4.5290    3.1101 H   0  0  0  0  0  0  0  0  0  0  0  0
   -6.2509    3.4279    0.7573 H   0  0  0  0  0  0  0  0  0  0  0  0
   -4.8923    3.0096   -0.2745 H   0  0  0  0  0  0  0  0  0  0  0  0
   -6.3768    1.0569    0.0105 H   0  0  0  0  0  0  0  0  0  0  0  0
   -4.8800    0.6987    0.8801 H   0  0  0  0  0  0  0  0  0  0  0  0
   -6.3084    1.2157    1.7667 H   0  0  0  0  0  0  0  0  0  0  0  0
   -3.2694    1.4984   -0.3448 H   0  0  0  0  0  0  0  0  0  0  0  0
   -1.5532    1.1639   -0.4955 H   0  0  0  0  0  0  0  0  0  0  0  0
   -2.9098    3.9279   -0.6373 H   0  0  0  0  0  0  0  0  0  0  0  0
   -1.1793    3.6998   -0.7781 H   0  0  0  0  0  0  0  0  0  0  0  0
   -2.2530    3.0377   -2.0186 H   0  0  0  0  0  0  0  0  0  0  0  0
    0.1241    2.1396   -0.7707 H   0  0  0  0  0  0  0  0  0  0  0  0
    1.1523    0.8202   -1.3689 H   0  0  0  0  0  0  0  0  0  0  0  0
    2.2837    3.0507   -1.4404 H   0  0  0  0  0  0  0  0  0  0  0  0
    3.1361    1.9446   -0.3642 H   0  0  0  0  0  0  0  0  0  0  0  0
    2.0954    3.2023    0.3111 H   0  0  0  0  0  0  0  0  0  0  0  0
    5.7639   -2.1584   -2.3872 H   0  0  0  0  0  0  0  0  0  0  0  0
    4.2704   -7.8669   -0.4421 H   0  0  0  0  0  0  0  0  0  0  0  0
    7.8675   -7.0363   -3.9119 H   0  0  0  0  0  0  0  0  0  0  0  0
    7.7255  -10.3767   -3.0912 H   0  0  0  0  0  0  0  0  0  0  0  0
    6.7697  -10.5564   -5.3828 H   0  0  0  0  0  0  0  0  0  0  0  0
    4.9568   -8.6831   -5.5841 H   0  0  0  0  0  0  0  0  0  0  0  0
    3.0733   -9.1499   -3.7706 H   0  0  0  0  0  0  0  0  0  0  0  0
    3.7242  -11.3132   -2.4526 H   0  0  0  0  0  0  0  0  0  0  0  0
    4.6773  -12.0730   -4.8033 H   0  0  0  0  0  0  0  0  0  0  0  0
    5.9329  -12.3667   -3.5743 H   0  0  0  0  0  0  0  0  0  0  0  0
    5.8952  -10.8357   -1.3290 H   0  0  0  0  0  0  0  0  0  0  0  0
  1  2  2  0  0  0  0
  2  3  1  0  0  0  0
  3  4  2  0  0  0  0
  3  5  1  0  0  0  0
  5  6  2  0  0  0  0
  6  7  1  0  0  0  0
  7  8  2  0  0  0  0
  8  9  1  0  0  0  0
  9 10  2  0  0  0  0
 10 11  1  0  0  0  0
 11 12  2  0  0  0  0
 12 13  1  0  0  0  0
 13 14  2  0  0  0  0
 14 15  1  0  0  0  0
 15 16  2  0  0  0  0
 16 17  1  0  0  0  0
 17 18  3  0  0  0  0
 16 19  1  0  0  0  0
 19 20  3  0  0  0  0
  1 21  1  0  0  0  0
 21 22  1  0  0  0  0
 22 23  1  0  0  0  0
 23 24  1  0  0  0  0
 24 25  1  0  0  0  0
 25 26  1  0  0  0  0
 26 27  2  0  0  0  0
 27 28  1  0  0  0  0
 28 29  1  0  0  0  0
 26 30  1  0  0  0  0
 30 31  1  0  0  0  0
 31 32  1  0  0  0  0
 32 33  1  0  0  0  0
 33 34  1  0  0  0  0
 34 35  1  0  0  0  0
 35 36  1  0  0  0  0
 34 37  2  0  0  0  0
 37 38  1  0  0  0  0
 38 39  1  0  0  0  0
 39 40  1  0  0  0  0
 40 41  1  0  0  0  0
 41 42  1  0  0  0  0
 42 43  1  0  0  0  0
 43 44  1  0  0  0  0
 44 45  1  0  0  0  0
 45 46  1  0  0  0  0
 46 47  1  0  0  0  0
 47 48  1  0  0  0  0
 44 49  1  0  0  0  0
 49 50  1  0  0  0  0
 41 51  1  0  0  0  0
 51 52  1  0  0  0  0
 37 53  1  0  0  0  0
 53 54  2  0  0  0  0
 54 55  1  0  0  0  0
 55 56  2  0  0  0  0
 55 57  1  0  0  0  0
 57 58  2  0  0  0  0
 58 59  1  0  0  0  0
 59 60  2  0  0  0  0
 60 61  1  0  0  0  0
 61 62  2  0  0  0  0
 62 63  1  0  0  0  0
 63 64  2  0  0  0  0
 64 65  1  0  0  0  0
 65 66  3  0  0  0  0
 64 67  1  0  0  0  0
 67 68  3  0  0  0  0
 60 69  1  0  0  0  0
 69 70  1  0  0  0  0
 70 71  1  0  0  0  0
 71 72  2  0  0  0  0
 72 73  1  0  0  0  0
 73 74  1  0  0  0  0
 73 75  1  0  0  0  0
 15  2  1  0  0  0  0
 46 21  2  0  0  0  0
 63 54  1  0  0  0  0
 75 69  1  0  0  0  0
 14  5  1  0  0  0  0
 45 23  2  0  0  0  0
 62 57  1  0  0  0  0
 74 70  1  0  0  0  0
 12  7  1  0  0  0  0
 43 24  2  0  0  0  0
 75 59  1  0  0  0  0
 29 25  2  0  0  0  0
 42 30  2  0  0  0  0
 40 31  2  0  0  0  0
 39 33  2  0  0  0  0
  1 76  1  0  0  0  0
  6 77  1  0  0  0  0
  8 78  1  0  0  0  0
  9 79  1  0  0  0  0
 10 80  1  0  0  0  0
 11 81  1  0  0  0  0
 13 82  1  0  0  0  0
 35 83  1  0  0  0  0
 35 84  1  0  0  0  0
 36 85  1  0  0  0  0
 36 86  1  0  0  0  0
 36 87  1  0  0  0  0
 47 88  1  0  0  0  0
 47 89  1  0  0  0  0
 48 90  1  0  0  0  0
 48 91  1  0  0  0  0
 48 92  1  0  0  0  0
 49 93  1  0  0  0  0
 49 94  1  0  0  0  0
 50 95  1  0  0  0  0
 50 96  1  0  0  0  0
 50 97  1  0  0  0  0
 51 98  1  0  0  0  0
 51 99  1  0  0  0  0
 52100  1  0  0  0  0
 52101  1  0  0  0  0
 52102  1  0  0  0  0
 53103  1  0  0  0  0
 58104  1  0  0  0  0
 61105  1  0  0  0  0
 69106  1  0  0  0  0
 70107  1  0  0  0  0
 71108  1  0  0  0  0
 72109  1  0  0  0  0
 73110  1  0  0  0  0
 74111  1  0  0  0  0
 74112  1  0  0  0  0
 75113  1  0  0  0  0
M  END
