90

C         -1.07940       -5.19800        1.64630
C         -2.30850       -5.74720        1.80760
C         -2.44610       -7.20080        2.09950
O         -1.58120       -8.04250        2.00340
C         -3.83140       -7.37230        2.57640
C         -4.43830       -8.48960        3.07240
C         -5.78510       -8.41390        3.49420
C         -6.46540       -9.53680        4.00520
C         -7.76860       -9.44070        4.41140
C         -8.44910       -8.21690        4.32550
C         -7.81740       -7.10710        3.83440
C         -6.47660       -7.17160        3.40370
C         -5.82510       -6.03180        2.87990
C         -4.52520       -6.13200        2.46230
C         -3.63370       -5.15710        1.84320
C         -4.04060       -4.01950        1.19690
C         -5.36440       -3.53670        1.22080
N         -6.41930       -3.08290        1.22880
C         -3.22110       -3.23600        0.35780
N         -2.64650       -2.58880       -0.39670
C         -0.73030       -3.80420        1.68090
C         -1.41700       -2.90500        2.52150
C         -1.15230       -1.55730        2.51630
C         -0.19980       -1.07990        1.61950
N          0.18630        0.20050        1.35640
C         -0.41910        1.38750        1.90050
C         -1.61200        1.83910        1.05990
C          1.12700        0.18320        0.34830
C          1.40640       -1.16590       -0.00470
C          0.54100       -1.97670        0.80470
C          0.29810       -3.33450        0.86190
C          2.33140       -1.48190       -0.98950
C          2.94390       -0.41640       -1.62360
C          2.64390        0.93110       -1.28730
C          1.73600        1.24910       -0.29080
C          3.41650        1.74910       -2.18130
C          3.49510        3.11150       -2.36460
C          4.32620        3.61630       -3.37390
C          5.11890        2.71220       -4.12410
C          5.04140        1.35240       -3.96070
C          4.16390        0.85530       -2.99610
N          3.86450       -0.42700       -2.65750
C          4.45530       -1.61120       -3.22240
C          5.67860       -2.06090       -2.42500
C          4.45210        5.00320       -3.68130
C          3.59210        6.04830       -3.47910
C          2.15580        5.99340       -3.12120
O          1.49670        5.06380       -2.70890
C          1.62530        7.34520       -3.42040
C          0.31940        7.78100       -3.32520
C          0.03840        9.09740       -3.66920
Cl        -1.56790        9.70670       -3.57530
C          1.07570        9.92900       -4.09750
F          0.79610       11.19400       -4.43550
C          2.38970        9.49800       -4.19180
C          2.66660        8.18410       -3.84630
C          3.91120        7.42250       -3.83310
C          5.16020        7.94730       -4.03810
C          5.40160        9.29990       -4.35880
N          5.66000       10.38520       -4.62880
C          6.37570        7.23960       -3.91880
N          7.40970        6.74910       -3.82110
H         -0.26790       -5.90520        1.50590
H         -3.89870       -9.42260        3.14050
H         -5.93660      -10.47670        4.06910
H         -8.28240      -10.30680        4.80090
H         -9.47740       -8.15820        4.64960
H         -8.33780       -6.16330        3.76210
H         -6.36980       -5.10190        2.82850
H         -2.15500       -3.29720        3.20650
H         -1.69230       -0.89300        3.17330
H          0.33770        2.17550        1.93800
H         -0.73760        1.17440        2.92430
H         -2.07000        2.71960        1.50200
H         -2.35370        1.04570        1.00420
H         -1.29110        2.08000        0.04950
H          0.84000       -4.02140        0.22970
H          2.53770       -2.50910       -1.24430
H          1.51470        2.27720       -0.05520
H          2.93250        3.77530       -1.73310
H          5.78800        3.11490       -4.87040
H          5.64640        0.69400       -4.56510
H          3.70130       -2.40260       -3.23280
H          4.73780       -1.39850       -4.25630
H          5.40030       -2.27450       -1.39570
H          6.43540       -1.27980       -2.42240
H          6.10350       -2.95810       -2.86630
H          5.36140        5.24580       -4.22080
H         -0.45980        7.11330       -2.99380
H          3.14190       10.18970       -4.53420
