
  xtb     02012223223D
 energy: -191.331776788050 gnorm: 0.000792579674 xtb: 6.4.1 (unknown)
106118  0     0  0            999 V2000
   -0.9443   -5.6999   -4.5571 C   0  0  0  0  0  0  0  0  0  0  0  0
    0.0937   -5.4909   -5.4335 C   0  0  0  0  0  0  0  0  0  0  0  0
    1.1271   -4.4594   -5.3166 C   0  0  0  0  0  0  0  0  0  0  0  0
    1.2636   -3.6419   -4.4198 O   0  0  0  0  0  0  0  0  0  0  0  0
    1.9806   -4.5932   -6.5067 C   0  0  0  0  0  0  0  0  0  0  0  0
    3.0673   -3.8521   -6.8687 C   0  0  0  0  0  0  0  0  0  0  0  0
    3.7382   -4.1589   -8.0741 C   0  0  0  0  0  0  0  0  0  0  0  0
    4.8614   -3.4265   -8.5049 C   0  0  0  0  0  0  0  0  0  0  0  0
    5.4939   -3.7408   -9.6773 C   0  0  0  0  0  0  0  0  0  0  0  0
    5.0315   -4.8027  -10.4682 C   0  0  0  0  0  0  0  0  0  0  0  0
    3.9428   -5.5342  -10.0774 C   0  0  0  0  0  0  0  0  0  0  0  0
    3.2663   -5.2360   -8.8776 C   0  0  0  0  0  0  0  0  0  0  0  0
    2.1367   -5.9863   -8.4740 C   0  0  0  0  0  0  0  0  0  0  0  0
    1.4984   -5.6695   -7.3051 C   0  0  0  0  0  0  0  0  0  0  0  0
    0.3282   -6.2461   -6.6480 C   0  0  0  0  0  0  0  0  0  0  0  0
   -0.3930   -7.3151   -7.1201 C   0  0  0  0  0  0  0  0  0  0  0  0
   -0.1007   -7.9979   -8.3188 C   0  0  0  0  0  0  0  0  0  0  0  0
    0.0740   -8.5972   -9.2827 N   0  0  0  0  0  0  0  0  0  0  0  0
   -1.5142   -7.8981   -6.4962 C   0  0  0  0  0  0  0  0  0  0  0  0
   -2.4309   -8.4323   -6.0535 N   0  0  0  0  0  0  0  0  0  0  0  0
   -1.2864   -5.0498   -3.3679 C   0  0  0  0  0  0  0  0  0  0  0  0
   -2.4091   -5.4070   -2.5993 C   0  0  0  0  0  0  0  0  0  0  0  0
   -3.3518   -6.5273   -2.8953 C   0  0  0  0  0  0  0  0  0  0  0  0
   -2.7940   -7.8595   -2.3869 C   0  0  0  0  0  0  0  0  0  0  0  0
   -2.5212   -4.6109   -1.4681 C   0  0  0  0  0  0  0  0  0  0  0  0
   -3.6887   -4.5800   -0.1586 S   0  0  0  0  0  0  0  0  0  0  0  0
   -2.8200   -3.2581    0.5397 C   0  0  0  0  0  0  0  0  0  0  0  0
   -2.8692   -2.4398    1.6759 C   0  0  0  0  0  0  0  0  0  0  0  0
   -3.7056   -2.4811    2.8140 C   0  0  0  0  0  0  0  0  0  0  0  0
   -3.4357   -1.5908    3.9052 C   0  0  0  0  0  0  0  0  0  0  0  0
   -4.2540   -1.7809    4.9276 N   0  0  0  0  0  0  0  0  0  0  0  0
   -5.2809   -2.9741    4.5481 S   0  0  0  0  0  0  0  0  0  0  0  0
   -4.7184   -3.2952    3.0643 N   0  0  0  0  0  0  0  0  0  0  0  0
   -2.4242   -0.6159    3.7549 C   0  0  0  0  0  0  0  0  0  0  0  0
   -2.0516    0.4579    4.5724 C   0  0  0  0  0  0  0  0  0  0  0  0
   -2.4603    1.1285    6.1123 S   0  0  0  0  0  0  0  0  0  0  0  0
   -1.3460    2.4458    5.7964 C   0  0  0  0  0  0  0  0  0  0  0  0
   -0.9910    3.5628    6.5382 C   0  0  0  0  0  0  0  0  0  0  0  0
   -1.5325    3.8339    7.9035 C   0  0  0  0  0  0  0  0  0  0  0  0
   -0.5820    3.3031    8.9803 C   0  0  0  0  0  0  0  0  0  0  0  0
   -0.0328    4.3420    5.8639 C   0  0  0  0  0  0  0  0  0  0  0  0
    0.3960    3.6572    4.2950 S   0  0  0  0  0  0  0  0  0  0  0  0
   -0.6952    2.3488    4.5528 C   0  0  0  0  0  0  0  0  0  0  0  0
   -1.0999    1.2032    3.8631 C   0  0  0  0  0  0  0  0  0  0  0  0
   -0.8620    0.6161    2.6486 N   0  0  0  0  0  0  0  0  0  0  0  0
   -1.6429   -0.5188    2.5646 C   0  0  0  0  0  0  0  0  0  0  0  0
   -1.7826   -1.5223    1.5713 C   0  0  0  0  0  0  0  0  0  0  0  0
   -1.0712   -1.8116    0.4180 N   0  0  0  0  0  0  0  0  0  0  0  0
   -1.6978   -2.8641   -0.1990 C   0  0  0  0  0  0  0  0  0  0  0  0
   -1.5130   -3.6386   -1.3477 C   0  0  0  0  0  0  0  0  0  0  0  0
   -0.3910   -3.7058   -2.6540 S   0  0  0  0  0  0  0  0  0  0  0  0
    0.3297   -1.5858    0.1274 C   0  0  0  0  0  0  0  0  0  0  0  0
    1.2164   -2.3609    1.0995 C   0  0  0  0  0  0  0  0  0  0  0  0
   -0.1892    1.3668    1.6118 C   0  0  0  0  0  0  0  0  0  0  0  0
    1.3297    1.3496    1.7729 C   0  0  0  0  0  0  0  0  0  0  0  0
    0.5013    5.5170    6.3982 C   0  0  0  0  0  0  0  0  0  0  0  0
    1.4615    6.3747    5.9163 C   0  0  0  0  0  0  0  0  0  0  0  0
    2.2021    6.2317    4.6611 C   0  0  0  0  0  0  0  0  0  0  0  0
    2.0743    5.3645    3.8128 O   0  0  0  0  0  0  0  0  0  0  0  0
    3.1520    7.3589    4.6164 C   0  0  0  0  0  0  0  0  0  0  0  0
    4.0859    7.6619    3.6456 C   0  0  0  0  0  0  0  0  0  0  0  0
    4.8949    8.7820    3.8027 C   0  0  0  0  0  0  0  0  0  0  0  0
    5.9277    9.1719    2.7966 C   0  0  0  0  0  0  0  0  0  0  0  0
    4.7126    9.5516    4.9529 C   0  0  0  0  0  0  0  0  0  0  0  0
    5.4921   10.6373    5.1146 F   0  0  0  0  0  0  0  0  0  0  0  0
    3.7821    9.2698    5.9404 C   0  0  0  0  0  0  0  0  0  0  0  0
    2.9866    8.1490    5.7663 C   0  0  0  0  0  0  0  0  0  0  0  0
    1.9300    7.5671    6.5929 C   0  0  0  0  0  0  0  0  0  0  0  0
    1.4829    8.0881    7.7804 C   0  0  0  0  0  0  0  0  0  0  0  0
    0.4592    7.5496    8.5870 C   0  0  0  0  0  0  0  0  0  0  0  0
   -0.3641    7.1793    9.2986 N   0  0  0  0  0  0  0  0  0  0  0  0
    1.9950    9.2636    8.3693 C   0  0  0  0  0  0  0  0  0  0  0  0
    2.3621   10.2112    8.9032 N   0  0  0  0  0  0  0  0  0  0  0  0
   -1.6268   -6.4973   -4.8177 H   0  0  0  0  0  0  0  0  0  0  0  0
    3.4108   -3.0402   -6.2447 H   0  0  0  0  0  0  0  0  0  0  0  0
    5.2132   -2.6099   -7.8910 H   0  0  0  0  0  0  0  0  0  0  0  0
    6.3535   -3.1730  -10.0011 H   0  0  0  0  0  0  0  0  0  0  0  0
    5.5421   -5.0385  -11.3899 H   0  0  0  0  0  0  0  0  0  0  0  0
    3.5829   -6.3528  -10.6833 H   0  0  0  0  0  0  0  0  0  0  0  0
    1.8053   -6.7938   -9.1070 H   0  0  0  0  0  0  0  0  0  0  0  0
   -4.2961   -6.3199   -2.3878 H   0  0  0  0  0  0  0  0  0  0  0  0
   -3.5486   -6.6032   -3.9656 H   0  0  0  0  0  0  0  0  0  0  0  0
   -2.6269   -7.8149   -1.3133 H   0  0  0  0  0  0  0  0  0  0  0  0
   -3.4997   -8.6574   -2.5990 H   0  0  0  0  0  0  0  0  0  0  0  0
   -1.8525   -8.0953   -2.8772 H   0  0  0  0  0  0  0  0  0  0  0  0
   -1.6949    4.9016    8.0577 H   0  0  0  0  0  0  0  0  0  0  0  0
   -2.4940    3.3249    7.9957 H   0  0  0  0  0  0  0  0  0  0  0  0
    0.3883    3.7895    8.9118 H   0  0  0  0  0  0  0  0  0  0  0  0
   -0.9963    3.4987    9.9651 H   0  0  0  0  0  0  0  0  0  0  0  0
   -0.4422    2.2307    8.8658 H   0  0  0  0  0  0  0  0  0  0  0  0
    0.4996   -1.9435   -0.8910 H   0  0  0  0  0  0  0  0  0  0  0  0
    0.5748   -0.5285    0.1541 H   0  0  0  0  0  0  0  0  0  0  0  0
    2.2626   -2.1982    0.8561 H   0  0  0  0  0  0  0  0  0  0  0  0
    1.0362   -2.0403    2.1240 H   0  0  0  0  0  0  0  0  0  0  0  0
    1.0075   -3.4260    1.0321 H   0  0  0  0  0  0  0  0  0  0  0  0
   -0.5087    0.9856    0.6411 H   0  0  0  0  0  0  0  0  0  0  0  0
   -0.5309    2.4053    1.6854 H   0  0  0  0  0  0  0  0  0  0  0  0
    1.6135    1.8964    2.6678 H   0  0  0  0  0  0  0  0  0  0  0  0
    1.7126    0.3363    1.8547 H   0  0  0  0  0  0  0  0  0  0  0  0
    1.7929    1.8363    0.9192 H   0  0  0  0  0  0  0  0  0  0  0  0
    0.0840    5.7739    7.3621 H   0  0  0  0  0  0  0  0  0  0  0  0
    4.1822    7.0297    2.7761 H   0  0  0  0  0  0  0  0  0  0  0  0
    6.9089    9.2263    3.2669 H   0  0  0  0  0  0  0  0  0  0  0  0
    5.9620    8.4568    1.9800 H   0  0  0  0  0  0  0  0  0  0  0  0
    5.7064   10.1608    2.3959 H   0  0  0  0  0  0  0  0  0  0  0  0
    3.7103    9.9191    6.7970 H   0  0  0  0  0  0  0  0  0  0  0  0
  1  2  2  0  0  0  0
  2  3  1  0  0  0  0
  3  4  2  0  0  0  0
  3  5  1  0  0  0  0
  5  6  2  0  0  0  0
  6  7  1  0  0  0  0
  7  8  2  0  0  0  0
  8  9  1  0  0  0  0
  9 10  2  0  0  0  0
 10 11  1  0  0  0  0
 11 12  2  0  0  0  0
 12 13  1  0  0  0  0
 13 14  2  0  0  0  0
 14 15  1  0  0  0  0
 15 16  2  0  0  0  0
 16 17  1  0  0  0  0
 17 18  3  0  0  0  0
 16 19  1  0  0  0  0
 19 20  3  0  0  0  0
  1 21  1  0  0  0  0
 21 22  2  0  0  0  0
 22 23  1  0  0  0  0
 23 24  1  0  0  0  0
 22 25  1  0  0  0  0
 25 26  1  0  0  0  0
 26 27  1  0  0  0  0
 27 28  1  0  0  0  0
 28 29  1  0  0  0  0
 29 30  1  0  0  0  0
 30 31  2  0  0  0  0
 31 32  1  0  0  0  0
 32 33  1  0  0  0  0
 30 34  1  0  0  0  0
 34 35  1  0  0  0  0
 35 36  1  0  0  0  0
 36 37  1  0  0  0  0
 37 38  1  0  0  0  0
 38 39  1  0  0  0  0
 39 40  1  0  0  0  0
 38 41  2  0  0  0  0
 41 42  1  0  0  0  0
 42 43  1  0  0  0  0
 43 44  1  0  0  0  0
 44 45  1  0  0  0  0
 45 46  1  0  0  0  0
 46 47  1  0  0  0  0
 47 48  1  0  0  0  0
 48 49  1  0  0  0  0
 49 50  1  0  0  0  0
 50 51  1  0  0  0  0
 48 52  1  0  0  0  0
 52 53  1  0  0  0  0
 45 54  1  0  0  0  0
 54 55  1  0  0  0  0
 41 56  1  0  0  0  0
 56 57  2  0  0  0  0
 57 58  1  0  0  0  0
 58 59  2  0  0  0  0
 58 60  1  0  0  0  0
 60 61  2  0  0  0  0
 61 62  1  0  0  0  0
 62 63  1  0  0  0  0
 62 64  2  0  0  0  0
 64 65  1  0  0  0  0
 64 66  1  0  0  0  0
 66 67  2  0  0  0  0
 67 68  1  0  0  0  0
 68 69  2  0  0  0  0
 69 70  1  0  0  0  0
 70 71  3  0  0  0  0
 69 72  1  0  0  0  0
 72 73  3  0  0  0  0
 15  2  1  0  0  0  0
 51 21  1  0  0  0  0
 68 57  1  0  0  0  0
 14  5  1  0  0  0  0
 50 25  2  0  0  0  0
 67 60  1  0  0  0  0
 12  7  1  0  0  0  0
 49 27  2  0  0  0  0
 47 28  2  0  0  0  0
 33 29  2  0  0  0  0
 46 34  2  0  0  0  0
 44 35  2  0  0  0  0
 43 37  2  0  0  0  0
  1 74  1  0  0  0  0
  6 75  1  0  0  0  0
  8 76  1  0  0  0  0
  9 77  1  0  0  0  0
 10 78  1  0  0  0  0
 11 79  1  0  0  0  0
 13 80  1  0  0  0  0
 23 81  1  0  0  0  0
 23 82  1  0  0  0  0
 24 83  1  0  0  0  0
 24 84  1  0  0  0  0
 24 85  1  0  0  0  0
 39 86  1  0  0  0  0
 39 87  1  0  0  0  0
 40 88  1  0  0  0  0
 40 89  1  0  0  0  0
 40 90  1  0  0  0  0
 52 91  1  0  0  0  0
 52 92  1  0  0  0  0
 53 93  1  0  0  0  0
 53 94  1  0  0  0  0
 53 95  1  0  0  0  0
 54 96  1  0  0  0  0
 54 97  1  0  0  0  0
 55 98  1  0  0  0  0
 55 99  1  0  0  0  0
 55100  1  0  0  0  0
 56101  1  0  0  0  0
 61102  1  0  0  0  0
 63103  1  0  0  0  0
 63104  1  0  0  0  0
 63105  1  0  0  0  0
 66106  1  0  0  0  0
M  END
