109

C          6.49560       -3.65650        3.70510
C          6.82950       -2.59890        4.51750
C          6.20380       -1.27490        4.51060
O          5.28300       -0.89080        3.80620
C          6.90990       -0.47850        5.52510
C          6.70590        0.82090        5.88750
C          7.51460        1.38760        6.89840
C          7.35560        2.72400        7.31320
C          8.15060        3.25110        8.29480
C          9.13790        2.46370        8.90480
C          9.31800        1.16150        8.52410
C          8.51850        0.58760        7.51530
C          8.70550       -0.75680        7.11640
C          7.91400       -1.28530        6.13220
C          7.87700       -2.61060        5.51890
C          8.69550       -3.65890        5.86050
C          8.67260       -4.94740        5.29020
N          8.71900       -6.02080        4.88110
C          9.69160       -3.59090        6.85630
N         10.51930       -3.60990        7.65220
C          5.50340       -3.78470        2.72890
C          5.29260       -4.97150        2.00380
C          6.05230       -6.24640        2.17350
C          5.48740       -7.06730        3.33620
C          4.22430       -4.84580        1.12660
S          3.48070       -5.97050        0.00300
C          2.34260       -4.73980       -0.42380
C          1.21140       -4.57610       -1.23190
C          0.50790       -5.50670       -2.02860
C         -0.72420       -5.10250       -2.63680
N         -1.30630       -6.08580       -3.30460
S         -0.37830       -7.40710       -3.18310
N          0.80000       -6.77470       -2.27030
C         -1.14220       -3.75970       -2.50330
C         -2.24340       -3.08820       -3.04690
S         -3.64450       -3.42980       -4.00090
C         -4.07560       -1.73100       -3.91380
C         -5.14770       -1.01420       -4.42420
C         -6.25710       -1.65790       -5.18930
C         -7.41260       -2.03610       -4.25840
C         -5.06850        0.34700       -4.07400
S         -3.62500        0.70500       -3.12140
C         -3.16130       -0.95380       -3.18000
C         -2.11870       -1.74120       -2.68500
N         -0.99620       -1.56280       -1.92150
C         -0.38060       -2.79420       -1.77740
C          0.75780       -3.23420       -1.05000
N          1.59120       -2.62000       -0.13240
C          2.53730       -3.52980        0.25340
C          3.60940       -3.58210        1.14890
S          4.36110       -2.51720        2.27630
C          1.41190       -1.41440        0.64520
C          0.15150       -1.48610        1.50360
C         -0.47680       -0.22490       -1.73780
C          0.78540        0.00100       -2.56610
C         -6.04410        1.28030       -4.42960
C         -6.13730        2.63010       -4.17830
C         -5.14030        3.44980       -3.48860
O         -4.09190        3.08130       -2.98300
C         -5.64220        4.83330       -3.53200
C         -5.06590        5.96910       -3.04280
C         -5.73020        7.20480       -3.21130
C         -5.18220        8.40980       -2.72740
C         -5.83320        9.59960       -2.90100
C         -7.06310        9.60730       -3.57220
F         -7.68850       10.78780       -3.73480
C         -7.63930        8.46740       -4.06030
C         -6.98300        7.23330       -3.88940
C         -7.55620        6.03700       -4.38240
C         -6.89630        4.85110       -4.20490
C         -7.23160        3.48230       -4.59410
C         -8.39670        3.10530       -5.21510
C         -9.42190        4.00150       -5.58170
N        -10.29490        4.67180       -5.90930
C         -8.75890        1.78880       -5.56440
N         -9.13300        0.74700       -5.87440
H          7.08580       -4.55350        3.83280
H          5.93790        1.41030        5.40870
H          6.59300        3.32540        6.83980
H          8.02280        4.27720        8.60600
H          9.75600        2.89410        9.67840
H         10.07720        0.55130        8.99100
H          9.47600       -1.33290        7.60320
H          7.11150       -6.05290        2.34880
H          5.95760       -6.82380        1.25170
H          6.03990       -7.99750        3.43100
H          4.43890       -7.29810        3.16210
H          5.57360       -6.52040        4.27210
H         -5.86640       -2.56370       -5.65730
H         -6.62710       -0.99880       -5.97560
H         -7.82580       -1.15230       -3.77840
H         -8.20200       -2.51510       -4.83000
H         -7.06900       -2.72370       -3.48920
H          2.28490       -1.33240        1.29700
H          1.41220       -0.53760       -0.00190
H         -0.73510       -1.64740        0.89460
H          0.03260       -0.56250        2.06330
H          0.23200       -2.30910        2.20980
H         -0.30860       -0.01670       -0.68160
H         -1.25740        0.45970       -2.07830
H          1.56390       -0.71260       -2.30540
H          1.16010        1.00750       -2.40150
H          0.56040       -0.11460       -3.62380
H         -6.85820        0.85110       -4.99770
H         -4.11410        5.92660       -2.53470
H         -4.23290        8.37850       -2.21380
H         -5.42780       10.53040       -2.53700
H         -8.58820        8.51070       -4.57170
H         -8.50480        6.09490       -4.89110
