
  xtb     01212212513D
 energy: -261.168373798304 gnorm: 0.000886177087 xtb: 6.4.1 (unknown)
154169  0     0  0            999 V2000
   -5.0750    0.0811    1.9513 C   0  0  0  0  0  0  0  0  0  0  0  0
   -4.5258    1.3349    1.8753 C   0  0  0  0  0  0  0  0  0  0  0  0
   -3.0657    1.5763    1.7886 C   0  0  0  0  0  0  0  0  0  0  0  0
   -2.1534    0.8036    2.0184 O   0  0  0  0  0  0  0  0  0  0  0  0
   -2.9186    2.9399    1.2616 C   0  0  0  0  0  0  0  0  0  0  0  0
   -1.7668    3.6080    0.9593 C   0  0  0  0  0  0  0  0  0  0  0  0
   -1.8460    4.9466    0.5174 C   0  0  0  0  0  0  0  0  0  0  0  0
   -0.6903    5.6889    0.2075 C   0  0  0  0  0  0  0  0  0  0  0  0
   -0.7893    6.9889   -0.2081 C   0  0  0  0  0  0  0  0  0  0  0  0
   -2.0465    7.6000   -0.3283 C   0  0  0  0  0  0  0  0  0  0  0  0
   -3.1884    6.9073   -0.0294 C   0  0  0  0  0  0  0  0  0  0  0  0
   -3.1235    5.5669    0.4005 C   0  0  0  0  0  0  0  0  0  0  0  0
   -4.2992    4.8445    0.7143 C   0  0  0  0  0  0  0  0  0  0  0  0
   -4.2017    3.5427    1.1292 C   0  0  0  0  0  0  0  0  0  0  0  0
   -5.2092    2.5595    1.5115 C   0  0  0  0  0  0  0  0  0  0  0  0
   -6.5632    2.7673    1.5698 C   0  0  0  0  0  0  0  0  0  0  0  0
   -7.4889    1.8119    2.0377 C   0  0  0  0  0  0  0  0  0  0  0  0
   -8.2866    1.0830    2.4257 N   0  0  0  0  0  0  0  0  0  0  0  0
   -7.1907    3.9679    1.1830 C   0  0  0  0  0  0  0  0  0  0  0  0
   -7.7514    4.9158    0.8583 N   0  0  0  0  0  0  0  0  0  0  0  0
   -4.3250   -1.0464    2.3595 C   0  0  0  0  0  0  0  0  0  0  0  0
   -3.3339   -1.1008    3.3219 C   0  0  0  0  0  0  0  0  0  0  0  0
   -2.5548   -2.2441    3.2064 C   0  0  0  0  0  0  0  0  0  0  0  0
   -0.9854   -2.6466    3.8463 S   0  0  0  0  0  0  0  0  0  0  0  0
   -0.7731   -3.7713    2.5434 C   0  0  0  0  0  0  0  0  0  0  0  0
    0.3996   -4.1479    1.8130 C   0  0  0  0  0  0  0  0  0  0  0  0
    1.6966   -3.6756    2.0146 C   0  0  0  0  0  0  0  0  0  0  0  0
    2.4698   -3.4888    0.8906 C   0  0  0  0  0  0  0  0  0  0  0  0
    3.5669   -2.4409    0.7490 C   0  0  0  0  0  0  0  0  0  0  0  0
    4.9372   -2.8816    1.2046 C   0  0  0  0  0  0  0  0  0  0  0  0
    6.0600   -2.1745    0.7913 C   0  0  0  0  0  0  0  0  0  0  0  0
    7.3280   -2.5495    1.1925 C   0  0  0  0  0  0  0  0  0  0  0  0
    7.4956   -3.6574    2.0127 C   0  0  0  0  0  0  0  0  0  0  0  0
    9.0532   -4.2256    2.6208 S   0  0  0  0  0  0  0  0  0  0  0  0
   10.2948   -3.4497    1.5285 C   0  0  0  0  0  0  0  0  0  0  0  0
   10.2466   -4.0051    0.1182 C   0  0  0  0  0  0  0  0  0  0  0  0
    6.3741   -4.3687    2.4303 C   0  0  0  0  0  0  0  0  0  0  0  0
    5.1103   -3.9838    2.0326 C   0  0  0  0  0  0  0  0  0  0  0  0
    3.0728   -1.1635    1.4245 C   0  0  0  0  0  0  0  0  0  0  0  0
    1.7961   -0.7103    1.0955 C   0  0  0  0  0  0  0  0  0  0  0  0
    1.2803    0.4368    1.6579 C   0  0  0  0  0  0  0  0  0  0  0  0
    2.0480    1.1607    2.5604 C   0  0  0  0  0  0  0  0  0  0  0  0
    1.4282    2.6714    3.2711 S   0  0  0  0  0  0  0  0  0  0  0  0
   -0.0667    2.0290    4.1250 C   0  0  0  0  0  0  0  0  0  0  0  0
   -0.8993    3.1864    4.6402 C   0  0  0  0  0  0  0  0  0  0  0  0
    3.3244    0.7292    2.8828 C   0  0  0  0  0  0  0  0  0  0  0  0
    3.8316   -0.4322    2.3233 C   0  0  0  0  0  0  0  0  0  0  0  0
    3.5108   -2.2000   -0.7420 C   0  0  0  0  0  0  0  0  0  0  0  0
    2.6849   -3.1267   -1.3608 C   0  0  0  0  0  0  0  0  0  0  0  0
    2.0164   -3.9236   -0.3770 C   0  0  0  0  0  0  0  0  0  0  0  0
    0.8081   -4.6026   -0.5347 C   0  0  0  0  0  0  0  0  0  0  0  0
   -0.0318   -4.6315    0.5551 C   0  0  0  0  0  0  0  0  0  0  0  0
   -1.5539   -4.6770    0.4800 C   0  0  0  0  0  0  0  0  0  0  0  0
   -2.1698   -6.0555    0.5068 C   0  0  0  0  0  0  0  0  0  0  0  0
   -3.5554   -6.1782    0.5713 C   0  0  0  0  0  0  0  0  0  0  0  0
   -4.1454   -7.4215    0.6265 C   0  0  0  0  0  0  0  0  0  0  0  0
   -3.3612   -8.5737    0.6173 C   0  0  0  0  0  0  0  0  0  0  0  0
   -4.2276  -10.1131    0.6544 S   0  0  0  0  0  0  0  0  0  0  0  0
   -2.9950  -11.3191    1.2579 C   0  0  0  0  0  0  0  0  0  0  0  0
   -2.5858  -11.0497    2.6930 C   0  0  0  0  0  0  0  0  0  0  0  0
   -1.9809   -8.4560    0.5434 C   0  0  0  0  0  0  0  0  0  0  0  0
   -1.3938   -7.2035    0.4962 C   0  0  0  0  0  0  0  0  0  0  0  0
   -1.9474   -3.8602   -0.7426 C   0  0  0  0  0  0  0  0  0  0  0  0
   -1.6472   -2.5024   -0.7641 C   0  0  0  0  0  0  0  0  0  0  0  0
   -1.8858   -1.7298   -1.8831 C   0  0  0  0  0  0  0  0  0  0  0  0
   -2.4402   -2.3133   -3.0156 C   0  0  0  0  0  0  0  0  0  0  0  0
   -2.7740   -1.4483   -4.5136 S   0  0  0  0  0  0  0  0  0  0  0  0
   -2.4512    0.3057   -4.0961 C   0  0  0  0  0  0  0  0  0  0  0  0
   -2.7895    1.1684   -5.2978 C   0  0  0  0  0  0  0  0  0  0  0  0
   -2.7438   -3.6725   -3.0010 C   0  0  0  0  0  0  0  0  0  0  0  0
   -2.4930   -4.4384   -1.8808 C   0  0  0  0  0  0  0  0  0  0  0  0
   -1.8984   -3.9351    1.7487 C   0  0  0  0  0  0  0  0  0  0  0  0
   -2.9248   -3.0741    2.1298 C   0  0  0  0  0  0  0  0  0  0  0  0
   -4.3764   -2.5192    1.3834 S   0  0  0  0  0  0  0  0  0  0  0  0
    2.2260   -2.6986   -2.9772 S   0  0  0  0  0  0  0  0  0  0  0  0
    3.0173   -1.1601   -2.7676 C   0  0  0  0  0  0  0  0  0  0  0  0
    2.8698    0.0648   -3.4038 C   0  0  0  0  0  0  0  0  0  0  0  0
    3.4865    1.0901   -2.7082 C   0  0  0  0  0  0  0  0  0  0  0  0
    4.3635    0.4936   -1.2943 S   0  0  0  0  0  0  0  0  0  0  0  0
    3.7187   -1.0834   -1.5476 C   0  0  0  0  0  0  0  0  0  0  0  0
    3.3566    2.4845   -2.8795 C   0  0  0  0  0  0  0  0  0  0  0  0
    2.1787    3.1012   -3.2150 C   0  0  0  0  0  0  0  0  0  0  0  0
    0.8505    2.4716   -3.0445 C   0  0  0  0  0  0  0  0  0  0  0  0
    0.5709    1.2962   -2.9224 O   0  0  0  0  0  0  0  0  0  0  0  0
   -0.1059    3.5975   -2.9853 C   0  0  0  0  0  0  0  0  0  0  0  0
   -1.4612    3.5499   -2.7419 C   0  0  0  0  0  0  0  0  0  0  0  0
   -2.1850    4.7387   -2.8247 C   0  0  0  0  0  0  0  0  0  0  0  0
   -3.6585    4.7632   -2.6330 C   0  0  0  0  0  0  0  0  0  0  0  0
   -4.3352    5.7556   -2.7254 O   0  0  0  0  0  0  0  0  0  0  0  0
   -4.1551    3.5483   -2.3602 O   0  0  0  0  0  0  0  0  0  0  0  0
   -5.5684    3.4621   -2.2351 C   0  0  0  0  0  0  0  0  0  0  0  0
   -1.5358    5.9341   -3.1313 C   0  0  0  0  0  0  0  0  0  0  0  0
   -0.1654    5.9852   -3.3379 C   0  0  0  0  0  0  0  0  0  0  0  0
    0.5599    4.8057   -3.2603 C   0  0  0  0  0  0  0  0  0  0  0  0
    1.9843    4.5206   -3.4225 C   0  0  0  0  0  0  0  0  0  0  0  0
    2.9563    5.4217   -3.7676 C   0  0  0  0  0  0  0  0  0  0  0  0
    2.7241    6.7991   -3.9580 C   0  0  0  0  0  0  0  0  0  0  0  0
    2.5915    7.9293   -4.1075 N   0  0  0  0  0  0  0  0  0  0  0  0
    4.3035    5.0715   -4.0021 C   0  0  0  0  0  0  0  0  0  0  0  0
    5.4060    4.8441   -4.2270 N   0  0  0  0  0  0  0  0  0  0  0  0
   -6.0724   -0.0937    1.5667 H   0  0  0  0  0  0  0  0  0  0  0  0
   -0.8016    3.1353    1.0690 H   0  0  0  0  0  0  0  0  0  0  0  0
    0.2734    5.2115    0.3117 H   0  0  0  0  0  0  0  0  0  0  0  0
    0.1003    7.5542   -0.4431 H   0  0  0  0  0  0  0  0  0  0  0  0
   -2.1061    8.6266   -0.6563 H   0  0  0  0  0  0  0  0  0  0  0  0
   -4.1568    7.3742   -0.1254 H   0  0  0  0  0  0  0  0  0  0  0  0
   -5.2492    5.3468    0.6184 H   0  0  0  0  0  0  0  0  0  0  0  0
   -3.1780   -0.3271    4.0504 H   0  0  0  0  0  0  0  0  0  0  0  0
    1.9866   -3.2663    2.9711 H   0  0  0  0  0  0  0  0  0  0  0  0
    5.9460   -1.3077    0.1565 H   0  0  0  0  0  0  0  0  0  0  0  0
    8.1716   -1.9636    0.8640 H   0  0  0  0  0  0  0  0  0  0  0  0
   10.1562   -2.3696    1.5559 H   0  0  0  0  0  0  0  0  0  0  0  0
   11.2435   -3.6892    2.0089 H   0  0  0  0  0  0  0  0  0  0  0  0
   10.4136   -5.0796    0.1324 H   0  0  0  0  0  0  0  0  0  0  0  0
    9.2799   -3.8144   -0.3435 H   0  0  0  0  0  0  0  0  0  0  0  0
   11.0206   -3.5398   -0.4892 H   0  0  0  0  0  0  0  0  0  0  0  0
    6.5072   -5.2264    3.0717 H   0  0  0  0  0  0  0  0  0  0  0  0
    4.2545   -4.5514    2.3642 H   0  0  0  0  0  0  0  0  0  0  0  0
    1.1978   -1.2589    0.3815 H   0  0  0  0  0  0  0  0  0  0  0  0
    0.2839    0.7594    1.3974 H   0  0  0  0  0  0  0  0  0  0  0  0
   -0.6262    1.4256    3.4121 H   0  0  0  0  0  0  0  0  0  0  0  0
    0.2827    1.3977    4.9431 H   0  0  0  0  0  0  0  0  0  0  0  0
   -0.3251    3.7906    5.3393 H   0  0  0  0  0  0  0  0  0  0  0  0
   -1.2195    3.8233    3.8176 H   0  0  0  0  0  0  0  0  0  0  0  0
   -1.7822    2.8065    5.1512 H   0  0  0  0  0  0  0  0  0  0  0  0
    3.9193    1.3026    3.5769 H   0  0  0  0  0  0  0  0  0  0  0  0
    4.8210   -0.7647    2.5981 H   0  0  0  0  0  0  0  0  0  0  0  0
    0.4632   -4.8866   -1.5177 H   0  0  0  0  0  0  0  0  0  0  0  0
   -4.1717   -5.2907    0.5743 H   0  0  0  0  0  0  0  0  0  0  0  0
   -5.2189   -7.5179    0.6772 H   0  0  0  0  0  0  0  0  0  0  0  0
   -2.1447  -11.3211    0.5767 H   0  0  0  0  0  0  0  0  0  0  0  0
   -3.5098  -12.2759    1.1722 H   0  0  0  0  0  0  0  0  0  0  0  0
   -2.1156  -10.0728    2.7867 H   0  0  0  0  0  0  0  0  0  0  0  0
   -1.8808  -11.8091    3.0260 H   0  0  0  0  0  0  0  0  0  0  0  0
   -3.4577  -11.0745    3.3424 H   0  0  0  0  0  0  0  0  0  0  0  0
   -1.3477   -9.3286    0.5139 H   0  0  0  0  0  0  0  0  0  0  0  0
   -0.3175   -7.1261    0.4444 H   0  0  0  0  0  0  0  0  0  0  0  0
   -1.2070   -2.0331    0.1052 H   0  0  0  0  0  0  0  0  0  0  0  0
   -1.6155   -0.6867   -1.8630 H   0  0  0  0  0  0  0  0  0  0  0  0
   -3.0872    0.5578   -3.2461 H   0  0  0  0  0  0  0  0  0  0  0  0
   -1.3987    0.4038   -3.8281 H   0  0  0  0  0  0  0  0  0  0  0  0
   -3.8322    1.0390   -5.5791 H   0  0  0  0  0  0  0  0  0  0  0  0
   -2.6176    2.2172   -5.0618 H   0  0  0  0  0  0  0  0  0  0  0  0
   -2.1685    0.8957   -6.1479 H   0  0  0  0  0  0  0  0  0  0  0  0
   -3.1694   -4.1235   -3.8842 H   0  0  0  0  0  0  0  0  0  0  0  0
   -2.7209   -5.4935   -1.8973 H   0  0  0  0  0  0  0  0  0  0  0  0
    2.3344    0.2154   -4.3221 H   0  0  0  0  0  0  0  0  0  0  0  0
    4.2064    3.0937   -2.5947 H   0  0  0  0  0  0  0  0  0  0  0  0
   -1.9478    2.6184   -2.5043 H   0  0  0  0  0  0  0  0  0  0  0  0
   -5.9478    4.2570   -1.5911 H   0  0  0  0  0  0  0  0  0  0  0  0
   -6.0366    3.5533   -3.2170 H   0  0  0  0  0  0  0  0  0  0  0  0
   -5.7790    2.4846   -1.8080 H   0  0  0  0  0  0  0  0  0  0  0  0
   -2.1329    6.8303   -3.2050 H   0  0  0  0  0  0  0  0  0  0  0  0
    0.3107    6.9268   -3.5575 H   0  0  0  0  0  0  0  0  0  0  0  0
  1  2  2  0  0  0  0
  2  3  1  0  0  0  0
  3  4  2  0  0  0  0
  3  5  1  0  0  0  0
  5  6  2  0  0  0  0
  6  7  1  0  0  0  0
  7  8  2  0  0  0  0
  8  9  1  0  0  0  0
  9 10  2  0  0  0  0
 10 11  1  0  0  0  0
 11 12  2  0  0  0  0
 12 13  1  0  0  0  0
 13 14  2  0  0  0  0
 14 15  1  0  0  0  0
 15 16  2  0  0  0  0
 16 17  1  0  0  0  0
 17 18  3  0  0  0  0
 16 19  1  0  0  0  0
 19 20  3  0  0  0  0
  1 21  1  0  0  0  0
 21 22  2  0  0  0  0
 22 23  1  0  0  0  0
 23 24  1  0  0  0  0
 24 25  1  0  0  0  0
 25 26  1  0  0  0  0
 26 27  2  0  0  0  0
 27 28  1  0  0  0  0
 28 29  1  0  0  0  0
 29 30  1  0  0  0  0
 30 31  2  0  0  0  0
 31 32  1  0  0  0  0
 32 33  2  0  0  0  0
 33 34  1  0  0  0  0
 34 35  1  0  0  0  0
 35 36  1  0  0  0  0
 33 37  1  0  0  0  0
 37 38  2  0  0  0  0
 29 39  1  0  0  0  0
 39 40  2  0  0  0  0
 40 41  1  0  0  0  0
 41 42  2  0  0  0  0
 42 43  1  0  0  0  0
 43 44  1  0  0  0  0
 44 45  1  0  0  0  0
 42 46  1  0  0  0  0
 46 47  2  0  0  0  0
 29 48  1  0  0  0  0
 48 49  2  0  0  0  0
 49 50  1  0  0  0  0
 50 51  1  0  0  0  0
 51 52  2  0  0  0  0
 52 53  1  0  0  0  0
 53 54  1  0  0  0  0
 54 55  2  0  0  0  0
 55 56  1  0  0  0  0
 56 57  2  0  0  0  0
 57 58  1  0  0  0  0
 58 59  1  0  0  0  0
 59 60  1  0  0  0  0
 57 61  1  0  0  0  0
 61 62  2  0  0  0  0
 53 63  1  0  0  0  0
 63 64  2  0  0  0  0
 64 65  1  0  0  0  0
 65 66  2  0  0  0  0
 66 67  1  0  0  0  0
 67 68  1  0  0  0  0
 68 69  1  0  0  0  0
 66 70  1  0  0  0  0
 70 71  2  0  0  0  0
 53 72  1  0  0  0  0
 72 73  1  0  0  0  0
 73 74  1  0  0  0  0
 49 75  1  0  0  0  0
 75 76  1  0  0  0  0
 76 77  1  0  0  0  0
 77 78  2  0  0  0  0
 78 79  1  0  0  0  0
 79 80  1  0  0  0  0
 78 81  1  0  0  0  0
 81 82  2  0  0  0  0
 82 83  1  0  0  0  0
 83 84  2  0  0  0  0
 83 85  1  0  0  0  0
 85 86  2  0  0  0  0
 86 87  1  0  0  0  0
 87 88  1  0  0  0  0
 88 89  2  0  0  0  0
 88 90  1  0  0  0  0
 90 91  1  0  0  0  0
 87 92  2  0  0  0  0
 92 93  1  0  0  0  0
 93 94  2  0  0  0  0
 94 95  1  0  0  0  0
 95 96  2  0  0  0  0
 96 97  1  0  0  0  0
 97 98  3  0  0  0  0
 96 99  1  0  0  0  0
 99100  3  0  0  0  0
 15  2  1  0  0  0  0
 74 21  1  0  0  0  0
 80 76  2  0  0  0  0
 95 82  1  0  0  0  0
 14  5  1  0  0  0  0
 73 23  2  0  0  0  0
 94 85  1  0  0  0  0
 12  7  1  0  0  0  0
 72 25  2  0  0  0  0
 52 26  1  0  0  0  0
 62 54  1  0  0  0  0
 71 63  1  0  0  0  0
 50 28  2  0  0  0  0
 38 30  1  0  0  0  0
 47 39  1  0  0  0  0
 80 48  1  0  0  0  0
  1101  1  0  0  0  0
  6102  1  0  0  0  0
  8103  1  0  0  0  0
  9104  1  0  0  0  0
 10105  1  0  0  0  0
 11106  1  0  0  0  0
 13107  1  0  0  0  0
 22108  1  0  0  0  0
 27109  1  0  0  0  0
 31110  1  0  0  0  0
 32111  1  0  0  0  0
 35112  1  0  0  0  0
 35113  1  0  0  0  0
 36114  1  0  0  0  0
 36115  1  0  0  0  0
 36116  1  0  0  0  0
 37117  1  0  0  0  0
 38118  1  0  0  0  0
 40119  1  0  0  0  0
 41120  1  0  0  0  0
 44121  1  0  0  0  0
 44122  1  0  0  0  0
 45123  1  0  0  0  0
 45124  1  0  0  0  0
 45125  1  0  0  0  0
 46126  1  0  0  0  0
 47127  1  0  0  0  0
 51128  1  0  0  0  0
 55129  1  0  0  0  0
 56130  1  0  0  0  0
 59131  1  0  0  0  0
 59132  1  0  0  0  0
 60133  1  0  0  0  0
 60134  1  0  0  0  0
 60135  1  0  0  0  0
 61136  1  0  0  0  0
 62137  1  0  0  0  0
 64138  1  0  0  0  0
 65139  1  0  0  0  0
 68140  1  0  0  0  0
 68141  1  0  0  0  0
 69142  1  0  0  0  0
 69143  1  0  0  0  0
 69144  1  0  0  0  0
 70145  1  0  0  0  0
 71146  1  0  0  0  0
 77147  1  0  0  0  0
 81148  1  0  0  0  0
 86149  1  0  0  0  0
 91150  1  0  0  0  0
 91151  1  0  0  0  0
 91152  1  0  0  0  0
 92153  1  0  0  0  0
 93154  1  0  0  0  0
M  END
