
  xtb     02022206363D
 energy: -214.535164040922 gnorm: 0.000377463235 xtb: 6.4.1 (unknown)
121133  0     0  0            999 V2000
    0.5239    0.3233   -7.2483 C   0  0  0  0  0  0  0  0  0  0  0  0
   -0.4744    1.1074   -7.7877 C   0  0  0  0  0  0  0  0  0  0  0  0
   -0.4719    1.2147   -9.2429 C   0  0  0  0  0  0  0  0  0  0  0  0
    0.3486    0.6647   -9.9535 O   0  0  0  0  0  0  0  0  0  0  0  0
   -1.4575    2.0203   -9.7993 N   0  0  0  0  0  0  0  0  0  0  0  0
   -1.4531    2.1431  -11.2528 C   0  0  0  0  0  0  0  0  0  0  0  0
   -2.3782    1.1209  -11.8989 C   0  0  0  0  0  0  0  0  0  0  0  0
   -2.4213    2.6607   -9.0775 C   0  0  0  0  0  0  0  0  0  0  0  0
   -3.5721    3.5786   -9.8266 S   0  0  0  0  0  0  0  0  0  0  0  0
   -2.4120    2.5299   -7.7156 N   0  0  0  0  0  0  0  0  0  0  0  0
   -3.4222    3.2248   -6.9255 C   0  0  0  0  0  0  0  0  0  0  0  0
   -2.9899    4.6496   -6.6063 C   0  0  0  0  0  0  0  0  0  0  0  0
   -1.4643    1.8072   -7.0104 C   0  0  0  0  0  0  0  0  0  0  0  0
   -1.5185    1.7831   -5.7855 O   0  0  0  0  0  0  0  0  0  0  0  0
    0.8943    0.0245   -5.9389 C   0  0  0  0  0  0  0  0  0  0  0  0
    2.0119   -0.7805   -5.6470 C   0  0  0  0  0  0  0  0  0  0  0  0
    2.8990   -1.3978   -6.6442 C   0  0  0  0  0  0  0  0  0  0  0  0
    2.8848   -2.7892   -6.7256 C   0  0  0  0  0  0  0  0  0  0  0  0
    3.6968   -3.4522   -7.6228 C   0  0  0  0  0  0  0  0  0  0  0  0
    4.5520   -2.7255   -8.4342 C   0  0  0  0  0  0  0  0  0  0  0  0
    4.5877   -1.3480   -8.3374 C   0  0  0  0  0  0  0  0  0  0  0  0
    3.7646   -0.6583   -7.4541 C   0  0  0  0  0  0  0  0  0  0  0  0
    3.8743    0.8397   -7.3602 C   0  0  0  0  0  0  0  0  0  0  0  0
    3.5829    1.5372   -8.6902 C   0  0  0  0  0  0  0  0  0  0  0  0
    2.1583   -0.9764   -4.2802 C   0  0  0  0  0  0  0  0  0  0  0  0
    3.3495   -1.8458   -3.3318 S   0  0  0  0  0  0  0  0  0  0  0  0
    2.5262   -1.3324   -1.8983 C   0  0  0  0  0  0  0  0  0  0  0  0
    2.6626   -1.4212   -0.5084 C   0  0  0  0  0  0  0  0  0  0  0  0
    3.6935   -1.9885    0.2731 C   0  0  0  0  0  0  0  0  0  0  0  0
    3.6523   -1.8229    1.6941 C   0  0  0  0  0  0  0  0  0  0  0  0
    4.7020   -2.3567    2.2981 N   0  0  0  0  0  0  0  0  0  0  0  0
    5.6597   -3.0160    1.1710 S   0  0  0  0  0  0  0  0  0  0  0  0
    4.7709   -2.6433   -0.1298 N   0  0  0  0  0  0  0  0  0  0  0  0
    2.5315   -1.1869    2.2726 C   0  0  0  0  0  0  0  0  0  0  0  0
    2.1905   -1.0035    3.6168 C   0  0  0  0  0  0  0  0  0  0  0  0
    2.8484   -1.3085    5.1880 S   0  0  0  0  0  0  0  0  0  0  0  0
    1.3686   -0.6786    5.8872 C   0  0  0  0  0  0  0  0  0  0  0  0
    0.9371   -0.5406    7.1968 C   0  0  0  0  0  0  0  0  0  0  0  0
    1.7534   -0.8712    8.3747 C   0  0  0  0  0  0  0  0  0  0  0  0
    1.4708   -1.9719    9.1865 C   0  0  0  0  0  0  0  0  0  0  0  0
    0.3788   -2.9446    8.8415 C   0  0  0  0  0  0  0  0  0  0  0  0
    0.9025   -3.9924    7.8566 C   0  0  0  0  0  0  0  0  0  0  0  0
    2.2828   -2.2072   10.2875 C   0  0  0  0  0  0  0  0  0  0  0  0
    3.3473   -1.3776   10.5854 C   0  0  0  0  0  0  0  0  0  0  0  0
    3.6318   -0.2983    9.7668 C   0  0  0  0  0  0  0  0  0  0  0  0
    2.8393   -0.0500    8.6633 C   0  0  0  0  0  0  0  0  0  0  0  0
   -0.3623    0.0017    7.2639 C   0  0  0  0  0  0  0  0  0  0  0  0
   -1.0292    0.3199    5.6631 S   0  0  0  0  0  0  0  0  0  0  0  0
    0.4210   -0.2593    4.9321 C   0  0  0  0  0  0  0  0  0  0  0  0
    0.9099   -0.4351    3.6364 C   0  0  0  0  0  0  0  0  0  0  0  0
    0.4648   -0.2480    2.3562 N   0  0  0  0  0  0  0  0  0  0  0  0
    1.4487   -0.6795    1.4886 C   0  0  0  0  0  0  0  0  0  0  0  0
    1.5644   -0.7117    0.0701 C   0  0  0  0  0  0  0  0  0  0  0  0
    0.8192   -0.1742   -0.9613 N   0  0  0  0  0  0  0  0  0  0  0  0
    1.3916   -0.5502   -2.1448 C   0  0  0  0  0  0  0  0  0  0  0  0
    1.1782   -0.3256   -3.5083 C   0  0  0  0  0  0  0  0  0  0  0  0
    0.0531    0.5463   -4.4828 S   0  0  0  0  0  0  0  0  0  0  0  0
   -0.2706    0.7739   -0.9892 C   0  0  0  0  0  0  0  0  0  0  0  0
   -1.5970    0.1089   -1.3574 C   0  0  0  0  0  0  0  0  0  0  0  0
   -0.9039    0.1671    2.1507 C   0  0  0  0  0  0  0  0  0  0  0  0
   -1.0871    1.6683    2.3737 C   0  0  0  0  0  0  0  0  0  0  0  0
   -0.9938    0.2466    8.4832 C   0  0  0  0  0  0  0  0  0  0  0  0
   -2.2475    0.7465    8.7584 C   0  0  0  0  0  0  0  0  0  0  0  0
   -3.2225    1.2022    7.7707 C   0  0  0  0  0  0  0  0  0  0  0  0
   -3.1209    1.2001    6.5556 O   0  0  0  0  0  0  0  0  0  0  0  0
   -4.3867    1.6878    8.5409 C   0  0  0  0  0  0  0  0  0  0  0  0
   -5.5661    2.2243    8.0657 C   0  0  0  0  0  0  0  0  0  0  0  0
   -6.5171    2.6093    8.9971 C   0  0  0  0  0  0  0  0  0  0  0  0
   -7.6769    3.1346    8.5819 F   0  0  0  0  0  0  0  0  0  0  0  0
   -6.2770    2.4542   10.3619 C   0  0  0  0  0  0  0  0  0  0  0  0
   -7.2126    2.8346   11.2396 F   0  0  0  0  0  0  0  0  0  0  0  0
   -5.0908    1.9141   10.8381 C   0  0  0  0  0  0  0  0  0  0  0  0
   -4.1343    1.5267    9.9134 C   0  0  0  0  0  0  0  0  0  0  0  0
   -2.8081    0.9264   10.0800 C   0  0  0  0  0  0  0  0  0  0  0  0
   -2.2464    0.5831   11.2830 C   0  0  0  0  0  0  0  0  0  0  0  0
   -2.8668    0.7993   12.5319 C   0  0  0  0  0  0  0  0  0  0  0  0
   -3.3149    0.9515   13.5777 N   0  0  0  0  0  0  0  0  0  0  0  0
   -0.9971   -0.0459   11.4686 C   0  0  0  0  0  0  0  0  0  0  0  0
   -0.0061   -0.5695   11.7204 N   0  0  0  0  0  0  0  0  0  0  0  0
    1.1552   -0.1477   -7.9973 H   0  0  0  0  0  0  0  0  0  0  0  0
   -0.4242    1.9742  -11.5754 H   0  0  0  0  0  0  0  0  0  0  0  0
   -1.7624    3.1572  -11.5109 H   0  0  0  0  0  0  0  0  0  0  0  0
   -3.4049    1.2795  -11.5774 H   0  0  0  0  0  0  0  0  0  0  0  0
   -2.3323    1.2238  -12.9789 H   0  0  0  0  0  0  0  0  0  0  0  0
   -2.0703    0.1134  -11.6292 H   0  0  0  0  0  0  0  0  0  0  0  0
   -4.3549    3.2259   -7.4914 H   0  0  0  0  0  0  0  0  0  0  0  0
   -3.5473    2.6542   -6.0036 H   0  0  0  0  0  0  0  0  0  0  0  0
   -2.8598    5.2203   -7.5227 H   0  0  0  0  0  0  0  0  0  0  0  0
   -2.0537    4.6429   -6.0531 H   0  0  0  0  0  0  0  0  0  0  0  0
   -3.7514    5.1328   -6.0013 H   0  0  0  0  0  0  0  0  0  0  0  0
    2.2173   -3.3445   -6.0829 H   0  0  0  0  0  0  0  0  0  0  0  0
    3.6675   -4.5295   -7.6839 H   0  0  0  0  0  0  0  0  0  0  0  0
    5.1984   -3.2337   -9.1340 H   0  0  0  0  0  0  0  0  0  0  0  0
    5.2763   -0.7906   -8.9547 H   0  0  0  0  0  0  0  0  0  0  0  0
    4.8927    1.0912   -7.0481 H   0  0  0  0  0  0  0  0  0  0  0  0
    3.1944    1.2178   -6.5953 H   0  0  0  0  0  0  0  0  0  0  0  0
    3.6119    2.6164   -8.5563 H   0  0  0  0  0  0  0  0  0  0  0  0
    4.3219    1.2684   -9.4401 H   0  0  0  0  0  0  0  0  0  0  0  0
    2.6030    1.2625   -9.0722 H   0  0  0  0  0  0  0  0  0  0  0  0
   -0.4753   -2.4312    8.3966 H   0  0  0  0  0  0  0  0  0  0  0  0
    0.0374   -3.4406    9.7516 H   0  0  0  0  0  0  0  0  0  0  0  0
    1.7443   -4.5287    8.2881 H   0  0  0  0  0  0  0  0  0  0  0  0
    0.1212   -4.7085    7.6127 H   0  0  0  0  0  0  0  0  0  0  0  0
    1.2375   -3.5169    6.9373 H   0  0  0  0  0  0  0  0  0  0  0  0
    2.0674   -3.0523   10.9239 H   0  0  0  0  0  0  0  0  0  0  0  0
    3.9566   -1.5741   11.4544 H   0  0  0  0  0  0  0  0  0  0  0  0
    4.4655    0.3511    9.9871 H   0  0  0  0  0  0  0  0  0  0  0  0
    3.0466    0.7934    8.0204 H   0  0  0  0  0  0  0  0  0  0  0  0
   -0.3260    1.2908   -0.0358 H   0  0  0  0  0  0  0  0  0  0  0  0
   -0.0344    1.5165   -1.7588 H   0  0  0  0  0  0  0  0  0  0  0  0
   -1.7957   -0.7623   -0.7362 H   0  0  0  0  0  0  0  0  0  0  0  0
   -2.4090    0.8204   -1.2386 H   0  0  0  0  0  0  0  0  0  0  0  0
   -1.5765   -0.2144   -2.3942 H   0  0  0  0  0  0  0  0  0  0  0  0
   -1.2295   -0.1387    1.1608 H   0  0  0  0  0  0  0  0  0  0  0  0
   -1.5186   -0.3665    2.8835 H   0  0  0  0  0  0  0  0  0  0  0  0
   -0.3682    2.2503    1.8003 H   0  0  0  0  0  0  0  0  0  0  0  0
   -2.0916    1.9616    2.0832 H   0  0  0  0  0  0  0  0  0  0  0  0
   -0.9533    1.9096    3.4244 H   0  0  0  0  0  0  0  0  0  0  0  0
   -0.3751   -0.0102    9.3354 H   0  0  0  0  0  0  0  0  0  0  0  0
   -5.7469    2.3415    7.0092 H   0  0  0  0  0  0  0  0  0  0  0  0
   -4.9567    1.8167   11.9026 H   0  0  0  0  0  0  0  0  0  0  0  0
  1  2  2  0  0  0  0
  2  3  1  0  0  0  0
  3  4  2  0  0  0  0
  3  5  1  0  0  0  0
  5  6  1  0  0  0  0
  6  7  1  0  0  0  0
  5  8  1  0  0  0  0
  8  9  2  0  0  0  0
  8 10  1  0  0  0  0
 10 11  1  0  0  0  0
 11 12  1  0  0  0  0
 10 13  1  0  0  0  0
 13 14  2  0  0  0  0
  1 15  1  0  0  0  0
 15 16  2  0  0  0  0
 16 17  1  0  0  0  0
 17 18  2  0  0  0  0
 18 19  1  0  0  0  0
 19 20  2  0  0  0  0
 20 21  1  0  0  0  0
 21 22  2  0  0  0  0
 22 23  1  0  0  0  0
 23 24  1  0  0  0  0
 16 25  1  0  0  0  0
 25 26  1  0  0  0  0
 26 27  1  0  0  0  0
 27 28  1  0  0  0  0
 28 29  1  0  0  0  0
 29 30  1  0  0  0  0
 30 31  2  0  0  0  0
 31 32  1  0  0  0  0
 32 33  1  0  0  0  0
 30 34  1  0  0  0  0
 34 35  1  0  0  0  0
 35 36  1  0  0  0  0
 36 37  1  0  0  0  0
 37 38  1  0  0  0  0
 38 39  1  0  0  0  0
 39 40  2  0  0  0  0
 40 41  1  0  0  0  0
 41 42  1  0  0  0  0
 40 43  1  0  0  0  0
 43 44  2  0  0  0  0
 44 45  1  0  0  0  0
 45 46  2  0  0  0  0
 38 47  2  0  0  0  0
 47 48  1  0  0  0  0
 48 49  1  0  0  0  0
 49 50  1  0  0  0  0
 50 51  1  0  0  0  0
 51 52  1  0  0  0  0
 52 53  1  0  0  0  0
 53 54  1  0  0  0  0
 54 55  1  0  0  0  0
 55 56  1  0  0  0  0
 56 57  1  0  0  0  0
 54 58  1  0  0  0  0
 58 59  1  0  0  0  0
 51 60  1  0  0  0  0
 60 61  1  0  0  0  0
 47 62  1  0  0  0  0
 62 63  2  0  0  0  0
 63 64  1  0  0  0  0
 64 65  2  0  0  0  0
 64 66  1  0  0  0  0
 66 67  2  0  0  0  0
 67 68  1  0  0  0  0
 68 69  1  0  0  0  0
 68 70  2  0  0  0  0
 70 71  1  0  0  0  0
 70 72  1  0  0  0  0
 72 73  2  0  0  0  0
 73 74  1  0  0  0  0
 74 75  2  0  0  0  0
 75 76  1  0  0  0  0
 76 77  3  0  0  0  0
 75 78  1  0  0  0  0
 78 79  3  0  0  0  0
 13  2  1  0  0  0  0
 57 15  1  0  0  0  0
 74 63  1  0  0  0  0
 22 17  1  0  0  0  0
 56 25  2  0  0  0  0
 73 66  1  0  0  0  0
 55 27  2  0  0  0  0
 53 28  2  0  0  0  0
 33 29  2  0  0  0  0
 52 34  2  0  0  0  0
 50 35  2  0  0  0  0
 49 37  2  0  0  0  0
 46 39  1  0  0  0  0
  1 80  1  0  0  0  0
  6 81  1  0  0  0  0
  6 82  1  0  0  0  0
  7 83  1  0  0  0  0
  7 84  1  0  0  0  0
  7 85  1  0  0  0  0
 11 86  1  0  0  0  0
 11 87  1  0  0  0  0
 12 88  1  0  0  0  0
 12 89  1  0  0  0  0
 12 90  1  0  0  0  0
 18 91  1  0  0  0  0
 19 92  1  0  0  0  0
 20 93  1  0  0  0  0
 21 94  1  0  0  0  0
 23 95  1  0  0  0  0
 23 96  1  0  0  0  0
 24 97  1  0  0  0  0
 24 98  1  0  0  0  0
 24 99  1  0  0  0  0
 41100  1  0  0  0  0
 41101  1  0  0  0  0
 42102  1  0  0  0  0
 42103  1  0  0  0  0
 42104  1  0  0  0  0
 43105  1  0  0  0  0
 44106  1  0  0  0  0
 45107  1  0  0  0  0
 46108  1  0  0  0  0
 58109  1  0  0  0  0
 58110  1  0  0  0  0
 59111  1  0  0  0  0
 59112  1  0  0  0  0
 59113  1  0  0  0  0
 60114  1  0  0  0  0
 60115  1  0  0  0  0
 61116  1  0  0  0  0
 61117  1  0  0  0  0
 61118  1  0  0  0  0
 62119  1  0  0  0  0
 67120  1  0  0  0  0
 72121  1  0  0  0  0
M  END
