
  xtb     02022219043D
 energy: -194.077428344471 gnorm: 0.000635325310 xtb: 6.4.1 (unknown)
114127  0     0  0            999 V2000
    6.3523   -5.0793    4.5543 C   0  0  0  0  0  0  0  0  0  0  0  0
    5.9989   -5.8968    5.6026 C   0  0  0  0  0  0  0  0  0  0  0  0
    7.0271   -6.1019    6.6224 C   0  0  0  0  0  0  0  0  0  0  0  0
    8.1112   -5.5526    6.5946 O   0  0  0  0  0  0  0  0  0  0  0  0
    6.7074   -6.9844    7.6450 N   0  0  0  0  0  0  0  0  0  0  0  0
    7.7329   -7.2035    8.6594 C   0  0  0  0  0  0  0  0  0  0  0  0
    7.5356   -6.2785    9.8527 C   0  0  0  0  0  0  0  0  0  0  0  0
    5.5039   -7.6165    7.7629 C   0  0  0  0  0  0  0  0  0  0  0  0
    5.2165   -8.6621    9.0086 S   0  0  0  0  0  0  0  0  0  0  0  0
    4.5358   -7.3616    6.8300 N   0  0  0  0  0  0  0  0  0  0  0  0
    3.2405   -8.0252    6.9456 C   0  0  0  0  0  0  0  0  0  0  0  0
    3.2528   -9.3797    6.2503 C   0  0  0  0  0  0  0  0  0  0  0  0
    4.7060   -6.5358    5.7314 C   0  0  0  0  0  0  0  0  0  0  0  0
    3.7723   -6.3853    4.9545 O   0  0  0  0  0  0  0  0  0  0  0  0
    5.6132   -4.7090    3.4300 C   0  0  0  0  0  0  0  0  0  0  0  0
    5.9018   -3.9262    2.3311 C   0  0  0  0  0  0  0  0  0  0  0  0
    7.0655   -3.1631    1.8175 C   0  0  0  0  0  0  0  0  0  0  0  0
    8.3095   -3.1713    2.6950 C   0  0  0  0  0  0  0  0  0  0  0  0
    4.6347   -4.0575    1.6403 C   0  0  0  0  0  0  0  0  0  0  0  0
    4.6243   -5.4893   -2.1524 Se  0  0  0  0  0  2  0  0  0  0  0  0
    3.6488   -4.0219   -1.8385 C   0  0  0  0  0  0  0  0  0  0  0  0
    2.8700   -3.2812   -2.7576 C   0  0  0  0  0  0  0  0  0  0  0  0
    2.7373   -3.4818   -4.1500 C   0  0  0  0  0  0  0  0  0  0  0  0
    1.9574   -2.5513   -4.9094 C   0  0  0  0  0  0  0  0  0  0  0  0
    1.9547   -2.8207   -6.2053 N   0  0  0  0  0  0  0  0  0  0  0  0
    2.8613   -4.1434   -6.4471 S   0  0  0  0  0  0  0  0  0  0  0  0
    3.2850   -4.4138   -4.9116 N   0  0  0  0  0  0  0  0  0  0  0  0
    1.2543   -1.5378   -4.2264 C   0  0  0  0  0  0  0  0  0  0  0  0
    0.3181   -0.6125   -4.6935 C   0  0  0  0  0  0  0  0  0  0  0  0
   -0.4608   -0.1045   -6.3050 Se  0  0  0  0  0  2  0  0  0  0  0  0
   -1.5035    1.0570   -5.2242 C   0  0  0  0  0  0  0  0  0  0  0  0
   -2.5113    1.9651   -5.5261 C   0  0  0  0  0  0  0  0  0  0  0  0
   -2.9532    2.2306   -6.9281 C   0  0  0  0  0  0  0  0  0  0  0  0
   -2.2079    3.4323   -7.5136 C   0  0  0  0  0  0  0  0  0  0  0  0
   -2.9872    2.6133   -4.3755 C   0  0  0  0  0  0  0  0  0  0  0  0
   -2.1671    2.0583   -2.9203 S   0  0  0  0  0  0  0  0  0  0  0  0
   -1.2015    0.9777   -3.8542 C   0  0  0  0  0  0  0  0  0  0  0  0
   -0.1876    0.0543   -3.5674 C   0  0  0  0  0  0  0  0  0  0  0  0
    0.4205   -0.4166   -2.4371 N   0  0  0  0  0  0  0  0  0  0  0  0
    1.3325   -1.3867   -2.8108 C   0  0  0  0  0  0  0  0  0  0  0  0
    2.2433   -2.2010   -2.0930 C   0  0  0  0  0  0  0  0  0  0  0  0
    2.6425   -2.2141   -0.7716 N   0  0  0  0  0  0  0  0  0  0  0  0
    3.4951   -3.3081   -0.5769 C   0  0  0  0  0  0  0  0  0  0  0  0
    4.0949   -3.5997    0.5621 C   0  0  0  0  0  0  0  0  0  0  0  0
    3.9382   -5.1465    2.9611 S   0  0  0  0  0  0  0  0  0  0  0  0
    2.8310   -1.0865    0.1160 C   0  0  0  0  0  0  0  0  0  0  0  0
    4.0046   -0.2175   -0.3345 C   0  0  0  0  0  0  0  0  0  0  0  0
   -0.1142   -0.0890   -1.1349 C   0  0  0  0  0  0  0  0  0  0  0  0
    0.3591    1.2798   -0.6442 C   0  0  0  0  0  0  0  0  0  0  0  0
   -3.9979    3.5828   -4.4080 C   0  0  0  0  0  0  0  0  0  0  0  0
   -4.5460    4.3431   -3.4072 C   0  0  0  0  0  0  0  0  0  0  0  0
   -4.1547    4.3328   -1.9947 C   0  0  0  0  0  0  0  0  0  0  0  0
   -3.3227    3.6179   -1.4593 O   0  0  0  0  0  0  0  0  0  0  0  0
   -4.9647    5.3660   -1.3311 C   0  0  0  0  0  0  0  0  0  0  0  0
   -4.9172    5.7342    0.0120 C   0  0  0  0  0  0  0  0  0  0  0  0
   -5.7899    6.7415    0.3461 C   0  0  0  0  0  0  0  0  0  0  0  0
   -6.6451    7.3411   -0.5882 C   0  0  0  0  0  0  0  0  0  0  0  0
   -6.7006    6.9882   -1.9158 C   0  0  0  0  0  0  0  0  0  0  0  0
   -5.8228    5.9617   -2.2777 C   0  0  0  0  0  0  0  0  0  0  0  0
   -5.5957    5.3300   -3.5768 C   0  0  0  0  0  0  0  0  0  0  0  0
   -6.2779    5.6245   -4.7300 C   0  0  0  0  0  0  0  0  0  0  0  0
   -7.3029    6.5889   -4.8288 C   0  0  0  0  0  0  0  0  0  0  0  0
   -8.1443    7.3539   -4.9879 N   0  0  0  0  0  0  0  0  0  0  0  0
   -6.0776    5.0149   -5.9860 C   0  0  0  0  0  0  0  0  0  0  0  0
   -5.9777    4.5701   -7.0412 N   0  0  0  0  0  0  0  0  0  0  0  0
   -7.2429    8.2723    0.4367 C   0  0  0  0  0  0  0  0  0  0  0  0
   -8.6442    7.9038    0.9683 C   0  0  0  0  0  0  0  0  0  0  0  0
   -8.7569    8.6817    2.2595 C   0  0  0  0  0  0  0  0  0  0  0  0
   -7.9478    8.1139    3.1447 C   0  0  0  0  0  0  0  0  0  0  0  0
   -7.2746    6.9423    2.4667 C   0  0  0  0  0  0  0  0  0  0  0  0
   -8.4038    6.4960    1.5289 C   0  0  0  0  0  0  0  0  0  0  0  0
   -6.2899    7.6033    1.4786 C   0  0  0  0  0  0  0  0  0  0  0  0
    7.3587   -4.6814    4.6238 H   0  0  0  0  0  0  0  0  0  0  0  0
    8.6921   -6.9992    8.1809 H   0  0  0  0  0  0  0  0  0  0  0  0
    7.6884   -8.2479    8.9719 H   0  0  0  0  0  0  0  0  0  0  0  0
    7.5733   -5.2398    9.5327 H   0  0  0  0  0  0  0  0  0  0  0  0
    8.3255   -6.4501   10.5777 H   0  0  0  0  0  0  0  0  0  0  0  0
    6.5776   -6.4710   10.3299 H   0  0  0  0  0  0  0  0  0  0  0  0
    3.0104   -8.1396    8.0057 H   0  0  0  0  0  0  0  0  0  0  0  0
    2.5067   -7.3687    6.4749 H   0  0  0  0  0  0  0  0  0  0  0  0
    3.4913   -9.2588    5.1962 H   0  0  0  0  0  0  0  0  0  0  0  0
    3.9865  -10.0372    6.7106 H   0  0  0  0  0  0  0  0  0  0  0  0
    2.2724   -9.8387    6.3356 H   0  0  0  0  0  0  0  0  0  0  0  0
    7.3101   -3.5685    0.8286 H   0  0  0  0  0  0  0  0  0  0  0  0
    6.7398   -2.1290    1.6517 H   0  0  0  0  0  0  0  0  0  0  0  0
    9.0924   -2.5839    2.2206 H   0  0  0  0  0  0  0  0  0  0  0  0
    8.6818   -4.1836    2.8291 H   0  0  0  0  0  0  0  0  0  0  0  0
    8.1020   -2.7352    3.6691 H   0  0  0  0  0  0  0  0  0  0  0  0
   -2.7227    1.3434   -7.5265 H   0  0  0  0  0  0  0  0  0  0  0  0
   -4.0285    2.4074   -6.9796 H   0  0  0  0  0  0  0  0  0  0  0  0
   -2.4135    4.3313   -6.9371 H   0  0  0  0  0  0  0  0  0  0  0  0
   -2.5253    3.6001   -8.5387 H   0  0  0  0  0  0  0  0  0  0  0  0
   -1.1351    3.2503   -7.5039 H   0  0  0  0  0  0  0  0  0  0  0  0
    1.9317   -0.4853    0.1768 H   0  0  0  0  0  0  0  0  0  0  0  0
    3.0313   -1.5010    1.1081 H   0  0  0  0  0  0  0  0  0  0  0  0
    4.9179   -0.8071   -0.3778 H   0  0  0  0  0  0  0  0  0  0  0  0
    4.1509    0.6019    0.3640 H   0  0  0  0  0  0  0  0  0  0  0  0
    3.8149    0.1946   -1.3240 H   0  0  0  0  0  0  0  0  0  0  0  0
   -1.2056   -0.0659   -1.2227 H   0  0  0  0  0  0  0  0  0  0  0  0
    0.1403   -0.8916   -0.4407 H   0  0  0  0  0  0  0  0  0  0  0  0
   -0.1148    2.0668   -1.2239 H   0  0  0  0  0  0  0  0  0  0  0  0
    1.4366    1.3891   -0.7415 H   0  0  0  0  0  0  0  0  0  0  0  0
    0.0800    1.4140    0.3971 H   0  0  0  0  0  0  0  0  0  0  0  0
   -4.3883    3.7539   -5.4016 H   0  0  0  0  0  0  0  0  0  0  0  0
   -4.2380    5.2490    0.6954 H   0  0  0  0  0  0  0  0  0  0  0  0
   -7.3606    7.4654   -2.6203 H   0  0  0  0  0  0  0  0  0  0  0  0
   -7.1303    9.3356    0.2342 H   0  0  0  0  0  0  0  0  0  0  0  0
   -9.4499    8.0270    0.2500 H   0  0  0  0  0  0  0  0  0  0  0  0
   -9.3518    9.5685    2.3756 H   0  0  0  0  0  0  0  0  0  0  0  0
   -7.7317    8.4315    4.1479 H   0  0  0  0  0  0  0  0  0  0  0  0
   -6.8335    6.1895    3.1145 H   0  0  0  0  0  0  0  0  0  0  0  0
   -8.0981    5.7664    0.7812 H   0  0  0  0  0  0  0  0  0  0  0  0
   -9.2665    6.1179    2.0748 H   0  0  0  0  0  0  0  0  0  0  0  0
   -5.5417    8.2207    1.9723 H   0  0  0  0  0  0  0  0  0  0  0  0
  1  2  2  0  0  0  0
  2  3  1  0  0  0  0
  3  4  2  0  0  0  0
  3  5  1  0  0  0  0
  5  6  1  0  0  0  0
  6  7  1  0  0  0  0
  5  8  1  0  0  0  0
  8  9  2  0  0  0  0
  8 10  1  0  0  0  0
 10 11  1  0  0  0  0
 11 12  1  0  0  0  0
 10 13  1  0  0  0  0
 13 14  2  0  0  0  0
  1 15  1  0  0  0  0
 15 16  2  0  0  0  0
 16 17  1  0  0  0  0
 17 18  1  0  0  0  0
 16 19  1  0  0  0  0
 19 20  1  0  0  0  0
 20 21  1  0  0  0  0
 21 22  1  0  0  0  0
 22 23  1  0  0  0  0
 23 24  1  0  0  0  0
 24 25  2  0  0  0  0
 25 26  1  0  0  0  0
 26 27  1  0  0  0  0
 24 28  1  0  0  0  0
 28 29  1  0  0  0  0
 29 30  1  0  0  0  0
 30 31  1  0  0  0  0
 31 32  1  0  0  0  0
 32 33  1  0  0  0  0
 33 34  1  0  0  0  0
 32 35  2  0  0  0  0
 35 36  1  0  0  0  0
 36 37  1  0  0  0  0
 37 38  1  0  0  0  0
 38 39  1  0  0  0  0
 39 40  1  0  0  0  0
 40 41  1  0  0  0  0
 41 42  1  0  0  0  0
 42 43  1  0  0  0  0
 43 44  1  0  0  0  0
 44 45  1  0  0  0  0
 42 46  1  0  0  0  0
 46 47  1  0  0  0  0
 39 48  1  0  0  0  0
 48 49  1  0  0  0  0
 35 50  1  0  0  0  0
 50 51  2  0  0  0  0
 51 52  1  0  0  0  0
 52 53  2  0  0  0  0
 52 54  1  0  0  0  0
 54 55  2  0  0  0  0
 55 56  1  0  0  0  0
 56 57  2  0  0  0  0
 57 58  1  0  0  0  0
 58 59  2  0  0  0  0
 59 60  1  0  0  0  0
 60 61  2  0  0  0  0
 61 62  1  0  0  0  0
 62 63  3  0  0  0  0
 61 64  1  0  0  0  0
 64 65  3  0  0  0  0
 57 66  1  0  0  0  0
 66 67  1  0  0  0  0
 67 68  1  0  0  0  0
 68 69  2  0  0  0  0
 69 70  1  0  0  0  0
 70 71  1  0  0  0  0
 70 72  1  0  0  0  0
 13  2  1  0  0  0  0
 45 15  1  0  0  0  0
 60 51  1  0  0  0  0
 72 66  1  0  0  0  0
 44 19  2  0  0  0  0
 59 54  1  0  0  0  0
 71 67  1  0  0  0  0
 43 21  2  0  0  0  0
 72 56  1  0  0  0  0
 41 22  2  0  0  0  0
 27 23  2  0  0  0  0
 40 28  2  0  0  0  0
 38 29  2  0  0  0  0
 37 31  2  0  0  0  0
  1 73  1  0  0  0  0
  6 74  1  0  0  0  0
  6 75  1  0  0  0  0
  7 76  1  0  0  0  0
  7 77  1  0  0  0  0
  7 78  1  0  0  0  0
 11 79  1  0  0  0  0
 11 80  1  0  0  0  0
 12 81  1  0  0  0  0
 12 82  1  0  0  0  0
 12 83  1  0  0  0  0
 17 84  1  0  0  0  0
 17 85  1  0  0  0  0
 18 86  1  0  0  0  0
 18 87  1  0  0  0  0
 18 88  1  0  0  0  0
 33 89  1  0  0  0  0
 33 90  1  0  0  0  0
 34 91  1  0  0  0  0
 34 92  1  0  0  0  0
 34 93  1  0  0  0  0
 46 94  1  0  0  0  0
 46 95  1  0  0  0  0
 47 96  1  0  0  0  0
 47 97  1  0  0  0  0
 47 98  1  0  0  0  0
 48 99  1  0  0  0  0
 48100  1  0  0  0  0
 49101  1  0  0  0  0
 49102  1  0  0  0  0
 49103  1  0  0  0  0
 50104  1  0  0  0  0
 55105  1  0  0  0  0
 58106  1  0  0  0  0
 66107  1  0  0  0  0
 67108  1  0  0  0  0
 68109  1  0  0  0  0
 69110  1  0  0  0  0
 70111  1  0  0  0  0
 71112  1  0  0  0  0
 71113  1  0  0  0  0
 72114  1  0  0  0  0
M  END
