156

C         -4.99900       -4.38350       -4.70000
C         -5.87100       -4.20810       -5.75370
C         -6.17130       -2.96360       -6.43930
O         -5.67590       -1.88030       -6.18240
N         -7.10780       -3.04180       -7.46830
C         -7.41260       -1.79090       -8.15570
C         -6.50440       -1.58430       -9.36080
C         -7.70310       -4.19150       -7.89790
S         -8.73890       -4.18140       -9.18660
N         -7.42700       -5.34980       -7.23410
C         -8.06220       -6.59100       -7.66320
C         -7.26650       -7.26430       -8.77320
C         -6.53050       -5.44760       -6.17950
O         -6.32670       -6.52610       -5.65470
C         -4.15970       -3.54150       -3.96120
C         -3.87460       -2.17760       -4.02220
C         -2.95870       -1.78330       -3.06960
C         -2.28060       -0.48730       -2.66390
C         -3.30980        0.52190       -2.17420
C         -3.36640        1.82880       -2.63120
C         -4.31960        2.70230       -2.13870
C         -5.23550        2.29930       -1.17770
C         -6.30210        3.23510       -0.68700
C         -7.56090        3.10280       -1.54670
C         -5.17040        0.99030       -0.71740
C         -4.22040        0.11500       -1.20560
C         -1.44930       -0.00840       -3.83850
C         -2.09000        0.40530       -5.00240
C         -1.36040        0.82740       -6.09650
C          0.02870        0.84290       -6.06650
C          0.82080        1.26890       -7.26870
C          1.10530        0.06840       -8.17380
C          0.66360        0.40510       -4.91320
C         -0.06290       -0.01990       -3.81390
C         -1.45490       -0.96720       -1.48940
C         -1.62100       -2.32920       -1.29390
C         -2.52540       -2.83720       -2.25260
S         -3.24180       -4.32710       -2.66390
S         -0.72820       -2.97080        0.03760
C         -0.10780       -1.36780        0.36830
C          0.78360       -1.08890        1.38870
O          1.16840       -2.09220        2.24000
C          0.43820       -2.18840        3.46050
C         -1.02560       -2.57690        3.29730
C          1.31300        0.21550        1.43680
C          0.81730        1.21610        0.53380
C         -0.14850        0.95300       -0.43000
C         -0.58170       -0.38990       -0.54180
O         -0.76250        1.78920       -1.28920
C         -0.35640        3.12630       -1.50970
C          0.84080        3.21830       -2.44790
S          1.64330        2.76080        0.76220
C          2.67110        2.04660        1.93900
C          3.82080        2.46420        2.64410
C          4.29930        1.36850        3.37900
C          3.37840        0.17260        3.22380
C          2.37120        0.72600        2.22960
C          4.08380       -1.01290        2.58980
C          4.90600       -0.77590        1.49370
C          5.53840       -1.81940        0.84690
C          5.36390       -3.12980        1.27270
C          6.00690       -4.27070        0.53880
C          5.07840       -4.78250       -0.56440
C          4.53640       -3.36130        2.36210
C          3.90170       -2.32000        3.01380
C          2.82640       -0.04260        4.61920
C          3.58230       -0.71060        5.57490
C          3.11650       -0.84770        6.86860
C          1.89890       -0.30060        7.25290
C          1.36930       -0.49930        8.64300
C          0.50390       -1.75980        8.70580
C          1.16730        0.40410        6.30730
C          1.62650        0.53910        5.00910
C          5.43950        1.67000        4.08070
C          5.86000        2.99840        3.88690
S          4.77850        3.86940        2.80250
C          7.00230        3.50230        4.51200
C          7.57880        4.75160        4.46100
C          7.08900        5.87980        3.66960
O          6.10600        5.91280        2.95220
C          8.03750        6.98810        3.91090
C          9.03900        6.55590        4.80010
C         10.04980        7.42530        5.17640
C         10.04600        8.71320        4.65970
C          9.05660        9.13370        3.78500
Br         9.10740       10.90070        3.11760
C          8.02600        8.27200        3.39190
Cl         6.80070        8.78610        2.31280
C          8.77210        5.16350        5.16510
C          9.53450        4.41980        6.03090
C          9.28780        3.08390        6.40970
N          9.16130        2.00210        6.77570
C         10.69090        4.89840        6.68140
N         11.63950        5.22120        7.24250
H         -4.96560       -5.42190       -4.37480
H         -7.26230       -0.98900       -7.43080
H         -8.45830       -1.81930       -8.46490
H         -6.74170       -0.63660       -9.83540
H         -6.64880       -2.38220      -10.08530
H         -5.46320       -1.57010       -9.04710
H         -8.10450       -7.23900       -6.78610
H         -9.07240       -6.35740       -8.00250
H         -6.25800       -7.48400       -8.43090
H         -7.21530       -6.62070       -9.64850
H         -7.75190       -8.19450       -9.05340
H         -4.34930       -1.54450       -4.74640
H         -2.66510        2.17300       -3.37480
H         -4.35030        3.71770       -2.50930
H         -5.94220        4.26490       -0.73190
H         -6.54960        3.00400        0.35120
H         -7.33670        3.34000       -2.58420
H         -8.33590        3.77970       -1.19450
H         -7.94220        2.08510       -1.50440
H         -5.87090        0.65300        0.03360
H         -4.18790       -0.89840       -0.83030
H         -3.16800        0.40370       -5.05200
H         -1.87840        1.15060       -6.98800
H          1.76700        1.71240       -6.95130
H          0.26280        2.01950       -7.83230
H          0.17350       -0.38070       -8.51010
H          1.67300       -0.68640       -7.63400
H          1.67760        0.37660       -9.04560
H          1.74390        0.39630       -4.86990
H          0.46510       -0.35810       -2.93540
H          0.50710       -1.24260        4.01010
H          0.96630       -2.96150        4.02270
H         -1.11490       -3.52520        2.77400
H         -1.47330       -2.67470        4.28290
H         -1.57080       -1.81480        2.74380
H         -0.16370        3.64560       -0.56630
H         -1.23150        3.58680       -1.97640
H          0.60530        2.73490       -3.39320
H          1.08150        4.26180       -2.62840
H          1.71070        2.72960       -2.01610
H          5.05320        0.23620        1.14250
H          6.17610       -1.61290       -0.00110
H          6.94900       -3.94320        0.09460
H          6.22130       -5.08460        1.23430
H          4.86650       -3.98950       -1.27840
H          4.13540       -5.11800       -0.13870
H          5.53790       -5.61390       -1.09390
H          4.38190       -4.37340        2.70760
H          3.26180       -2.53490        3.85380
H          4.54260       -1.12450        5.30630
H          3.71460       -1.37920        7.59470
H          2.19910       -0.59700        9.34540
H          0.76980        0.36390        8.93890
H         -0.33800       -1.67590        8.02180
H          1.08730       -2.63370        8.42440
H          0.12040       -1.90770        9.71240
H          0.22820        0.85930        6.58840
H          1.04640        1.11050        4.29730
H          5.98300        0.99140        4.71310
H          7.49880        2.76830        5.13480
H         10.83350        7.12960        5.85310
H         10.82560        9.40460        4.94010
