89

C         -6.12620       -0.42720        3.37630
C         -6.75440        0.77150        3.40790
C         -6.58190        1.76530        2.34600
O         -6.00730        1.53740        1.30050
N         -7.11470        3.01530        2.60470
C         -6.86110        4.04610        1.60300
C         -8.00120        4.13870        0.59840
C         -7.88250        3.31700        3.69700
S         -8.46210        4.84600        3.91860
N         -8.17810        2.32440        4.59080
C         -9.04110        2.62010        5.73090
C         -8.24160        3.17030        6.90400
C         -7.65630        1.04320        4.53540
O         -7.93460        0.21360        5.37520
C         -5.12890       -0.86510        2.42550
C         -5.29180       -2.08820        1.77510
C         -4.38330       -2.56030        0.88990
S         -3.59530       -5.65030       -1.59800
C         -2.45210       -4.44930       -1.55610
C         -1.22710       -4.35060       -2.27290
C         -0.69430       -5.16890       -3.29330
C          0.54900       -4.78540       -3.90640
N          0.89940       -5.59960       -4.89020
S         -0.22810       -6.74980       -5.03010
N         -1.20710       -6.25680       -3.84470
C          1.27100       -3.69480       -3.37420
C          2.55890       -3.21350       -3.63500
C          2.83230       -2.22910       -2.67330
N          1.74970       -2.05730       -1.85080
C          1.93050       -1.41930       -0.56020
C          1.64240       -2.36460        0.59970
C          0.76330       -2.93020       -2.27930
C         -0.55830       -3.18190       -1.84910
N         -1.38470       -2.50250       -0.97260
C         -2.50910       -3.25480       -0.75000
C         -3.48900       -2.87950        0.10680
Se        -3.62900        0.16340        2.27580
C         -1.38300       -1.08230       -0.69390
C         -2.48880       -0.35270       -1.45370
C          4.12080       -1.69940       -2.78370
C          4.80640       -2.29560       -3.86480
S          3.87090       -3.50670       -4.72070
C          6.09280       -1.84000       -4.07870
C          6.52990       -0.85270       -3.19010
Se         5.18160       -0.43000       -1.91890
C          7.81410       -0.30450       -3.30630
C          8.44560        0.66300       -2.56060
C          7.86360        1.35590       -1.41960
O          6.74890        1.18970       -0.94000
C          8.88120        2.30770       -0.94290
C          8.80530        3.19550        0.11090
C          9.92190        3.98590        0.34130
F          9.89660        4.86530        1.35480
C         11.06550        3.90140       -0.43860
C         11.12700        3.00330       -1.49440
C         10.02750        2.19770       -1.75160
C          9.78840        1.17370       -2.77030
C         10.68740        0.78880       -3.72900
C         10.47190       -0.20070       -4.71230
N         10.37970       -0.99160       -5.54000
C         11.98100        1.33720       -3.86820
N         13.04170        1.74080       -4.03860
H         -6.37580       -1.11780        4.17900
H         -5.93590        3.76600        1.09630
H         -6.72660        4.99760        2.11990
H         -7.76770        4.89690       -0.14320
H         -8.92780        4.41420        1.09660
H         -8.13640        3.18520        0.09330
H         -9.51840        1.67940        6.01140
H         -9.79690        3.33830        5.41010
H         -7.75360        4.10250        6.62960
H         -7.48850        2.45060        7.21570
H         -8.90980        3.36050        7.73860
H         -6.18670       -2.66880        1.96070
H          2.98170       -1.11000       -0.51760
H          1.33270       -0.50810       -0.47410
H          0.59830       -2.66220        0.62450
H          2.25610       -3.25880        0.51670
H          1.87970       -1.86670        1.53540
H         -0.42890       -0.67490       -1.01140
H         -1.51440       -0.92730        0.38220
H         -3.47190       -0.68130       -1.13000
H         -2.40850        0.71270       -1.25720
H         -2.39290       -0.52200       -2.52450
H          6.72410       -2.20990       -4.86900
H          8.38020       -0.72680       -4.12890
H          7.92240        3.27200        0.72500
H         11.90350        4.54180       -0.21310
H         12.02190        2.94890       -2.09160
