
  xtb     02022209153D
 energy: -171.558345061220 gnorm: 0.000394800202 xtb: 6.4.1 (unknown)
 89 99  0     0  0            999 V2000
   -7.3443   -0.0493    0.7642 C   0  0  0  0  0  0  0  0  0  0  0  0
   -8.6798    0.2783    0.7922 C   0  0  0  0  0  0  0  0  0  0  0  0
   -9.2493    1.6163    0.7938 C   0  0  0  0  0  0  0  0  0  0  0  0
   -8.6060    2.6495    0.8220 O   0  0  0  0  0  0  0  0  0  0  0  0
  -10.6390    1.6888    0.7574 N   0  0  0  0  0  0  0  0  0  0  0  0
  -11.2107    3.0314    0.7166 C   0  0  0  0  0  0  0  0  0  0  0  0
  -11.4125    3.5028   -0.7173 C   0  0  0  0  0  0  0  0  0  0  0  0
  -11.4771    0.6130    0.7087 C   0  0  0  0  0  0  0  0  0  0  0  0
  -13.1117    0.8144    0.5778 S   0  0  0  0  0  0  0  0  0  0  0  0
  -10.9325   -0.6359    0.7808 N   0  0  0  0  0  0  0  0  0  0  0  0
  -11.8096   -1.8020    0.7720 C   0  0  0  0  0  0  0  0  0  0  0  0
  -12.1349   -2.2408   -0.6493 C   0  0  0  0  0  0  0  0  0  0  0  0
   -9.5708   -0.8896    0.8033 C   0  0  0  0  0  0  0  0  0  0  0  0
   -9.1637   -2.0356    0.8314 O   0  0  0  0  0  0  0  0  0  0  0  0
   -6.1430    0.6760    0.7361 C   0  0  0  0  0  0  0  0  0  0  0  0
   -5.8479    2.0276    0.7863 C   0  0  0  0  0  0  0  0  0  0  0  0
   -4.4939    2.3265    0.7104 C   0  0  0  0  0  0  0  0  0  0  0  0
   -3.6829    3.8775    0.7034 S   0  0  0  0  0  0  0  0  0  0  0  0
   -2.1725    3.0609    0.5279 C   0  0  0  0  0  0  0  0  0  0  0  0
   -0.8214    3.3684    0.3179 C   0  0  0  0  0  0  0  0  0  0  0  0
   -0.1777    4.6055    0.0912 C   0  0  0  0  0  0  0  0  0  0  0  0
    1.1952    4.6050   -0.3228 C   0  0  0  0  0  0  0  0  0  0  0  0
    1.6470    5.8233   -0.5758 N   0  0  0  0  0  0  0  0  0  0  0  0
    0.4512    6.8799   -0.3091 S   0  0  0  0  0  0  0  0  0  0  0  0
   -0.6913    5.8247    0.1357 N   0  0  0  0  0  0  0  0  0  0  0  0
    1.8949    3.3786   -0.3661 C   0  0  0  0  0  0  0  0  0  0  0  0
    3.2345    3.0886   -0.6630 C   0  0  0  0  0  0  0  0  0  0  0  0
    3.4162    1.7194   -0.4304 C   0  0  0  0  0  0  0  0  0  0  0  0
    2.2362    1.1477   -0.0260 N   0  0  0  0  0  0  0  0  0  0  0  0
    2.3140   -0.0836    0.7280 C   0  0  0  0  0  0  0  0  0  0  0  0
    2.9091    0.1601    2.1143 C   0  0  0  0  0  0  0  0  0  0  0  0
    1.2757    2.1469   -0.0030 C   0  0  0  0  0  0  0  0  0  0  0  0
   -0.1258    2.1284    0.2113 C   0  0  0  0  0  0  0  0  0  0  0  0
   -1.0477    1.1039    0.3132 N   0  0  0  0  0  0  0  0  0  0  0  0
   -2.2837    1.6641    0.5023 C   0  0  0  0  0  0  0  0  0  0  0  0
   -3.6098    1.2314    0.5994 C   0  0  0  0  0  0  0  0  0  0  0  0
   -4.5499   -0.3730    0.5923 Se  0  0  0  0  0  2  0  0  0  0  0  0
   -0.9441   -0.2933   -0.0377 C   0  0  0  0  0  0  0  0  0  0  0  0
   -1.0470   -1.2008    1.1886 C   0  0  0  0  0  0  0  0  0  0  0  0
    4.7246    1.3029   -0.6786 C   0  0  0  0  0  0  0  0  0  0  0  0
    5.5244    2.3726   -1.1244 C   0  0  0  0  0  0  0  0  0  0  0  0
    4.6606    3.8924   -1.2098 S   0  0  0  0  0  0  0  0  0  0  0  0
    6.8458    2.0575   -1.4165 C   0  0  0  0  0  0  0  0  0  0  0  0
    7.1717    0.7180   -1.2687 C   0  0  0  0  0  0  0  0  0  0  0  0
    5.6943   -0.2830   -0.6106 Se  0  0  0  0  0  2  0  0  0  0  0  0
    8.4648    0.1914   -1.4592 C   0  0  0  0  0  0  0  0  0  0  0  0
    8.8772   -1.1070   -1.5543 C   0  0  0  0  0  0  0  0  0  0  0  0
   10.2895   -1.4513   -1.2522 C   0  0  0  0  0  0  0  0  0  0  0  0
   11.2210   -0.6880   -1.1481 O   0  0  0  0  0  0  0  0  0  0  0  0
   10.2881   -2.9188   -1.0476 C   0  0  0  0  0  0  0  0  0  0  0  0
   11.3185   -3.7374   -0.6338 C   0  0  0  0  0  0  0  0  0  0  0  0
   11.0635   -5.0961   -0.4879 C   0  0  0  0  0  0  0  0  0  0  0  0
   12.3211   -6.1469    0.0249 Cl  0  0  0  0  0  0  0  0  0  0  0  0
    9.7896   -5.6098   -0.7553 C   0  0  0  0  0  0  0  0  0  0  0  0
    9.4869   -7.2879   -0.5547 Cl  0  0  0  0  0  0  0  0  0  0  0  0
    8.7557   -4.7840   -1.1840 C   0  0  0  0  0  0  0  0  0  0  0  0
    9.0090   -3.4317   -1.3317 C   0  0  0  0  0  0  0  0  0  0  0  0
    8.1615   -2.3375   -1.8015 C   0  0  0  0  0  0  0  0  0  0  0  0
    7.0548   -2.4848   -2.6010 C   0  0  0  0  0  0  0  0  0  0  0  0
    6.4371   -3.7215   -2.8712 C   0  0  0  0  0  0  0  0  0  0  0  0
    5.8791   -4.6988   -3.0974 N   0  0  0  0  0  0  0  0  0  0  0  0
    6.4828   -1.4128   -3.3177 C   0  0  0  0  0  0  0  0  0  0  0  0
    6.0208   -0.5726   -3.9497 N   0  0  0  0  0  0  0  0  0  0  0  0
   -7.2000   -1.1308    0.7491 H   0  0  0  0  0  0  0  0  0  0  0  0
  -10.5084    3.6885    1.2321 H   0  0  0  0  0  0  0  0  0  0  0  0
  -12.1611    3.0130    1.2514 H   0  0  0  0  0  0  0  0  0  0  0  0
  -10.4632    3.5093   -1.2478 H   0  0  0  0  0  0  0  0  0  0  0  0
  -12.1085    2.8492   -1.2377 H   0  0  0  0  0  0  0  0  0  0  0  0
  -11.8181    4.5102   -0.7136 H   0  0  0  0  0  0  0  0  0  0  0  0
  -11.2766   -2.5968    1.2966 H   0  0  0  0  0  0  0  0  0  0  0  0
  -12.7216   -1.5458    1.3129 H   0  0  0  0  0  0  0  0  0  0  0  0
  -12.6570   -1.4492   -1.1815 H   0  0  0  0  0  0  0  0  0  0  0  0
  -12.7726   -3.1192   -0.6198 H   0  0  0  0  0  0  0  0  0  0  0  0
  -11.2208   -2.4888   -1.1833 H   0  0  0  0  0  0  0  0  0  0  0  0
   -6.6192    2.7720    0.8702 H   0  0  0  0  0  0  0  0  0  0  0  0
    1.3341   -0.5311    0.8346 H   0  0  0  0  0  0  0  0  0  0  0  0
    2.9569   -0.7721    0.1637 H   0  0  0  0  0  0  0  0  0  0  0  0
    2.9503   -0.7747    2.6661 H   0  0  0  0  0  0  0  0  0  0  0  0
    2.2975    0.8693    2.6683 H   0  0  0  0  0  0  0  0  0  0  0  0
    3.9179    0.5598    2.0361 H   0  0  0  0  0  0  0  0  0  0  0  0
   -0.0221   -0.4549   -0.5978 H   0  0  0  0  0  0  0  0  0  0  0  0
   -1.7806   -0.5260   -0.7101 H   0  0  0  0  0  0  0  0  0  0  0  0
   -0.8353   -2.2285    0.9073 H   0  0  0  0  0  0  0  0  0  0  0  0
   -0.3586   -0.8971    1.9742 H   0  0  0  0  0  0  0  0  0  0  0  0
   -2.0557   -1.1587    1.5983 H   0  0  0  0  0  0  0  0  0  0  0  0
    7.5595    2.7812   -1.7706 H   0  0  0  0  0  0  0  0  0  0  0  0
    9.2692    0.9221   -1.4432 H   0  0  0  0  0  0  0  0  0  0  0  0
   12.2971   -3.3319   -0.4315 H   0  0  0  0  0  0  0  0  0  0  0  0
    7.7847   -5.2090   -1.3807 H   0  0  0  0  0  0  0  0  0  0  0  0
  1  2  2  0  0  0  0
  2  3  1  0  0  0  0
  3  4  2  0  0  0  0
  3  5  1  0  0  0  0
  5  6  1  0  0  0  0
  6  7  1  0  0  0  0
  5  8  1  0  0  0  0
  8  9  2  0  0  0  0
  8 10  1  0  0  0  0
 10 11  1  0  0  0  0
 11 12  1  0  0  0  0
 10 13  1  0  0  0  0
 13 14  2  0  0  0  0
  1 15  1  0  0  0  0
 15 16  2  0  0  0  0
 16 17  1  0  0  0  0
 17 18  1  0  0  0  0
 18 19  1  0  0  0  0
 19 20  1  0  0  0  0
 20 21  1  0  0  0  0
 21 22  1  0  0  0  0
 22 23  2  0  0  0  0
 23 24  1  0  0  0  0
 24 25  1  0  0  0  0
 22 26  1  0  0  0  0
 26 27  1  0  0  0  0
 27 28  2  0  0  0  0
 28 29  1  0  0  0  0
 29 30  1  0  0  0  0
 30 31  1  0  0  0  0
 29 32  1  0  0  0  0
 32 33  1  0  0  0  0
 33 34  1  0  0  0  0
 34 35  1  0  0  0  0
 35 36  1  0  0  0  0
 36 37  1  0  0  0  0
 34 38  1  0  0  0  0
 38 39  1  0  0  0  0
 28 40  1  0  0  0  0
 40 41  2  0  0  0  0
 41 42  1  0  0  0  0
 41 43  1  0  0  0  0
 43 44  2  0  0  0  0
 44 45  1  0  0  0  0
 44 46  1  0  0  0  0
 46 47  2  0  0  0  0
 47 48  1  0  0  0  0
 48 49  2  0  0  0  0
 48 50  1  0  0  0  0
 50 51  2  0  0  0  0
 51 52  1  0  0  0  0
 52 53  1  0  0  0  0
 52 54  2  0  0  0  0
 54 55  1  0  0  0  0
 54 56  1  0  0  0  0
 56 57  2  0  0  0  0
 57 58  1  0  0  0  0
 58 59  2  0  0  0  0
 59 60  1  0  0  0  0
 60 61  3  0  0  0  0
 59 62  1  0  0  0  0
 62 63  3  0  0  0  0
 13  2  1  0  0  0  0
 37 15  1  0  0  0  0
 45 40  1  0  0  0  0
 58 47  1  0  0  0  0
 36 17  2  0  0  0  0
 57 50  1  0  0  0  0
 35 19  2  0  0  0  0
 33 20  2  0  0  0  0
 25 21  2  0  0  0  0
 32 26  2  0  0  0  0
 42 27  1  0  0  0  0
  1 64  1  0  0  0  0
  6 65  1  0  0  0  0
  6 66  1  0  0  0  0
  7 67  1  0  0  0  0
  7 68  1  0  0  0  0
  7 69  1  0  0  0  0
 11 70  1  0  0  0  0
 11 71  1  0  0  0  0
 12 72  1  0  0  0  0
 12 73  1  0  0  0  0
 12 74  1  0  0  0  0
 16 75  1  0  0  0  0
 30 76  1  0  0  0  0
 30 77  1  0  0  0  0
 31 78  1  0  0  0  0
 31 79  1  0  0  0  0
 31 80  1  0  0  0  0
 38 81  1  0  0  0  0
 38 82  1  0  0  0  0
 39 83  1  0  0  0  0
 39 84  1  0  0  0  0
 39 85  1  0  0  0  0
 43 86  1  0  0  0  0
 46 87  1  0  0  0  0
 51 88  1  0  0  0  0
 56 89  1  0  0  0  0
M  END
