
  xtb     02012216543D
 energy: -255.582762786563 gnorm: 0.000990990636 xtb: 6.4.1 (unknown)
156169  0     0  0            999 V2000
   -4.9990   -4.3835   -4.7000 C   0  0  0  0  0  0  0  0  0  0  0  0
   -5.8710   -4.2081   -5.7537 C   0  0  0  0  0  0  0  0  0  0  0  0
   -6.1713   -2.9636   -6.4393 C   0  0  0  0  0  0  0  0  0  0  0  0
   -5.6759   -1.8803   -6.1824 O   0  0  0  0  0  0  0  0  0  0  0  0
   -7.1078   -3.0418   -7.4683 N   0  0  0  0  0  0  0  0  0  0  0  0
   -7.4126   -1.7909   -8.1557 C   0  0  0  0  0  0  0  0  0  0  0  0
   -6.5044   -1.5843   -9.3608 C   0  0  0  0  0  0  0  0  0  0  0  0
   -7.7031   -4.1915   -7.8979 C   0  0  0  0  0  0  0  0  0  0  0  0
   -8.7389   -4.1814   -9.1866 S   0  0  0  0  0  0  0  0  0  0  0  0
   -7.4270   -5.3498   -7.2341 N   0  0  0  0  0  0  0  0  0  0  0  0
   -8.0622   -6.5910   -7.6632 C   0  0  0  0  0  0  0  0  0  0  0  0
   -7.2665   -7.2643   -8.7732 C   0  0  0  0  0  0  0  0  0  0  0  0
   -6.5305   -5.4476   -6.1795 C   0  0  0  0  0  0  0  0  0  0  0  0
   -6.3267   -6.5261   -5.6547 O   0  0  0  0  0  0  0  0  0  0  0  0
   -4.1597   -3.5415   -3.9612 C   0  0  0  0  0  0  0  0  0  0  0  0
   -3.8746   -2.1776   -4.0222 C   0  0  0  0  0  0  0  0  0  0  0  0
   -2.9587   -1.7833   -3.0696 C   0  0  0  0  0  0  0  0  0  0  0  0
   -2.2806   -0.4873   -2.6639 C   0  0  0  0  0  0  0  0  0  0  0  0
   -3.3098    0.5219   -2.1742 C   0  0  0  0  0  0  0  0  0  0  0  0
   -3.3664    1.8288   -2.6312 C   0  0  0  0  0  0  0  0  0  0  0  0
   -4.3196    2.7023   -2.1387 C   0  0  0  0  0  0  0  0  0  0  0  0
   -5.2355    2.2993   -1.1777 C   0  0  0  0  0  0  0  0  0  0  0  0
   -6.3021    3.2351   -0.6870 C   0  0  0  0  0  0  0  0  0  0  0  0
   -7.5609    3.1028   -1.5467 C   0  0  0  0  0  0  0  0  0  0  0  0
   -5.1704    0.9903   -0.7174 C   0  0  0  0  0  0  0  0  0  0  0  0
   -4.2204    0.1150   -1.2056 C   0  0  0  0  0  0  0  0  0  0  0  0
   -1.4493   -0.0084   -3.8385 C   0  0  0  0  0  0  0  0  0  0  0  0
   -2.0900    0.4053   -5.0024 C   0  0  0  0  0  0  0  0  0  0  0  0
   -1.3604    0.8274   -6.0965 C   0  0  0  0  0  0  0  0  0  0  0  0
    0.0287    0.8429   -6.0665 C   0  0  0  0  0  0  0  0  0  0  0  0
    0.8208    1.2689   -7.2687 C   0  0  0  0  0  0  0  0  0  0  0  0
    1.1053    0.0684   -8.1738 C   0  0  0  0  0  0  0  0  0  0  0  0
    0.6636    0.4051   -4.9132 C   0  0  0  0  0  0  0  0  0  0  0  0
   -0.0629   -0.0199   -3.8139 C   0  0  0  0  0  0  0  0  0  0  0  0
   -1.4549   -0.9672   -1.4894 C   0  0  0  0  0  0  0  0  0  0  0  0
   -1.6210   -2.3292   -1.2939 C   0  0  0  0  0  0  0  0  0  0  0  0
   -2.5254   -2.8372   -2.2526 C   0  0  0  0  0  0  0  0  0  0  0  0
   -3.2418   -4.3271   -2.6639 S   0  0  0  0  0  0  0  0  0  0  0  0
   -0.7282   -2.9708    0.0376 S   0  0  0  0  0  0  0  0  0  0  0  0
   -0.1078   -1.3678    0.3683 C   0  0  0  0  0  0  0  0  0  0  0  0
    0.7836   -1.0889    1.3887 C   0  0  0  0  0  0  0  0  0  0  0  0
    1.1684   -2.0922    2.2400 O   0  0  0  0  0  0  0  0  0  0  0  0
    0.4382   -2.1884    3.4605 C   0  0  0  0  0  0  0  0  0  0  0  0
   -1.0256   -2.5769    3.2973 C   0  0  0  0  0  0  0  0  0  0  0  0
    1.3130    0.2155    1.4368 C   0  0  0  0  0  0  0  0  0  0  0  0
    0.8173    1.2161    0.5338 C   0  0  0  0  0  0  0  0  0  0  0  0
   -0.1485    0.9530   -0.4300 C   0  0  0  0  0  0  0  0  0  0  0  0
   -0.5817   -0.3899   -0.5418 C   0  0  0  0  0  0  0  0  0  0  0  0
   -0.7625    1.7892   -1.2892 O   0  0  0  0  0  0  0  0  0  0  0  0
   -0.3564    3.1263   -1.5097 C   0  0  0  0  0  0  0  0  0  0  0  0
    0.8408    3.2183   -2.4479 C   0  0  0  0  0  0  0  0  0  0  0  0
    1.6433    2.7608    0.7622 S   0  0  0  0  0  0  0  0  0  0  0  0
    2.6711    2.0466    1.9390 C   0  0  0  0  0  0  0  0  0  0  0  0
    3.8208    2.4642    2.6441 C   0  0  0  0  0  0  0  0  0  0  0  0
    4.2993    1.3685    3.3790 C   0  0  0  0  0  0  0  0  0  0  0  0
    3.3784    0.1726    3.2238 C   0  0  0  0  0  0  0  0  0  0  0  0
    2.3712    0.7260    2.2296 C   0  0  0  0  0  0  0  0  0  0  0  0
    4.0838   -1.0129    2.5898 C   0  0  0  0  0  0  0  0  0  0  0  0
    4.9060   -0.7759    1.4937 C   0  0  0  0  0  0  0  0  0  0  0  0
    5.5384   -1.8194    0.8469 C   0  0  0  0  0  0  0  0  0  0  0  0
    5.3639   -3.1298    1.2727 C   0  0  0  0  0  0  0  0  0  0  0  0
    6.0069   -4.2707    0.5388 C   0  0  0  0  0  0  0  0  0  0  0  0
    5.0784   -4.7825   -0.5644 C   0  0  0  0  0  0  0  0  0  0  0  0
    4.5364   -3.3613    2.3621 C   0  0  0  0  0  0  0  0  0  0  0  0
    3.9017   -2.3200    3.0138 C   0  0  0  0  0  0  0  0  0  0  0  0
    2.8264   -0.0426    4.6192 C   0  0  0  0  0  0  0  0  0  0  0  0
    3.5823   -0.7106    5.5749 C   0  0  0  0  0  0  0  0  0  0  0  0
    3.1165   -0.8477    6.8686 C   0  0  0  0  0  0  0  0  0  0  0  0
    1.8989   -0.3006    7.2529 C   0  0  0  0  0  0  0  0  0  0  0  0
    1.3693   -0.4993    8.6430 C   0  0  0  0  0  0  0  0  0  0  0  0
    0.5039   -1.7598    8.7058 C   0  0  0  0  0  0  0  0  0  0  0  0
    1.1673    0.4041    6.3073 C   0  0  0  0  0  0  0  0  0  0  0  0
    1.6265    0.5391    5.0091 C   0  0  0  0  0  0  0  0  0  0  0  0
    5.4395    1.6700    4.0807 C   0  0  0  0  0  0  0  0  0  0  0  0
    5.8600    2.9984    3.8869 C   0  0  0  0  0  0  0  0  0  0  0  0
    4.7785    3.8694    2.8025 S   0  0  0  0  0  0  0  0  0  0  0  0
    7.0023    3.5023    4.5120 C   0  0  0  0  0  0  0  0  0  0  0  0
    7.5788    4.7516    4.4610 C   0  0  0  0  0  0  0  0  0  0  0  0
    7.0890    5.8798    3.6696 C   0  0  0  0  0  0  0  0  0  0  0  0
    6.1060    5.9128    2.9522 O   0  0  0  0  0  0  0  0  0  0  0  0
    8.0375    6.9881    3.9109 C   0  0  0  0  0  0  0  0  0  0  0  0
    9.0390    6.5559    4.8001 C   0  0  0  0  0  0  0  0  0  0  0  0
   10.0498    7.4253    5.1764 C   0  0  0  0  0  0  0  0  0  0  0  0
   10.0460    8.7132    4.6597 C   0  0  0  0  0  0  0  0  0  0  0  0
    9.0566    9.1337    3.7850 C   0  0  0  0  0  0  0  0  0  0  0  0
    9.1074   10.9007    3.1176 Br  0  0  0  0  0  0  0  0  0  0  0  0
    8.0260    8.2720    3.3919 C   0  0  0  0  0  0  0  0  0  0  0  0
    6.8007    8.7861    2.3128 Cl  0  0  0  0  0  0  0  0  0  0  0  0
    8.7721    5.1635    5.1651 C   0  0  0  0  0  0  0  0  0  0  0  0
    9.5345    4.4198    6.0309 C   0  0  0  0  0  0  0  0  0  0  0  0
    9.2878    3.0839    6.4097 C   0  0  0  0  0  0  0  0  0  0  0  0
    9.1613    2.0021    6.7757 N   0  0  0  0  0  0  0  0  0  0  0  0
   10.6909    4.8984    6.6814 C   0  0  0  0  0  0  0  0  0  0  0  0
   11.6395    5.2212    7.2425 N   0  0  0  0  0  0  0  0  0  0  0  0
   -4.9656   -5.4219   -4.3748 H   0  0  0  0  0  0  0  0  0  0  0  0
   -7.2623   -0.9890   -7.4308 H   0  0  0  0  0  0  0  0  0  0  0  0
   -8.4583   -1.8193   -8.4649 H   0  0  0  0  0  0  0  0  0  0  0  0
   -6.7417   -0.6366   -9.8354 H   0  0  0  0  0  0  0  0  0  0  0  0
   -6.6488   -2.3822  -10.0853 H   0  0  0  0  0  0  0  0  0  0  0  0
   -5.4632   -1.5701   -9.0471 H   0  0  0  0  0  0  0  0  0  0  0  0
   -8.1045   -7.2390   -6.7861 H   0  0  0  0  0  0  0  0  0  0  0  0
   -9.0724   -6.3574   -8.0025 H   0  0  0  0  0  0  0  0  0  0  0  0
   -6.2580   -7.4840   -8.4309 H   0  0  0  0  0  0  0  0  0  0  0  0
   -7.2153   -6.6207   -9.6485 H   0  0  0  0  0  0  0  0  0  0  0  0
   -7.7519   -8.1945   -9.0534 H   0  0  0  0  0  0  0  0  0  0  0  0
   -4.3493   -1.5445   -4.7464 H   0  0  0  0  0  0  0  0  0  0  0  0
   -2.6651    2.1730   -3.3748 H   0  0  0  0  0  0  0  0  0  0  0  0
   -4.3503    3.7177   -2.5093 H   0  0  0  0  0  0  0  0  0  0  0  0
   -5.9422    4.2649   -0.7319 H   0  0  0  0  0  0  0  0  0  0  0  0
   -6.5496    3.0040    0.3512 H   0  0  0  0  0  0  0  0  0  0  0  0
   -7.3367    3.3400   -2.5842 H   0  0  0  0  0  0  0  0  0  0  0  0
   -8.3359    3.7797   -1.1945 H   0  0  0  0  0  0  0  0  0  0  0  0
   -7.9422    2.0851   -1.5044 H   0  0  0  0  0  0  0  0  0  0  0  0
   -5.8709    0.6530    0.0336 H   0  0  0  0  0  0  0  0  0  0  0  0
   -4.1879   -0.8984   -0.8303 H   0  0  0  0  0  0  0  0  0  0  0  0
   -3.1680    0.4037   -5.0520 H   0  0  0  0  0  0  0  0  0  0  0  0
   -1.8784    1.1506   -6.9880 H   0  0  0  0  0  0  0  0  0  0  0  0
    1.7670    1.7124   -6.9513 H   0  0  0  0  0  0  0  0  0  0  0  0
    0.2628    2.0195   -7.8323 H   0  0  0  0  0  0  0  0  0  0  0  0
    0.1735   -0.3807   -8.5101 H   0  0  0  0  0  0  0  0  0  0  0  0
    1.6730   -0.6864   -7.6340 H   0  0  0  0  0  0  0  0  0  0  0  0
    1.6776    0.3766   -9.0456 H   0  0  0  0  0  0  0  0  0  0  0  0
    1.7439    0.3963   -4.8699 H   0  0  0  0  0  0  0  0  0  0  0  0
    0.4651   -0.3581   -2.9354 H   0  0  0  0  0  0  0  0  0  0  0  0
    0.5071   -1.2426    4.0101 H   0  0  0  0  0  0  0  0  0  0  0  0
    0.9663   -2.9615    4.0227 H   0  0  0  0  0  0  0  0  0  0  0  0
   -1.1149   -3.5252    2.7740 H   0  0  0  0  0  0  0  0  0  0  0  0
   -1.4733   -2.6747    4.2829 H   0  0  0  0  0  0  0  0  0  0  0  0
   -1.5708   -1.8148    2.7438 H   0  0  0  0  0  0  0  0  0  0  0  0
   -0.1637    3.6456   -0.5663 H   0  0  0  0  0  0  0  0  0  0  0  0
   -1.2315    3.5868   -1.9764 H   0  0  0  0  0  0  0  0  0  0  0  0
    0.6053    2.7349   -3.3932 H   0  0  0  0  0  0  0  0  0  0  0  0
    1.0815    4.2618   -2.6284 H   0  0  0  0  0  0  0  0  0  0  0  0
    1.7107    2.7296   -2.0161 H   0  0  0  0  0  0  0  0  0  0  0  0
    5.0532    0.2362    1.1425 H   0  0  0  0  0  0  0  0  0  0  0  0
    6.1761   -1.6129   -0.0011 H   0  0  0  0  0  0  0  0  0  0  0  0
    6.9490   -3.9432    0.0946 H   0  0  0  0  0  0  0  0  0  0  0  0
    6.2213   -5.0846    1.2343 H   0  0  0  0  0  0  0  0  0  0  0  0
    4.8665   -3.9895   -1.2784 H   0  0  0  0  0  0  0  0  0  0  0  0
    4.1354   -5.1180   -0.1387 H   0  0  0  0  0  0  0  0  0  0  0  0
    5.5379   -5.6139   -1.0939 H   0  0  0  0  0  0  0  0  0  0  0  0
    4.3819   -4.3734    2.7076 H   0  0  0  0  0  0  0  0  0  0  0  0
    3.2618   -2.5349    3.8538 H   0  0  0  0  0  0  0  0  0  0  0  0
    4.5426   -1.1245    5.3063 H   0  0  0  0  0  0  0  0  0  0  0  0
    3.7146   -1.3792    7.5947 H   0  0  0  0  0  0  0  0  0  0  0  0
    2.1991   -0.5970    9.3454 H   0  0  0  0  0  0  0  0  0  0  0  0
    0.7698    0.3639    8.9389 H   0  0  0  0  0  0  0  0  0  0  0  0
   -0.3380   -1.6759    8.0218 H   0  0  0  0  0  0  0  0  0  0  0  0
    1.0873   -2.6337    8.4244 H   0  0  0  0  0  0  0  0  0  0  0  0
    0.1204   -1.9077    9.7124 H   0  0  0  0  0  0  0  0  0  0  0  0
    0.2282    0.8593    6.5884 H   0  0  0  0  0  0  0  0  0  0  0  0
    1.0464    1.1105    4.2973 H   0  0  0  0  0  0  0  0  0  0  0  0
    5.9830    0.9914    4.7131 H   0  0  0  0  0  0  0  0  0  0  0  0
    7.4988    2.7683    5.1348 H   0  0  0  0  0  0  0  0  0  0  0  0
   10.8335    7.1296    5.8531 H   0  0  0  0  0  0  0  0  0  0  0  0
   10.8256    9.4046    4.9401 H   0  0  0  0  0  0  0  0  0  0  0  0
  1  2  2  0  0  0  0
  2  3  1  0  0  0  0
  3  4  2  0  0  0  0
  3  5  1  0  0  0  0
  5  6  1  0  0  0  0
  6  7  1  0  0  0  0
  5  8  1  0  0  0  0
  8  9  2  0  0  0  0
  8 10  1  0  0  0  0
 10 11  1  0  0  0  0
 11 12  1  0  0  0  0
 10 13  1  0  0  0  0
 13 14  2  0  0  0  0
  1 15  1  0  0  0  0
 15 16  2  0  0  0  0
 16 17  1  0  0  0  0
 17 18  1  0  0  0  0
 18 19  1  0  0  0  0
 19 20  2  0  0  0  0
 20 21  1  0  0  0  0
 21 22  2  0  0  0  0
 22 23  1  0  0  0  0
 23 24  1  0  0  0  0
 22 25  1  0  0  0  0
 25 26  2  0  0  0  0
 18 27  1  0  0  0  0
 27 28  2  0  0  0  0
 28 29  1  0  0  0  0
 29 30  2  0  0  0  0
 30 31  1  0  0  0  0
 31 32  1  0  0  0  0
 30 33  1  0  0  0  0
 33 34  2  0  0  0  0
 18 35  1  0  0  0  0
 35 36  2  0  0  0  0
 36 37  1  0  0  0  0
 37 38  1  0  0  0  0
 36 39  1  0  0  0  0
 39 40  1  0  0  0  0
 40 41  2  0  0  0  0
 41 42  1  0  0  0  0
 42 43  1  0  0  0  0
 43 44  1  0  0  0  0
 41 45  1  0  0  0  0
 45 46  2  0  0  0  0
 46 47  1  0  0  0  0
 47 48  2  0  0  0  0
 47 49  1  0  0  0  0
 49 50  1  0  0  0  0
 50 51  1  0  0  0  0
 46 52  1  0  0  0  0
 52 53  1  0  0  0  0
 53 54  1  0  0  0  0
 54 55  2  0  0  0  0
 55 56  1  0  0  0  0
 56 57  1  0  0  0  0
 56 58  1  0  0  0  0
 58 59  2  0  0  0  0
 59 60  1  0  0  0  0
 60 61  2  0  0  0  0
 61 62  1  0  0  0  0
 62 63  1  0  0  0  0
 61 64  1  0  0  0  0
 64 65  2  0  0  0  0
 56 66  1  0  0  0  0
 66 67  2  0  0  0  0
 67 68  1  0  0  0  0
 68 69  2  0  0  0  0
 69 70  1  0  0  0  0
 70 71  1  0  0  0  0
 69 72  1  0  0  0  0
 72 73  2  0  0  0  0
 55 74  1  0  0  0  0
 74 75  2  0  0  0  0
 75 76  1  0  0  0  0
 75 77  1  0  0  0  0
 77 78  2  0  0  0  0
 78 79  1  0  0  0  0
 79 80  2  0  0  0  0
 79 81  1  0  0  0  0
 81 82  2  0  0  0  0
 82 83  1  0  0  0  0
 83 84  2  0  0  0  0
 84 85  1  0  0  0  0
 85 86  1  0  0  0  0
 85 87  2  0  0  0  0
 87 88  1  0  0  0  0
 82 89  1  0  0  0  0
 89 90  2  0  0  0  0
 90 91  1  0  0  0  0
 91 92  3  0  0  0  0
 90 93  1  0  0  0  0
 93 94  3  0  0  0  0
 13  2  1  0  0  0  0
 38 15  1  0  0  0  0
 48 40  1  0  0  0  0
 57 53  2  0  0  0  0
 65 58  1  0  0  0  0
 73 66  1  0  0  0  0
 89 78  1  0  0  0  0
 37 17  2  0  0  0  0
 57 45  1  0  0  0  0
 87 81  1  0  0  0  0
 26 19  1  0  0  0  0
 34 27  1  0  0  0  0
 48 35  1  0  0  0  0
 76 54  1  0  0  0  0
  1 95  1  0  0  0  0
  6 96  1  0  0  0  0
  6 97  1  0  0  0  0
  7 98  1  0  0  0  0
  7 99  1  0  0  0  0
  7100  1  0  0  0  0
 11101  1  0  0  0  0
 11102  1  0  0  0  0
 12103  1  0  0  0  0
 12104  1  0  0  0  0
 12105  1  0  0  0  0
 16106  1  0  0  0  0
 20107  1  0  0  0  0
 21108  1  0  0  0  0
 23109  1  0  0  0  0
 23110  1  0  0  0  0
 24111  1  0  0  0  0
 24112  1  0  0  0  0
 24113  1  0  0  0  0
 25114  1  0  0  0  0
 26115  1  0  0  0  0
 28116  1  0  0  0  0
 29117  1  0  0  0  0
 31118  1  0  0  0  0
 31119  1  0  0  0  0
 32120  1  0  0  0  0
 32121  1  0  0  0  0
 32122  1  0  0  0  0
 33123  1  0  0  0  0
 34124  1  0  0  0  0
 43125  1  0  0  0  0
 43126  1  0  0  0  0
 44127  1  0  0  0  0
 44128  1  0  0  0  0
 44129  1  0  0  0  0
 50130  1  0  0  0  0
 50131  1  0  0  0  0
 51132  1  0  0  0  0
 51133  1  0  0  0  0
 51134  1  0  0  0  0
 59135  1  0  0  0  0
 60136  1  0  0  0  0
 62137  1  0  0  0  0
 62138  1  0  0  0  0
 63139  1  0  0  0  0
 63140  1  0  0  0  0
 63141  1  0  0  0  0
 64142  1  0  0  0  0
 65143  1  0  0  0  0
 67144  1  0  0  0  0
 68145  1  0  0  0  0
 70146  1  0  0  0  0
 70147  1  0  0  0  0
 71148  1  0  0  0  0
 71149  1  0  0  0  0
 71150  1  0  0  0  0
 72151  1  0  0  0  0
 73152  1  0  0  0  0
 74153  1  0  0  0  0
 77154  1  0  0  0  0
 83155  1  0  0  0  0
 84156  1  0  0  0  0
M  END
