
  xtb     02022202373D
 energy: -202.050745086259 gnorm: 0.000404483954 xtb: 6.4.1 (unknown)
118132  0     0  0            999 V2000
   -5.0532    0.6494   -9.6448 C   0  0  0  0  0  0  0  0  0  0  0  0
   -6.1845    0.3873  -10.3886 C   0  0  0  0  0  0  0  0  0  0  0  0
   -7.2680   -0.4530   -9.9437 C   0  0  0  0  0  0  0  0  0  0  0  0
   -7.2830   -1.0435   -8.8721 O   0  0  0  0  0  0  0  0  0  0  0  0
   -8.3493   -0.5785  -10.8042 N   0  0  0  0  0  0  0  0  0  0  0  0
   -9.4438   -1.4298  -10.3509 C   0  0  0  0  0  0  0  0  0  0  0  0
   -9.2564   -2.8667  -10.8187 C   0  0  0  0  0  0  0  0  0  0  0  0
   -8.4151   -0.0072  -12.0436 C   0  0  0  0  0  0  0  0  0  0  0  0
   -9.7191   -0.2684  -13.0243 S   0  0  0  0  0  0  0  0  0  0  0  0
   -7.3834    0.7875  -12.4504 N   0  0  0  0  0  0  0  0  0  0  0  0
   -7.4350    1.4044  -13.7710 C   0  0  0  0  0  0  0  0  0  0  0  0
   -6.9146    0.4576  -14.8442 C   0  0  0  0  0  0  0  0  0  0  0  0
   -6.2380    1.0255  -11.7002 C   0  0  0  0  0  0  0  0  0  0  0  0
   -5.3509    1.7330  -12.1397 O   0  0  0  0  0  0  0  0  0  0  0  0
   -4.6361    0.2620   -8.3704 C   0  0  0  0  0  0  0  0  0  0  0  0
   -5.5123   -0.7894   -7.2551 S   0  0  0  0  0  0  0  0  0  0  0  0
   -4.2609   -0.5957   -6.0923 C   0  0  0  0  0  0  0  0  0  0  0  0
   -3.9161   -0.9590   -4.7915 C   0  0  0  0  0  0  0  0  0  0  0  0
   -4.6068   -1.8463   -3.4636 S   0  0  0  0  0  0  0  0  0  0  0  0
   -3.2275   -1.4159   -2.5179 C   0  0  0  0  0  0  0  0  0  0  0  0
   -2.7743   -1.6176   -1.1994 C   0  0  0  0  0  0  0  0  0  0  0  0
   -3.2640   -2.3652   -0.1041 C   0  0  0  0  0  0  0  0  0  0  0  0
   -2.4942   -2.4182    1.1130 C   0  0  0  0  0  0  0  0  0  0  0  0
   -3.0498   -3.2019    2.0240 N   0  0  0  0  0  0  0  0  0  0  0  0
   -4.4182   -3.8134    1.4148 S   0  0  0  0  0  0  0  0  0  0  0  0
   -4.3595   -3.1050   -0.0368 N   0  0  0  0  0  0  0  0  0  0  0  0
   -1.3332   -1.6208    1.2319 C   0  0  0  0  0  0  0  0  0  0  0  0
   -0.4772   -1.3159    2.3045 C   0  0  0  0  0  0  0  0  0  0  0  0
   -0.2509   -1.7431    3.9626 S   0  0  0  0  0  0  0  0  0  0  0  0
    1.0443   -0.5686    4.0825 C   0  0  0  0  0  0  0  0  0  0  0  0
    1.8920   -0.1752    5.1291 C   0  0  0  0  0  0  0  0  0  0  0  0
    1.7602   -0.6195    6.5455 C   0  0  0  0  0  0  0  0  0  0  0  0
    0.3137   -0.7822    7.0026 C   0  0  0  0  0  0  0  0  0  0  0  0
    2.7995    0.7906    4.6969 C   0  0  0  0  0  0  0  0  0  0  0  0
    2.5410    1.2526    3.0121 S   0  0  0  0  0  0  0  0  0  0  0  0
    1.2713    0.1011    2.8708 C   0  0  0  0  0  0  0  0  0  0  0  0
    0.4051   -0.3220    1.8613 C   0  0  0  0  0  0  0  0  0  0  0  0
    0.1507   -0.0166    0.5466 N   0  0  0  0  0  0  0  0  0  0  0  0
   -0.9020   -0.8155    0.1445 C   0  0  0  0  0  0  0  0  0  0  0  0
   -1.5452   -0.9300   -1.1020 C   0  0  0  0  0  0  0  0  0  0  0  0
   -1.2004   -0.3790   -2.3345 N   0  0  0  0  0  0  0  0  0  0  0  0
   -2.2621   -0.6508   -3.1905 C   0  0  0  0  0  0  0  0  0  0  0  0
   -2.6656   -0.3574   -4.5010 C   0  0  0  0  0  0  0  0  0  0  0  0
   -2.2482    0.3767   -5.5854 N   0  0  0  0  0  0  0  0  0  0  0  0
   -3.2098    0.2377   -6.5576 C   0  0  0  0  0  0  0  0  0  0  0  0
   -3.4237    0.7165   -7.8337 C   0  0  0  0  0  0  0  0  0  0  0  0
   -1.1318    1.2811   -5.6897 C   0  0  0  0  0  0  0  0  0  0  0  0
    0.0324    0.6739   -6.4703 C   0  0  0  0  0  0  0  0  0  0  0  0
    0.1700   -0.4828   -2.8143 C   0  0  0  0  0  0  0  0  0  0  0  0
    0.4090   -1.8123   -3.5299 C   0  0  0  0  0  0  0  0  0  0  0  0
    0.5004    1.2829    0.0107 C   0  0  0  0  0  0  0  0  0  0  0  0
   -0.2146    2.4024    0.7662 C   0  0  0  0  0  0  0  0  0  0  0  0
    3.7829    1.5269    5.3869 C   0  0  0  0  0  0  0  0  0  0  0  0
    4.5464    1.1287    6.4511 C   0  0  0  0  0  0  0  0  0  0  0  0
    4.8507   -0.2724    6.8120 C   0  0  0  0  0  0  0  0  0  0  0  0
    4.4463   -1.2824    6.2708 O   0  0  0  0  0  0  0  0  0  0  0  0
    5.8576   -0.1993    7.8889 C   0  0  0  0  0  0  0  0  0  0  0  0
    6.4382   -1.2713    8.5632 C   0  0  0  0  0  0  0  0  0  0  0  0
    7.3470   -0.9016    9.5257 C   0  0  0  0  0  0  0  0  0  0  0  0
    7.6713    0.4366    9.7856 C   0  0  0  0  0  0  0  0  0  0  0  0
    7.1160    1.5030    9.1201 C   0  0  0  0  0  0  0  0  0  0  0  0
    6.1755    1.1489    8.1474 C   0  0  0  0  0  0  0  0  0  0  0  0
    5.3710    1.9938    7.2699 C   0  0  0  0  0  0  0  0  0  0  0  0
    5.3387    3.3651    7.2863 C   0  0  0  0  0  0  0  0  0  0  0  0
    4.4814    4.1649    6.5021 C   0  0  0  0  0  0  0  0  0  0  0  0
    3.8006    4.8834    5.9189 N   0  0  0  0  0  0  0  0  0  0  0  0
    6.1443    4.1749    8.1129 C   0  0  0  0  0  0  0  0  0  0  0  0
    6.7711    4.8956    8.7504 N   0  0  0  0  0  0  0  0  0  0  0  0
    8.6463    0.0727   10.8774 C   0  0  0  0  0  0  0  0  0  0  0  0
    8.1579    0.2731   12.3276 C   0  0  0  0  0  0  0  0  0  0  0  0
    9.0886   -0.5922   13.1460 C   0  0  0  0  0  0  0  0  0  0  0  0
    8.7791   -1.8594   12.9033 C   0  0  0  0  0  0  0  0  0  0  0  0
    7.6334   -1.8721   11.9169 C   0  0  0  0  0  0  0  0  0  0  0  0
    6.8962   -0.5995   12.3537 C   0  0  0  0  0  0  0  0  0  0  0  0
    8.2816   -1.4194   10.5910 C   0  0  0  0  0  0  0  0  0  0  0  0
   -4.3544    1.3044  -10.1599 H   0  0  0  0  0  0  0  0  0  0  0  0
  -10.3771   -1.0189  -10.7386 H   0  0  0  0  0  0  0  0  0  0  0  0
   -9.4433   -1.3874   -9.2603 H   0  0  0  0  0  0  0  0  0  0  0  0
   -9.2423   -2.9131  -11.9051 H   0  0  0  0  0  0  0  0  0  0  0  0
  -10.0786   -3.4761  -10.4553 H   0  0  0  0  0  0  0  0  0  0  0  0
   -8.3235   -3.2685  -10.4304 H   0  0  0  0  0  0  0  0  0  0  0  0
   -8.4685    1.6869  -13.9770 H   0  0  0  0  0  0  0  0  0  0  0  0
   -6.8080    2.2964  -13.7216 H   0  0  0  0  0  0  0  0  0  0  0  0
   -7.5313   -0.4367  -14.8932 H   0  0  0  0  0  0  0  0  0  0  0  0
   -6.9435    0.9532  -15.8100 H   0  0  0  0  0  0  0  0  0  0  0  0
   -5.8880    0.1726  -14.6262 H   0  0  0  0  0  0  0  0  0  0  0  0
    2.2645    0.1092    7.1854 H   0  0  0  0  0  0  0  0  0  0  0  0
    2.2939   -1.5686    6.6602 H   0  0  0  0  0  0  0  0  0  0  0  0
   -0.2615    0.1145    6.7822 H   0  0  0  0  0  0  0  0  0  0  0  0
    0.2909   -0.9503    8.0764 H   0  0  0  0  0  0  0  0  0  0  0  0
   -0.1625   -1.6291    6.5173 H   0  0  0  0  0  0  0  0  0  0  0  0
   -2.7665    1.3671   -8.3822 H   0  0  0  0  0  0  0  0  0  0  0  0
   -1.4786    2.1853   -6.2006 H   0  0  0  0  0  0  0  0  0  0  0  0
   -0.8212    1.5641   -4.6815 H   0  0  0  0  0  0  0  0  0  0  0  0
    0.4061   -0.2205   -5.9794 H   0  0  0  0  0  0  0  0  0  0  0  0
   -0.2916    0.4044   -7.4722 H   0  0  0  0  0  0  0  0  0  0  0  0
    0.8420    1.3945   -6.5485 H   0  0  0  0  0  0  0  0  0  0  0  0
    0.8408   -0.4299   -1.9572 H   0  0  0  0  0  0  0  0  0  0  0  0
    0.3881    0.3518   -3.4846 H   0  0  0  0  0  0  0  0  0  0  0  0
   -0.2579   -1.9227   -4.3817 H   0  0  0  0  0  0  0  0  0  0  0  0
    1.4378   -1.8646   -3.8766 H   0  0  0  0  0  0  0  0  0  0  0  0
    0.2296   -2.6401   -2.8471 H   0  0  0  0  0  0  0  0  0  0  0  0
    0.2084    1.3286   -1.0365 H   0  0  0  0  0  0  0  0  0  0  0  0
    1.5841    1.4100    0.0946 H   0  0  0  0  0  0  0  0  0  0  0  0
    0.0861    2.4213    1.8099 H   0  0  0  0  0  0  0  0  0  0  0  0
    0.0346    3.3607    0.3196 H   0  0  0  0  0  0  0  0  0  0  0  0
   -1.2921    2.2607    0.7146 H   0  0  0  0  0  0  0  0  0  0  0  0
    3.9614    2.5181    4.9852 H   0  0  0  0  0  0  0  0  0  0  0  0
    6.1668   -2.2878    8.3246 H   0  0  0  0  0  0  0  0  0  0  0  0
    7.3833    2.5262    9.3246 H   0  0  0  0  0  0  0  0  0  0  0  0
    9.6739    0.3967   10.7252 H   0  0  0  0  0  0  0  0  0  0  0  0
    8.0567    1.3106   12.6342 H   0  0  0  0  0  0  0  0  0  0  0  0
    9.8859   -0.2072   13.7542 H   0  0  0  0  0  0  0  0  0  0  0  0
    9.2663   -2.7446   13.2681 H   0  0  0  0  0  0  0  0  0  0  0  0
    7.0546   -2.7895   11.8515 H   0  0  0  0  0  0  0  0  0  0  0  0
    6.1192   -0.2771   11.6631 H   0  0  0  0  0  0  0  0  0  0  0  0
    6.4787   -0.6891   13.3552 H   0  0  0  0  0  0  0  0  0  0  0  0
    9.0665   -2.0920   10.2499 H   0  0  0  0  0  0  0  0  0  0  0  0
  1  2  2  0  0  0  0
  2  3  1  0  0  0  0
  3  4  2  0  0  0  0
  3  5  1  0  0  0  0
  5  6  1  0  0  0  0
  6  7  1  0  0  0  0
  5  8  1  0  0  0  0
  8  9  2  0  0  0  0
  8 10  1  0  0  0  0
 10 11  1  0  0  0  0
 11 12  1  0  0  0  0
 10 13  1  0  0  0  0
 13 14  2  0  0  0  0
  1 15  1  0  0  0  0
 15 16  1  0  0  0  0
 16 17  1  0  0  0  0
 17 18  1  0  0  0  0
 18 19  1  0  0  0  0
 19 20  1  0  0  0  0
 20 21  1  0  0  0  0
 21 22  1  0  0  0  0
 22 23  1  0  0  0  0
 23 24  2  0  0  0  0
 24 25  1  0  0  0  0
 25 26  1  0  0  0  0
 23 27  1  0  0  0  0
 27 28  1  0  0  0  0
 28 29  1  0  0  0  0
 29 30  1  0  0  0  0
 30 31  1  0  0  0  0
 31 32  1  0  0  0  0
 32 33  1  0  0  0  0
 31 34  2  0  0  0  0
 34 35  1  0  0  0  0
 35 36  1  0  0  0  0
 36 37  1  0  0  0  0
 37 38  1  0  0  0  0
 38 39  1  0  0  0  0
 39 40  1  0  0  0  0
 40 41  1  0  0  0  0
 41 42  1  0  0  0  0
 42 43  1  0  0  0  0
 43 44  1  0  0  0  0
 44 45  1  0  0  0  0
 45 46  1  0  0  0  0
 44 47  1  0  0  0  0
 47 48  1  0  0  0  0
 41 49  1  0  0  0  0
 49 50  1  0  0  0  0
 38 51  1  0  0  0  0
 51 52  1  0  0  0  0
 34 53  1  0  0  0  0
 53 54  2  0  0  0  0
 54 55  1  0  0  0  0
 55 56  2  0  0  0  0
 55 57  1  0  0  0  0
 57 58  2  0  0  0  0
 58 59  1  0  0  0  0
 59 60  2  0  0  0  0
 60 61  1  0  0  0  0
 61 62  2  0  0  0  0
 62 63  1  0  0  0  0
 63 64  2  0  0  0  0
 64 65  1  0  0  0  0
 65 66  3  0  0  0  0
 64 67  1  0  0  0  0
 67 68  3  0  0  0  0
 60 69  1  0  0  0  0
 69 70  1  0  0  0  0
 70 71  1  0  0  0  0
 71 72  2  0  0  0  0
 72 73  1  0  0  0  0
 73 74  1  0  0  0  0
 73 75  1  0  0  0  0
 13  2  1  0  0  0  0
 46 15  2  0  0  0  0
 63 54  1  0  0  0  0
 75 69  1  0  0  0  0
 45 17  2  0  0  0  0
 62 57  1  0  0  0  0
 74 70  1  0  0  0  0
 43 18  2  0  0  0  0
 75 59  1  0  0  0  0
 42 20  2  0  0  0  0
 40 21  2  0  0  0  0
 26 22  2  0  0  0  0
 39 27  2  0  0  0  0
 37 28  2  0  0  0  0
 36 30  2  0  0  0  0
  1 76  1  0  0  0  0
  6 77  1  0  0  0  0
  6 78  1  0  0  0  0
  7 79  1  0  0  0  0
  7 80  1  0  0  0  0
  7 81  1  0  0  0  0
 11 82  1  0  0  0  0
 11 83  1  0  0  0  0
 12 84  1  0  0  0  0
 12 85  1  0  0  0  0
 12 86  1  0  0  0  0
 32 87  1  0  0  0  0
 32 88  1  0  0  0  0
 33 89  1  0  0  0  0
 33 90  1  0  0  0  0
 33 91  1  0  0  0  0
 46 92  1  0  0  0  0
 47 93  1  0  0  0  0
 47 94  1  0  0  0  0
 48 95  1  0  0  0  0
 48 96  1  0  0  0  0
 48 97  1  0  0  0  0
 49 98  1  0  0  0  0
 49 99  1  0  0  0  0
 50100  1  0  0  0  0
 50101  1  0  0  0  0
 50102  1  0  0  0  0
 51103  1  0  0  0  0
 51104  1  0  0  0  0
 52105  1  0  0  0  0
 52106  1  0  0  0  0
 52107  1  0  0  0  0
 53108  1  0  0  0  0
 58109  1  0  0  0  0
 61110  1  0  0  0  0
 69111  1  0  0  0  0
 70112  1  0  0  0  0
 71113  1  0  0  0  0
 72114  1  0  0  0  0
 73115  1  0  0  0  0
 74116  1  0  0  0  0
 74117  1  0  0  0  0
 75118  1  0  0  0  0
M  END
