
  xtb     02012222353D
 energy: -184.751970487485 gnorm: 0.000516503484 xtb: 6.4.1 (unknown)
101111  0     0  0            999 V2000
    6.9855    2.8437    0.1398 C   0  0  0  0  0  0  0  0  0  0  0  0
    6.7699    4.1561   -0.2263 C   0  0  0  0  0  0  0  0  0  0  0  0
    7.9770    4.9337   -0.4966 C   0  0  0  0  0  0  0  0  0  0  0  0
    9.1013    4.4814   -0.3945 O   0  0  0  0  0  0  0  0  0  0  0  0
    7.7809    6.2476   -0.9031 N   0  0  0  0  0  0  0  0  0  0  0  0
    8.9807    7.0219   -1.2018 C   0  0  0  0  0  0  0  0  0  0  0  0
    9.4481    7.8138    0.0119 C   0  0  0  0  0  0  0  0  0  0  0  0
    6.5590    6.8454   -1.0010 C   0  0  0  0  0  0  0  0  0  0  0  0
    6.4219    8.4230   -1.4697 S   0  0  0  0  0  0  0  0  0  0  0  0
    5.4462    6.1071   -0.7034 N   0  0  0  0  0  0  0  0  0  0  0  0
    4.1295    6.7257   -0.8117 C   0  0  0  0  0  0  0  0  0  0  0  0
    3.5841    6.6219   -2.2296 C   0  0  0  0  0  0  0  0  0  0  0  0
    5.4720    4.7678   -0.3528 C   0  0  0  0  0  0  0  0  0  0  0  0
    4.4137    4.1789   -0.1618 O   0  0  0  0  0  0  0  0  0  0  0  0
    6.1330    1.7867    0.4557 C   0  0  0  0  0  0  0  0  0  0  0  0
    6.5967    0.5063    0.8117 C   0  0  0  0  0  0  0  0  0  0  0  0
    8.0283    0.1086    0.9640 C   0  0  0  0  0  0  0  0  0  0  0  0
    8.5706    0.5328    2.3316 C   0  0  0  0  0  0  0  0  0  0  0  0
    5.5445   -0.3626    1.0600 C   0  0  0  0  0  0  0  0  0  0  0  0
    5.4965   -2.0521    1.5322 S   0  0  0  0  0  0  0  0  0  0  0  0
    3.7692   -1.9793    1.4929 C   0  0  0  0  0  0  0  0  0  0  0  0
    2.6684   -2.8028    1.7575 C   0  0  0  0  0  0  0  0  0  0  0  0
    2.5939   -4.1112    2.2847 C   0  0  0  0  0  0  0  0  0  0  0  0
    1.3063   -4.6598    2.5935 C   0  0  0  0  0  0  0  0  0  0  0  0
    1.3860   -5.8633    3.1387 N   0  0  0  0  0  0  0  0  0  0  0  0
    2.9478   -6.2740    3.2473 S   0  0  0  0  0  0  0  0  0  0  0  0
    3.5823   -4.9307    2.6066 N   0  0  0  0  0  0  0  0  0  0  0  0
    0.1506   -3.9244    2.2484 C   0  0  0  0  0  0  0  0  0  0  0  0
   -1.2068   -4.2690    2.3102 C   0  0  0  0  0  0  0  0  0  0  0  0
   -2.2010   -5.5909    2.8082 S   0  0  0  0  0  0  0  0  0  0  0  0
   -3.5974   -4.7458    2.1770 C   0  0  0  0  0  0  0  0  0  0  0  0
   -4.9463   -5.0907    2.0823 C   0  0  0  0  0  0  0  0  0  0  0  0
   -5.4964   -6.4071    2.5134 C   0  0  0  0  0  0  0  0  0  0  0  0
   -5.5775   -7.3656    1.3221 C   0  0  0  0  0  0  0  0  0  0  0  0
   -5.6775   -4.1058    1.4204 C   0  0  0  0  0  0  0  0  0  0  0  0
   -4.6801   -2.7109    0.9999 S   0  0  0  0  0  0  0  0  0  0  0  0
   -3.2817   -3.4923    1.6310 C   0  0  0  0  0  0  0  0  0  0  0  0
   -1.9169   -3.2220    1.7097 C   0  0  0  0  0  0  0  0  0  0  0  0
   -1.0578   -2.2332    1.3035 N   0  0  0  0  0  0  0  0  0  0  0  0
    0.2267   -2.6415    1.6304 C   0  0  0  0  0  0  0  0  0  0  0  0
    1.4985   -2.0260    1.4970 C   0  0  0  0  0  0  0  0  0  0  0  0
    1.8960   -0.7534    1.1427 N   0  0  0  0  0  0  0  0  0  0  0  0
    3.2639   -0.7244    1.1295 C   0  0  0  0  0  0  0  0  0  0  0  0
    4.2726    0.2137    0.8903 C   0  0  0  0  0  0  0  0  0  0  0  0
    4.3714    1.8726    0.4377 S   0  0  0  0  0  0  0  0  0  0  0  0
    1.1543    0.4847    1.0689 C   0  0  0  0  0  0  0  0  0  0  0  0
    1.0264    0.9914   -0.3683 C   0  0  0  0  0  0  0  0  0  0  0  0
   -1.5179   -1.3614    0.2415 C   0  0  0  0  0  0  0  0  0  0  0  0
   -1.4880   -2.0787   -1.1072 C   0  0  0  0  0  0  0  0  0  0  0  0
   -7.0563   -4.1281    1.1474 C   0  0  0  0  0  0  0  0  0  0  0  0
   -7.7640   -3.3753    0.2520 C   0  0  0  0  0  0  0  0  0  0  0  0
   -9.2200   -3.1791    0.4412 C   0  0  0  0  0  0  0  0  0  0  0  0
   -9.9507   -3.7863    1.1896 O   0  0  0  0  0  0  0  0  0  0  0  0
   -9.5694   -2.0393   -0.4414 C   0  0  0  0  0  0  0  0  0  0  0  0
  -10.7750   -1.3770   -0.5594 C   0  0  0  0  0  0  0  0  0  0  0  0
  -10.8391   -0.3089   -1.4404 C   0  0  0  0  0  0  0  0  0  0  0  0
  -11.9870    0.3653   -1.5820 F   0  0  0  0  0  0  0  0  0  0  0  0
   -9.7197    0.0749   -2.1795 C   0  0  0  0  0  0  0  0  0  0  0  0
   -9.8088    1.1194   -3.0110 F   0  0  0  0  0  0  0  0  0  0  0  0
   -8.5114   -0.5976   -2.0720 C   0  0  0  0  0  0  0  0  0  0  0  0
   -8.4405   -1.6641   -1.1915 C   0  0  0  0  0  0  0  0  0  0  0  0
   -7.3466   -2.5842   -0.8812 C   0  0  0  0  0  0  0  0  0  0  0  0
   -6.2669   -2.8297   -1.6910 C   0  0  0  0  0  0  0  0  0  0  0  0
   -5.4256   -3.9515   -1.5361 C   0  0  0  0  0  0  0  0  0  0  0  0
   -4.7557   -4.8822   -1.4791 N   0  0  0  0  0  0  0  0  0  0  0  0
   -5.9167   -2.0404   -2.8030 C   0  0  0  0  0  0  0  0  0  0  0  0
   -5.5601   -1.4085   -3.6928 N   0  0  0  0  0  0  0  0  0  0  0  0
    8.0427    2.5973    0.1814 H   0  0  0  0  0  0  0  0  0  0  0  0
    8.7562    7.6919   -2.0333 H   0  0  0  0  0  0  0  0  0  0  0  0
    9.7473    6.3041   -1.4985 H   0  0  0  0  0  0  0  0  0  0  0  0
   10.3560    8.3547   -0.2378 H   0  0  0  0  0  0  0  0  0  0  0  0
    8.6883    8.5301    0.3151 H   0  0  0  0  0  0  0  0  0  0  0  0
    9.6572    7.1414    0.8405 H   0  0  0  0  0  0  0  0  0  0  0  0
    3.4750    6.1954   -0.1176 H   0  0  0  0  0  0  0  0  0  0  0  0
    4.2201    7.7708   -0.5122 H   0  0  0  0  0  0  0  0  0  0  0  0
    2.5977    7.0742   -2.2725 H   0  0  0  0  0  0  0  0  0  0  0  0
    3.5053    5.5786   -2.5262 H   0  0  0  0  0  0  0  0  0  0  0  0
    4.2366    7.1437   -2.9256 H   0  0  0  0  0  0  0  0  0  0  0  0
    8.0907   -0.9780    0.8766 H   0  0  0  0  0  0  0  0  0  0  0  0
    8.6375    0.5516    0.1749 H   0  0  0  0  0  0  0  0  0  0  0  0
    8.5342    1.6139    2.4418 H   0  0  0  0  0  0  0  0  0  0  0  0
    7.9810    0.0826    3.1267 H   0  0  0  0  0  0  0  0  0  0  0  0
    9.6019    0.2074    2.4379 H   0  0  0  0  0  0  0  0  0  0  0  0
   -4.8362   -6.8283    3.2739 H   0  0  0  0  0  0  0  0  0  0  0  0
   -6.4906   -6.2780    2.9457 H   0  0  0  0  0  0  0  0  0  0  0  0
   -5.9581   -8.3303    1.6463 H   0  0  0  0  0  0  0  0  0  0  0  0
   -6.2369   -6.9658    0.5555 H   0  0  0  0  0  0  0  0  0  0  0  0
   -4.5927   -7.5069    0.8848 H   0  0  0  0  0  0  0  0  0  0  0  0
    0.1860    0.3453    1.5522 H   0  0  0  0  0  0  0  0  0  0  0  0
    1.7063    1.2318    1.6493 H   0  0  0  0  0  0  0  0  0  0  0  0
    0.3277    1.8223   -0.4066 H   0  0  0  0  0  0  0  0  0  0  0  0
    0.6849    0.2077   -1.0403 H   0  0  0  0  0  0  0  0  0  0  0  0
    1.9911    1.3438   -0.7221 H   0  0  0  0  0  0  0  0  0  0  0  0
   -2.5455   -1.0776    0.4867 H   0  0  0  0  0  0  0  0  0  0  0  0
   -0.9192   -0.4611    0.1891 H   0  0  0  0  0  0  0  0  0  0  0  0
   -0.4723   -2.3822   -1.3531 H   0  0  0  0  0  0  0  0  0  0  0  0
   -1.8551   -1.4151   -1.8852 H   0  0  0  0  0  0  0  0  0  0  0  0
   -2.1172   -2.9657   -1.0877 H   0  0  0  0  0  0  0  0  0  0  0  0
   -7.6586   -4.7712    1.7822 H   0  0  0  0  0  0  0  0  0  0  0  0
  -11.6402   -1.6752    0.0109 H   0  0  0  0  0  0  0  0  0  0  0  0
   -7.6718   -0.2668   -2.6615 H   0  0  0  0  0  0  0  0  0  0  0  0
  1  2  2  0  0  0  0
  2  3  1  0  0  0  0
  3  4  2  0  0  0  0
  3  5  1  0  0  0  0
  5  6  1  0  0  0  0
  6  7  1  0  0  0  0
  5  8  1  0  0  0  0
  8  9  2  0  0  0  0
  8 10  1  0  0  0  0
 10 11  1  0  0  0  0
 11 12  1  0  0  0  0
 10 13  1  0  0  0  0
 13 14  2  0  0  0  0
  1 15  1  0  0  0  0
 15 16  2  0  0  0  0
 16 17  1  0  0  0  0
 17 18  1  0  0  0  0
 16 19  1  0  0  0  0
 19 20  1  0  0  0  0
 20 21  1  0  0  0  0
 21 22  1  0  0  0  0
 22 23  1  0  0  0  0
 23 24  1  0  0  0  0
 24 25  2  0  0  0  0
 25 26  1  0  0  0  0
 26 27  1  0  0  0  0
 24 28  1  0  0  0  0
 28 29  1  0  0  0  0
 29 30  1  0  0  0  0
 30 31  1  0  0  0  0
 31 32  1  0  0  0  0
 32 33  1  0  0  0  0
 33 34  1  0  0  0  0
 32 35  2  0  0  0  0
 35 36  1  0  0  0  0
 36 37  1  0  0  0  0
 37 38  1  0  0  0  0
 38 39  1  0  0  0  0
 39 40  1  0  0  0  0
 40 41  1  0  0  0  0
 41 42  1  0  0  0  0
 42 43  1  0  0  0  0
 43 44  1  0  0  0  0
 44 45  1  0  0  0  0
 42 46  1  0  0  0  0
 46 47  1  0  0  0  0
 39 48  1  0  0  0  0
 48 49  1  0  0  0  0
 35 50  1  0  0  0  0
 50 51  2  0  0  0  0
 51 52  1  0  0  0  0
 52 53  2  0  0  0  0
 52 54  1  0  0  0  0
 54 55  2  0  0  0  0
 55 56  1  0  0  0  0
 56 57  1  0  0  0  0
 56 58  2  0  0  0  0
 58 59  1  0  0  0  0
 58 60  1  0  0  0  0
 60 61  2  0  0  0  0
 61 62  1  0  0  0  0
 62 63  2  0  0  0  0
 63 64  1  0  0  0  0
 64 65  3  0  0  0  0
 63 66  1  0  0  0  0
 66 67  3  0  0  0  0
 13  2  1  0  0  0  0
 45 15  1  0  0  0  0
 62 51  1  0  0  0  0
 44 19  2  0  0  0  0
 61 54  1  0  0  0  0
 43 21  2  0  0  0  0
 41 22  2  0  0  0  0
 27 23  2  0  0  0  0
 40 28  2  0  0  0  0
 38 29  2  0  0  0  0
 37 31  2  0  0  0  0
  1 68  1  0  0  0  0
  6 69  1  0  0  0  0
  6 70  1  0  0  0  0
  7 71  1  0  0  0  0
  7 72  1  0  0  0  0
  7 73  1  0  0  0  0
 11 74  1  0  0  0  0
 11 75  1  0  0  0  0
 12 76  1  0  0  0  0
 12 77  1  0  0  0  0
 12 78  1  0  0  0  0
 17 79  1  0  0  0  0
 17 80  1  0  0  0  0
 18 81  1  0  0  0  0
 18 82  1  0  0  0  0
 18 83  1  0  0  0  0
 33 84  1  0  0  0  0
 33 85  1  0  0  0  0
 34 86  1  0  0  0  0
 34 87  1  0  0  0  0
 34 88  1  0  0  0  0
 46 89  1  0  0  0  0
 46 90  1  0  0  0  0
 47 91  1  0  0  0  0
 47 92  1  0  0  0  0
 47 93  1  0  0  0  0
 48 94  1  0  0  0  0
 48 95  1  0  0  0  0
 49 96  1  0  0  0  0
 49 97  1  0  0  0  0
 49 98  1  0  0  0  0
 50 99  1  0  0  0  0
 55100  1  0  0  0  0
 60101  1  0  0  0  0
M  END
