104

C          6.98820       -1.71890        4.27870
C          7.32780       -0.48490        4.79270
C          8.56820       -0.45210        5.56370
O          9.27140       -1.42810        5.74230
N          8.92720        0.78060        6.09390
C         10.16950        0.82120        6.85730
C          9.91560        0.59610        8.34170
C          8.17530        1.91260        5.97860
S          8.66010        3.32730        6.67960
N          7.00890        1.85160        5.26590
C          6.20280        3.05800        5.11470
C          6.67520        3.89630        3.93460
C          6.54890        0.71490        4.62230
O          5.51850        0.77590        3.96070
C          5.91510       -2.17450        3.51420
C          5.75150       -3.52420        3.15200
C          6.64450       -4.65010        3.55830
C          6.30640       -5.12980        4.97250
C          4.60100       -3.71170        2.40030
S          3.87440       -5.14550        1.69670
C          2.60790       -4.15140        1.06640
C          1.42470       -4.28440        0.33090
C          0.75260       -5.43760       -0.13240
C         -0.52280       -5.28590       -0.76590
N         -1.06420       -6.44650       -1.09960
S         -0.05170       -7.63000       -0.65780
N          1.11560       -6.70560       -0.02260
C         -1.01280       -3.98260       -1.00600
C         -2.14170       -3.54850       -1.70880
S         -3.51360       -4.21750       -2.52050
C         -4.00340       -2.59070       -2.96000
C         -5.07610       -2.10680       -3.69120
C         -6.14890       -2.99210       -4.23400
C         -7.33210       -3.06580       -3.26440
C         -5.03860       -0.70090       -3.79030
S         -3.63770       -0.01530       -2.95950
C         -3.13160       -1.59150       -2.48580
C         -2.07480       -2.14970       -1.76410
N         -0.96600       -1.70790       -1.09390
C         -0.29460       -2.81430       -0.60670
C          0.88500       -2.97250        0.16920
N          1.71040       -2.08190        0.83290
C          2.74480       -2.79300        1.37740
C          3.87970       -2.53040        2.15180
S          4.61760       -1.15720        2.88680
C          1.46330       -0.73170        1.28930
C          0.22760       -0.66160        2.18300
C         -0.51940       -0.34510       -1.28170
C          0.73180       -0.28300       -2.15390
C         -6.00870        0.03830       -4.46440
C         -6.12790        1.39560       -4.67560
C         -5.17640        2.42050       -4.25250
O         -4.15490        2.27760       -3.60350
C         -5.69330        3.70080       -4.78250
C         -5.14210        4.95980       -4.68040
C         -5.82450        6.01320       -5.28410
C         -5.22220        7.38890       -5.20350
F         -6.04890        8.35690       -5.61770
F         -4.10990        7.49110       -5.95640
F         -4.85380        7.70830       -3.95150
C         -7.01590        5.79980       -5.96550
C         -7.56480        4.52750       -6.06080
C         -6.89880        3.46800       -5.46580
C         -7.20590        2.03560       -5.39700
C         -8.33450        1.45120       -5.91450
C         -8.66480        0.08230       -5.83520
N         -9.00920       -1.01360       -5.80840
C         -9.34910        2.15460       -6.59730
N        -10.21080        2.66270       -7.16060
H          7.71170       -2.48590        4.54030
H         10.80390        0.02640        6.46120
H         10.64080        1.79120        6.69150
H          9.44030       -0.36940        8.49830
H          9.27570        1.37910        8.74170
H         10.86040        0.61210        8.87670
H          6.27090        3.62980        6.04140
H          5.17420        2.73030        4.95510
H          6.61610        3.31810        3.01550
H          6.04310        4.77410        3.83820
H          7.70130        4.22180        4.08730
H          6.49550       -5.47340        2.85680
H          7.69160       -4.34730        3.51440
H          6.45720       -4.33190        5.69560
H          6.94350       -5.96780        5.24190
H          5.26910       -5.45240        5.02260
H         -5.73170       -3.99270       -4.36320
H         -6.49820       -2.63890       -5.20510
H         -7.77300       -2.08270       -3.11850
H         -7.00710       -3.44950       -2.30020
H         -8.09450       -3.72670       -3.66570
H          2.34170       -0.43530        1.86750
H          1.38980       -0.04680        0.44480
H          0.05570        0.36480        2.49480
H          0.37730       -1.27120        3.07090
H         -0.65760       -1.02640        1.66660
H         -0.36640        0.14430       -0.32010
H         -1.33360        0.18250       -1.78410
H          1.05350        0.74870       -2.26440
H          1.54530       -0.86240       -1.72310
H          0.51560       -0.68420       -3.14130
H         -6.79040       -0.57290       -4.89410
H         -4.21570        5.11720       -4.14960
H         -7.52300        6.63370       -6.42600
H         -8.48950        4.38940       -6.59560
