101

C         -2.52470        5.20800       -3.76790
C         -3.68620        5.85060       -4.08900
C         -4.98720        5.19060       -4.11620
O         -5.19140        4.07020       -3.69470
N         -6.03730        5.95740       -4.60710
C         -7.33010        5.28840       -4.71210
C         -8.16080        5.48140       -3.45070
C         -5.95200        7.29170       -4.89150
S         -7.25960        8.11460       -5.47450
N         -4.76680        7.93470       -4.66710
C         -4.69100        9.37920       -4.86050
C         -5.18380       10.12650       -3.62870
C         -3.60740        7.30690       -4.23610
O         -2.59150        7.94210       -4.03840
C         -2.24580        3.81960       -3.72460
C         -2.60620        2.77470       -4.56170
C         -3.38300        2.89160       -5.83320
C         -4.63890        2.01990       -5.81950
C         -2.01140        1.57170       -4.14870
S         -2.08490       -0.06040       -4.77380
C         -1.06380       -0.58530       -3.48180
C         -0.47260       -1.76740       -3.00340
C         -0.38330       -3.08370       -3.51400
C          0.42760       -4.05260       -2.82320
N          0.47460       -5.21220       -3.45830
S         -0.42420       -5.10490       -4.79950
N         -0.90900       -3.57130       -4.62600
C          0.99130       -3.71420       -1.57020
C          1.66780       -4.45540       -0.58980
S          2.31650       -6.04250       -0.36430
C          2.78370       -5.58940        1.26580
C          3.41790       -6.28090        2.28380
C          3.82160       -7.71340        2.16380
C          2.74530       -8.63220        2.74980
C          3.56390       -5.47820        3.43630
S          2.90220       -3.85510        3.20500
C          2.44210       -4.26330        1.59840
C          1.81160       -3.62350        0.53280
N          1.27380       -2.38660        0.27420
C          0.79640       -2.41730       -1.01890
C          0.21500       -1.40860       -1.81440
N          0.11650       -0.04400       -1.61380
C         -0.67510        0.44990       -2.62050
C         -1.20390        1.68350       -3.01020
S         -1.12220        3.31260       -2.46110
C          1.11120        0.79910       -0.97870
C          2.05940        1.40720       -2.01170
C          0.78480       -1.56280        1.36310
C         -0.29020       -2.29370        2.16620
C          4.16710       -5.93820        4.60380
C          4.38430       -5.32230        5.81980
C          3.99030       -3.96070        6.17310
O          3.42820       -3.13860        5.47520
C          4.41930       -3.77030        7.57920
C          5.03810       -4.94500        8.04150
C          5.52490       -5.01820        9.33500
C          5.38420       -3.90380       10.15060
F          5.84620       -3.95390       11.40240
C          4.77570       -2.73270        9.70610
F          4.66080       -1.68110       10.52210
C          4.28570       -2.66560        8.39990
F          3.70400       -1.54660        7.97650
C          5.03580       -5.93040        6.95590
C          5.57660       -7.18970        7.04260
C          6.20350       -7.70680        8.19550
N          6.72420       -8.19110        9.09670
C          5.59800       -8.15050        6.01040
N          5.65570       -8.98930        5.22680
H         -1.69980        5.86280       -3.49870
H         -7.12290        4.22810       -4.86450
H         -7.85160        5.69160       -5.58130
H         -7.63090        5.08270       -2.58900
H         -9.10560        4.95620       -3.55540
H         -8.36600        6.53690       -3.28830
H         -5.29010        9.64080       -5.73400
H         -3.64160        9.61320       -5.04700
H         -5.09080       11.19580       -3.79320
H         -4.58950        9.85260       -2.76010
H         -6.22830        9.89450       -3.43440
H         -3.65210        3.93410       -6.00630
H         -2.73420        2.56690       -6.65300
H         -5.21010        2.18260       -6.73010
H         -4.37380        0.96780       -5.75900
H         -5.25480        2.27450       -4.96210
H          4.77030       -7.89890        2.66940
H          3.94740       -7.94470        1.10430
H          3.05410       -9.66860        2.65030
H          1.80360       -8.49530        2.22360
H          2.58840       -8.41940        3.80460
H          0.59820        1.59560       -0.43090
H          1.69890        0.19760       -0.28760
H          2.53710        0.62040       -2.59200
H          1.52780        2.06880       -2.68970
H          2.82830        1.98140       -1.50290
H          0.34940       -0.65210        0.95780
H          1.62720       -1.31240        2.01460
H          0.11400       -3.18220        2.64240
H         -0.67180       -1.63410        2.94010
H         -1.11310       -2.58510        1.51660
H          4.51730       -6.95840        4.53080
H          6.00480       -5.89520        9.73610
