101

C          6.98550        2.84370        0.13980
C          6.76990        4.15610       -0.22630
C          7.97700        4.93370       -0.49660
O          9.10130        4.48140       -0.39450
N          7.78090        6.24760       -0.90310
C          8.98070        7.02190       -1.20180
C          9.44810        7.81380        0.01190
C          6.55900        6.84540       -1.00100
S          6.42190        8.42300       -1.46970
N          5.44620        6.10710       -0.70340
C          4.12950        6.72570       -0.81170
C          3.58410        6.62190       -2.22960
C          5.47200        4.76780       -0.35280
O          4.41370        4.17890       -0.16180
C          6.13300        1.78670        0.45570
C          6.59670        0.50630        0.81170
C          8.02830        0.10860        0.96400
C          8.57060        0.53280        2.33160
C          5.54450       -0.36260        1.06000
S          5.49650       -2.05210        1.53220
C          3.76920       -1.97930        1.49290
C          2.66840       -2.80280        1.75750
C          2.59390       -4.11120        2.28470
C          1.30630       -4.65980        2.59350
N          1.38600       -5.86330        3.13870
S          2.94780       -6.27400        3.24730
N          3.58230       -4.93070        2.60660
C          0.15060       -3.92440        2.24840
C         -1.20680       -4.26900        2.31020
S         -2.20100       -5.59090        2.80820
C         -3.59740       -4.74580        2.17700
C         -4.94630       -5.09070        2.08230
C         -5.49640       -6.40710        2.51340
C         -5.57750       -7.36560        1.32210
C         -5.67750       -4.10580        1.42040
S         -4.68010       -2.71090        0.99990
C         -3.28170       -3.49230        1.63100
C         -1.91690       -3.22200        1.70970
N         -1.05780       -2.23320        1.30350
C          0.22670       -2.64150        1.63040
C          1.49850       -2.02600        1.49700
N          1.89600       -0.75340        1.14270
C          3.26390       -0.72440        1.12950
C          4.27260        0.21370        0.89030
S          4.37140        1.87260        0.43770
C          1.15430        0.48470        1.06890
C          1.02640        0.99140       -0.36830
C         -1.51790       -1.36140        0.24150
C         -1.48800       -2.07870       -1.10720
C         -7.05630       -4.12810        1.14740
C         -7.76400       -3.37530        0.25200
C         -9.22000       -3.17910        0.44120
O         -9.95070       -3.78630        1.18960
C         -9.56940       -2.03930       -0.44140
C        -10.77500       -1.37700       -0.55940
C        -10.83910       -0.30890       -1.44040
F        -11.98700        0.36530       -1.58200
C         -9.71970        0.07490       -2.17950
F         -9.80880        1.11940       -3.01100
C         -8.51140       -0.59760       -2.07200
C         -8.44050       -1.66410       -1.19150
C         -7.34660       -2.58420       -0.88120
C         -6.26690       -2.82970       -1.69100
C         -5.42560       -3.95150       -1.53610
N         -4.75570       -4.88220       -1.47910
C         -5.91670       -2.04040       -2.80300
N         -5.56010       -1.40850       -3.69280
H          8.04270        2.59730        0.18140
H          8.75620        7.69190       -2.03330
H          9.74730        6.30410       -1.49850
H         10.35600        8.35470       -0.23780
H          8.68830        8.53010        0.31510
H          9.65720        7.14140        0.84050
H          3.47500        6.19540       -0.11760
H          4.22010        7.77080       -0.51220
H          2.59770        7.07420       -2.27250
H          3.50530        5.57860       -2.52620
H          4.23660        7.14370       -2.92560
H          8.09070       -0.97800        0.87660
H          8.63750        0.55160        0.17490
H          8.53420        1.61390        2.44180
H          7.98100        0.08260        3.12670
H          9.60190        0.20740        2.43790
H         -4.83620       -6.82830        3.27390
H         -6.49060       -6.27800        2.94570
H         -5.95810       -8.33030        1.64630
H         -6.23690       -6.96580        0.55550
H         -4.59270       -7.50690        0.88480
H          0.18600        0.34530        1.55220
H          1.70630        1.23180        1.64930
H          0.32770        1.82230       -0.40660
H          0.68490        0.20770       -1.04030
H          1.99110        1.34380       -0.72210
H         -2.54550       -1.07760        0.48670
H         -0.91920       -0.46110        0.18910
H         -0.47230       -2.38220       -1.35310
H         -1.85510       -1.41510       -1.88520
H         -2.11720       -2.96570       -1.08770
H         -7.65860       -4.77120        1.78220
H        -11.64020       -1.67520        0.01090
H         -7.67180       -0.26680       -2.66150
