
  xtb     01262218233D
 energy: -199.379743782538 gnorm: 0.000518618195 xtb: 6.4.1 (unknown)
126136  0     0  0            999 V2000
    4.9927   -4.0116    5.8043 C   0  0  0  0  0  0  0  0  0  0  0  0
    5.5221   -3.4137    6.9262 C   0  0  0  0  0  0  0  0  0  0  0  0
    5.4171   -2.0050    7.2218 C   0  0  0  0  0  0  0  0  0  0  0  0
    4.8520   -1.1931    6.5006 O   0  0  0  0  0  0  0  0  0  0  0  0
    6.0044   -1.5724    8.3996 N   0  0  0  0  0  0  0  0  0  0  0  0
    5.8829   -0.1498    8.6997 C   0  0  0  0  0  0  0  0  0  0  0  0
    4.6269    0.1378    9.5112 C   0  0  0  0  0  0  0  0  0  0  0  0
    6.6236   -2.3964    9.2988 C   0  0  0  0  0  0  0  0  0  0  0  0
    7.2175   -1.7978   10.7188 S   0  0  0  0  0  0  0  0  0  0  0  0
    6.7452   -3.7198    8.9919 N   0  0  0  0  0  0  0  0  0  0  0  0
    7.4187   -4.6117    9.9298 C   0  0  0  0  0  0  0  0  0  0  0  0
    6.4587   -5.1219   10.9960 C   0  0  0  0  0  0  0  0  0  0  0  0
    6.2210   -4.3083    7.8477 C   0  0  0  0  0  0  0  0  0  0  0  0
    6.3522   -5.5008    7.6530 O   0  0  0  0  0  0  0  0  0  0  0  0
    4.2669   -3.5205    4.7149 C   0  0  0  0  0  0  0  0  0  0  0  0
    3.8290   -4.3616    3.6859 C   0  0  0  0  0  0  0  0  0  0  0  0
    3.1301   -3.6801    2.7113 C   0  0  0  0  0  0  0  0  0  0  0  0
    2.3518   -4.1488    1.2207 S   0  0  0  0  0  0  0  0  0  0  0  0
    1.8933   -2.4967    0.9700 C   0  0  0  0  0  0  0  0  0  0  0  0
    1.1737   -1.7782   -0.0363 C   0  0  0  0  0  0  0  0  0  0  0  0
    0.5704   -2.2108   -1.2142 C   0  0  0  0  0  0  0  0  0  0  0  0
   -0.0674   -1.2647   -1.9856 C   0  0  0  0  0  0  0  0  0  0  0  0
   -0.7791   -1.4443   -3.3142 C   0  0  0  0  0  0  0  0  0  0  0  0
   -1.9446   -2.4146   -3.2705 C   0  0  0  0  0  0  0  0  0  0  0  0
   -2.4782   -2.8423   -2.0615 C   0  0  0  0  0  0  0  0  0  0  0  0
   -3.5730   -3.6866   -2.0310 C   0  0  0  0  0  0  0  0  0  0  0  0
   -4.1751   -4.1209   -3.2035 C   0  0  0  0  0  0  0  0  0  0  0  0
   -5.3924   -4.9983   -3.1681 C   0  0  0  0  0  0  0  0  0  0  0  0
   -6.6625   -4.1456   -3.1401 C   0  0  0  0  0  0  0  0  0  0  0  0
   -3.6539   -3.6746   -4.4105 C   0  0  0  0  0  0  0  0  0  0  0  0
   -2.5580   -2.8339   -4.4457 C   0  0  0  0  0  0  0  0  0  0  0  0
    0.2383   -1.7626   -4.4368 C   0  0  0  0  0  0  0  0  0  0  0  0
    0.7909   -3.1805   -4.3979 C   0  0  0  0  0  0  0  0  0  0  0  0
   -1.3077   -0.0502   -3.5387 C   0  0  0  0  0  0  0  0  0  0  0  0
   -0.8982    0.7995   -2.5254 C   0  0  0  0  0  0  0  0  0  0  0  0
   -0.1243    0.0850   -1.5592 C   0  0  0  0  0  0  0  0  0  0  0  0
    0.4791    0.5191   -0.3813 C   0  0  0  0  0  0  0  0  0  0  0  0
    1.1380   -0.4228    0.3721 C   0  0  0  0  0  0  0  0  0  0  0  0
    1.8725   -0.2281    1.6847 C   0  0  0  0  0  0  0  0  0  0  0  0
    3.0850    0.7053    1.5139 C   0  0  0  0  0  0  0  0  0  0  0  0
    3.9578    0.3226    0.3238 C   0  0  0  0  0  0  0  0  0  0  0  0
    0.9281    0.2105    2.7939 C   0  0  0  0  0  0  0  0  0  0  0  0
    1.3446    0.9956    3.8596 C   0  0  0  0  0  0  0  0  0  0  0  0
    0.4617    1.3387    4.8675 C   0  0  0  0  0  0  0  0  0  0  0  0
   -0.8562    0.9054    4.8484 C   0  0  0  0  0  0  0  0  0  0  0  0
   -1.7949    1.2521    5.9676 C   0  0  0  0  0  0  0  0  0  0  0  0
   -1.6461    0.2550    7.1185 C   0  0  0  0  0  0  0  0  0  0  0  0
   -1.2647    0.1018    3.7928 C   0  0  0  0  0  0  0  0  0  0  0  0
   -0.3868   -0.2427    2.7834 C   0  0  0  0  0  0  0  0  0  0  0  0
    2.3136   -1.6371    1.9698 C   0  0  0  0  0  0  0  0  0  0  0  0
    3.0187   -2.2966    2.9723 C   0  0  0  0  0  0  0  0  0  0  0  0
    3.7888   -1.8481    4.4433 S   0  0  0  0  0  0  0  0  0  0  0  0
   -1.4415    2.4320   -2.7014 S   0  0  0  0  0  0  0  0  0  0  0  0
   -2.2482    1.9828   -4.1784 C   0  0  0  0  0  0  0  0  0  0  0  0
   -3.0098    2.6880   -5.0966 C   0  0  0  0  0  0  0  0  0  0  0  0
   -3.4494    1.8855   -6.1396 C   0  0  0  0  0  0  0  0  0  0  0  0
   -2.8856    0.2142   -5.9469 S   0  0  0  0  0  0  0  0  0  0  0  0
   -2.0781    0.6153   -4.4870 C   0  0  0  0  0  0  0  0  0  0  0  0
   -4.2307    2.1185   -7.2815 C   0  0  0  0  0  0  0  0  0  0  0  0
   -4.8630    3.2152   -7.8198 C   0  0  0  0  0  0  0  0  0  0  0  0
   -5.5818    2.9271   -9.0676 C   0  0  0  0  0  0  0  0  0  0  0  0
   -5.6141    1.8234   -9.5772 O   0  0  0  0  0  0  0  0  0  0  0  0
   -6.2464    3.9873   -9.6643 N   0  0  0  0  0  0  0  0  0  0  0  0
   -6.9403    3.6974  -10.9145 C   0  0  0  0  0  0  0  0  0  0  0  0
   -6.0428    3.9545  -12.1173 C   0  0  0  0  0  0  0  0  0  0  0  0
   -6.2440    5.2624   -9.1800 C   0  0  0  0  0  0  0  0  0  0  0  0
   -7.0097    6.4772   -9.9976 S   0  0  0  0  0  0  0  0  0  0  0  0
   -5.5991    5.5075   -8.0028 N   0  0  0  0  0  0  0  0  0  0  0  0
   -5.6075    6.8638   -7.4637 C   0  0  0  0  0  0  0  0  0  0  0  0
   -4.4754    7.6995   -8.0453 C   0  0  0  0  0  0  0  0  0  0  0  0
   -4.8709    4.5654   -7.2808 C   0  0  0  0  0  0  0  0  0  0  0  0
   -4.2987    4.9162   -6.2651 O   0  0  0  0  0  0  0  0  0  0  0  0
    5.1795   -5.0821    5.7655 H   0  0  0  0  0  0  0  0  0  0  0  0
    6.7734    0.1590    9.2487 H   0  0  0  0  0  0  0  0  0  0  0  0
    5.8379    0.3706    7.7414 H   0  0  0  0  0  0  0  0  0  0  0  0
    4.5562    1.2042    9.7039 H   0  0  0  0  0  0  0  0  0  0  0  0
    4.6626   -0.3863   10.4633 H   0  0  0  0  0  0  0  0  0  0  0  0
    3.7442   -0.1790    8.9606 H   0  0  0  0  0  0  0  0  0  0  0  0
    8.2455   -4.0662   10.3869 H   0  0  0  0  0  0  0  0  0  0  0  0
    7.8038   -5.4466    9.3420 H   0  0  0  0  0  0  0  0  0  0  0  0
    5.6327   -5.6556   10.5320 H   0  0  0  0  0  0  0  0  0  0  0  0
    6.0659   -4.2947   11.5822 H   0  0  0  0  0  0  0  0  0  0  0  0
    6.9845   -5.8003   11.6612 H   0  0  0  0  0  0  0  0  0  0  0  0
    4.0270   -5.4181    3.6783 H   0  0  0  0  0  0  0  0  0  0  0  0
    0.5878   -3.2551   -1.4839 H   0  0  0  0  0  0  0  0  0  0  0  0
   -2.0401   -2.5139   -1.1308 H   0  0  0  0  0  0  0  0  0  0  0  0
   -3.9654   -4.0113   -1.0777 H   0  0  0  0  0  0  0  0  0  0  0  0
   -5.3657   -5.6340   -2.2809 H   0  0  0  0  0  0  0  0  0  0  0  0
   -5.4110   -5.6417   -4.0500 H   0  0  0  0  0  0  0  0  0  0  0  0
   -6.6687   -3.5051   -2.2609 H   0  0  0  0  0  0  0  0  0  0  0  0
   -6.7130   -3.5132   -4.0235 H   0  0  0  0  0  0  0  0  0  0  0  0
   -7.5460   -4.7791   -3.1151 H   0  0  0  0  0  0  0  0  0  0  0  0
   -4.1111   -3.9880   -5.3381 H   0  0  0  0  0  0  0  0  0  0  0  0
   -2.1872   -2.5041   -5.4037 H   0  0  0  0  0  0  0  0  0  0  0  0
   -0.2495   -1.5902   -5.3976 H   0  0  0  0  0  0  0  0  0  0  0  0
    1.0603   -1.0467   -4.3561 H   0  0  0  0  0  0  0  0  0  0  0  0
    1.3693   -3.3703   -5.2992 H   0  0  0  0  0  0  0  0  0  0  0  0
   -0.0161   -3.9076   -4.3472 H   0  0  0  0  0  0  0  0  0  0  0  0
    1.4461   -3.3214   -3.5431 H   0  0  0  0  0  0  0  0  0  0  0  0
    0.4156    1.5522   -0.0758 H   0  0  0  0  0  0  0  0  0  0  0  0
    2.7244    1.7282    1.3920 H   0  0  0  0  0  0  0  0  0  0  0  0
    3.6917    0.6543    2.4190 H   0  0  0  0  0  0  0  0  0  0  0  0
    3.4067    0.4037   -0.6103 H   0  0  0  0  0  0  0  0  0  0  0  0
    4.8198    0.9833    0.2722 H   0  0  0  0  0  0  0  0  0  0  0  0
    4.3172   -0.6994    0.4230 H   0  0  0  0  0  0  0  0  0  0  0  0
    2.3611    1.3479    3.9223 H   0  0  0  0  0  0  0  0  0  0  0  0
    0.8072    1.9562    5.6841 H   0  0  0  0  0  0  0  0  0  0  0  0
   -1.5775    2.2577    6.3337 H   0  0  0  0  0  0  0  0  0  0  0  0
   -2.8250    1.2350    5.6063 H   0  0  0  0  0  0  0  0  0  0  0  0
   -2.3223    0.5085    7.9316 H   0  0  0  0  0  0  0  0  0  0  0  0
   -1.8740   -0.7525    6.7776 H   0  0  0  0  0  0  0  0  0  0  0  0
   -0.6267    0.2646    7.4977 H   0  0  0  0  0  0  0  0  0  0  0  0
   -2.2830   -0.2586    3.7581 H   0  0  0  0  0  0  0  0  0  0  0  0
   -0.7306   -0.8721    1.9750 H   0  0  0  0  0  0  0  0  0  0  0  0
   -3.2465    3.7332   -5.0335 H   0  0  0  0  0  0  0  0  0  0  0  0
   -4.3803    1.2271   -7.8883 H   0  0  0  0  0  0  0  0  0  0  0  0
   -7.8336    4.3215  -10.9616 H   0  0  0  0  0  0  0  0  0  0  0  0
   -7.2236    2.6444  -10.8764 H   0  0  0  0  0  0  0  0  0  0  0  0
   -5.1509    3.3354  -12.0579 H   0  0  0  0  0  0  0  0  0  0  0  0
   -6.5798    3.7090  -13.0286 H   0  0  0  0  0  0  0  0  0  0  0  0
   -5.7504    5.0010  -12.1569 H   0  0  0  0  0  0  0  0  0  0  0  0
   -5.4893    6.7732   -6.3827 H   0  0  0  0  0  0  0  0  0  0  0  0
   -6.5736    7.3147   -7.6941 H   0  0  0  0  0  0  0  0  0  0  0  0
   -4.5862    7.7913   -9.1231 H   0  0  0  0  0  0  0  0  0  0  0  0
   -4.4974    8.6932   -7.6078 H   0  0  0  0  0  0  0  0  0  0  0  0
   -3.5159    7.2391   -7.8221 H   0  0  0  0  0  0  0  0  0  0  0  0
  1  2  2  0  0  0  0
  2  3  1  0  0  0  0
  3  4  2  0  0  0  0
  3  5  1  0  0  0  0
  5  6  1  0  0  0  0
  6  7  1  0  0  0  0
  5  8  1  0  0  0  0
  8  9  2  0  0  0  0
  8 10  1  0  0  0  0
 10 11  1  0  0  0  0
 11 12  1  0  0  0  0
 10 13  1  0  0  0  0
 13 14  2  0  0  0  0
  1 15  1  0  0  0  0
 15 16  2  0  0  0  0
 16 17  1  0  0  0  0
 17 18  1  0  0  0  0
 18 19  1  0  0  0  0
 19 20  1  0  0  0  0
 20 21  2  0  0  0  0
 21 22  1  0  0  0  0
 22 23  1  0  0  0  0
 23 24  1  0  0  0  0
 24 25  2  0  0  0  0
 25 26  1  0  0  0  0
 26 27  2  0  0  0  0
 27 28  1  0  0  0  0
 28 29  1  0  0  0  0
 27 30  1  0  0  0  0
 30 31  2  0  0  0  0
 23 32  1  0  0  0  0
 32 33  1  0  0  0  0
 23 34  1  0  0  0  0
 34 35  2  0  0  0  0
 35 36  1  0  0  0  0
 36 37  1  0  0  0  0
 37 38  2  0  0  0  0
 38 39  1  0  0  0  0
 39 40  1  0  0  0  0
 40 41  1  0  0  0  0
 39 42  1  0  0  0  0
 42 43  2  0  0  0  0
 43 44  1  0  0  0  0
 44 45  2  0  0  0  0
 45 46  1  0  0  0  0
 46 47  1  0  0  0  0
 45 48  1  0  0  0  0
 48 49  2  0  0  0  0
 39 50  1  0  0  0  0
 50 51  1  0  0  0  0
 51 52  1  0  0  0  0
 35 53  1  0  0  0  0
 53 54  1  0  0  0  0
 54 55  1  0  0  0  0
 55 56  2  0  0  0  0
 56 57  1  0  0  0  0
 57 58  1  0  0  0  0
 56 59  1  0  0  0  0
 59 60  2  0  0  0  0
 60 61  1  0  0  0  0
 61 62  2  0  0  0  0
 61 63  1  0  0  0  0
 63 64  1  0  0  0  0
 64 65  1  0  0  0  0
 63 66  1  0  0  0  0
 66 67  2  0  0  0  0
 66 68  1  0  0  0  0
 68 69  1  0  0  0  0
 69 70  1  0  0  0  0
 68 71  1  0  0  0  0
 71 72  2  0  0  0  0
 13  2  1  0  0  0  0
 52 15  1  0  0  0  0
 58 54  2  0  0  0  0
 71 60  1  0  0  0  0
 51 17  2  0  0  0  0
 50 19  2  0  0  0  0
 38 20  1  0  0  0  0
 49 42  1  0  0  0  0
 36 22  2  0  0  0  0
 31 24  1  0  0  0  0
 58 34  1  0  0  0  0
  1 73  1  0  0  0  0
  6 74  1  0  0  0  0
  6 75  1  0  0  0  0
  7 76  1  0  0  0  0
  7 77  1  0  0  0  0
  7 78  1  0  0  0  0
 11 79  1  0  0  0  0
 11 80  1  0  0  0  0
 12 81  1  0  0  0  0
 12 82  1  0  0  0  0
 12 83  1  0  0  0  0
 16 84  1  0  0  0  0
 21 85  1  0  0  0  0
 25 86  1  0  0  0  0
 26 87  1  0  0  0  0
 28 88  1  0  0  0  0
 28 89  1  0  0  0  0
 29 90  1  0  0  0  0
 29 91  1  0  0  0  0
 29 92  1  0  0  0  0
 30 93  1  0  0  0  0
 31 94  1  0  0  0  0
 32 95  1  0  0  0  0
 32 96  1  0  0  0  0
 33 97  1  0  0  0  0
 33 98  1  0  0  0  0
 33 99  1  0  0  0  0
 37100  1  0  0  0  0
 40101  1  0  0  0  0
 40102  1  0  0  0  0
 41103  1  0  0  0  0
 41104  1  0  0  0  0
 41105  1  0  0  0  0
 43106  1  0  0  0  0
 44107  1  0  0  0  0
 46108  1  0  0  0  0
 46109  1  0  0  0  0
 47110  1  0  0  0  0
 47111  1  0  0  0  0
 47112  1  0  0  0  0
 48113  1  0  0  0  0
 49114  1  0  0  0  0
 55115  1  0  0  0  0
 59116  1  0  0  0  0
 64117  1  0  0  0  0
 64118  1  0  0  0  0
 65119  1  0  0  0  0
 65120  1  0  0  0  0
 65121  1  0  0  0  0
 69122  1  0  0  0  0
 69123  1  0  0  0  0
 70124  1  0  0  0  0
 70125  1  0  0  0  0
 70126  1  0  0  0  0
M  END
