126

C          4.99270       -4.01160        5.80430
C          5.52210       -3.41370        6.92620
C          5.41710       -2.00500        7.22180
O          4.85200       -1.19310        6.50060
N          6.00440       -1.57240        8.39960
C          5.88290       -0.14980        8.69970
C          4.62690        0.13780        9.51120
C          6.62360       -2.39640        9.29880
S          7.21750       -1.79780       10.71880
N          6.74520       -3.71980        8.99190
C          7.41870       -4.61170        9.92980
C          6.45870       -5.12190       10.99600
C          6.22100       -4.30830        7.84770
O          6.35220       -5.50080        7.65300
C          4.26690       -3.52050        4.71490
C          3.82900       -4.36160        3.68590
C          3.13010       -3.68010        2.71130
S          2.35180       -4.14880        1.22070
C          1.89330       -2.49670        0.97000
C          1.17370       -1.77820       -0.03630
C          0.57040       -2.21080       -1.21420
C         -0.06740       -1.26470       -1.98560
C         -0.77910       -1.44430       -3.31420
C         -1.94460       -2.41460       -3.27050
C         -2.47820       -2.84230       -2.06150
C         -3.57300       -3.68660       -2.03100
C         -4.17510       -4.12090       -3.20350
C         -5.39240       -4.99830       -3.16810
C         -6.66250       -4.14560       -3.14010
C         -3.65390       -3.67460       -4.41050
C         -2.55800       -2.83390       -4.44570
C          0.23830       -1.76260       -4.43680
C          0.79090       -3.18050       -4.39790
C         -1.30770       -0.05020       -3.53870
C         -0.89820        0.79950       -2.52540
C         -0.12430        0.08500       -1.55920
C          0.47910        0.51910       -0.38130
C          1.13800       -0.42280        0.37210
C          1.87250       -0.22810        1.68470
C          3.08500        0.70530        1.51390
C          3.95780        0.32260        0.32380
C          0.92810        0.21050        2.79390
C          1.34460        0.99560        3.85960
C          0.46170        1.33870        4.86750
C         -0.85620        0.90540        4.84840
C         -1.79490        1.25210        5.96760
C         -1.64610        0.25500        7.11850
C         -1.26470        0.10180        3.79280
C         -0.38680       -0.24270        2.78340
C          2.31360       -1.63710        1.96980
C          3.01870       -2.29660        2.97230
S          3.78880       -1.84810        4.44330
S         -1.44150        2.43200       -2.70140
C         -2.24820        1.98280       -4.17840
C         -3.00980        2.68800       -5.09660
C         -3.44940        1.88550       -6.13960
S         -2.88560        0.21420       -5.94690
C         -2.07810        0.61530       -4.48700
C         -4.23070        2.11850       -7.28150
C         -4.86300        3.21520       -7.81980
C         -5.58180        2.92710       -9.06760
O         -5.61410        1.82340       -9.57720
N         -6.24640        3.98730       -9.66430
C         -6.94030        3.69740      -10.91450
C         -6.04280        3.95450      -12.11730
C         -6.24400        5.26240       -9.18000
S         -7.00970        6.47720       -9.99760
N         -5.59910        5.50750       -8.00280
C         -5.60750        6.86380       -7.46370
C         -4.47540        7.69950       -8.04530
C         -4.87090        4.56540       -7.28080
O         -4.29870        4.91620       -6.26510
H          5.17950       -5.08210        5.76550
H          6.77340        0.15900        9.24870
H          5.83790        0.37060        7.74140
H          4.55620        1.20420        9.70390
H          4.66260       -0.38630       10.46330
H          3.74420       -0.17900        8.96060
H          8.24550       -4.06620       10.38690
H          7.80380       -5.44660        9.34200
H          5.63270       -5.65560       10.53200
H          6.06590       -4.29470       11.58220
H          6.98450       -5.80030       11.66120
H          4.02700       -5.41810        3.67830
H          0.58780       -3.25510       -1.48390
H         -2.04010       -2.51390       -1.13080
H         -3.96540       -4.01130       -1.07770
H         -5.36570       -5.63400       -2.28090
H         -5.41100       -5.64170       -4.05000
H         -6.66870       -3.50510       -2.26090
H         -6.71300       -3.51320       -4.02350
H         -7.54600       -4.77910       -3.11510
H         -4.11110       -3.98800       -5.33810
H         -2.18720       -2.50410       -5.40370
H         -0.24950       -1.59020       -5.39760
H          1.06030       -1.04670       -4.35610
H          1.36930       -3.37030       -5.29920
H         -0.01610       -3.90760       -4.34720
H          1.44610       -3.32140       -3.54310
H          0.41560        1.55220       -0.07580
H          2.72440        1.72820        1.39200
H          3.69170        0.65430        2.41900
H          3.40670        0.40370       -0.61030
H          4.81980        0.98330        0.27220
H          4.31720       -0.69940        0.42300
H          2.36110        1.34790        3.92230
H          0.80720        1.95620        5.68410
H         -1.57750        2.25770        6.33370
H         -2.82500        1.23500        5.60630
H         -2.32230        0.50850        7.93160
H         -1.87400       -0.75250        6.77760
H         -0.62670        0.26460        7.49770
H         -2.28300       -0.25860        3.75810
H         -0.73060       -0.87210        1.97500
H         -3.24650        3.73320       -5.03350
H         -4.38030        1.22710       -7.88830
H         -7.83360        4.32150      -10.96160
H         -7.22360        2.64440      -10.87640
H         -5.15090        3.33540      -12.05790
H         -6.57980        3.70900      -13.02860
H         -5.75040        5.00100      -12.15690
H         -5.48930        6.77320       -6.38270
H         -6.57360        7.31470       -7.69410
H         -4.58620        7.79130       -9.12310
H         -4.49740        8.69320       -7.60780
H         -3.51590        7.23910       -7.82210
