
  xtb     02022207523D
 energy: -196.377086882610 gnorm: 0.000169179842 xtb: 6.4.1 (unknown)
117130  0     0  0            999 V2000
    3.1667   -4.3907   -8.2371 C   0  0  0  0  0  0  0  0  0  0  0  0
    2.5120   -3.9617   -9.3742 C   0  0  0  0  0  0  0  0  0  0  0  0
    1.6053   -2.8445   -9.4228 C   0  0  0  0  0  0  0  0  0  0  0  0
    1.3256   -2.1431   -8.4569 O   0  0  0  0  0  0  0  0  0  0  0  0
    1.0267   -2.5650  -10.6505 N   0  0  0  0  0  0  0  0  0  0  0  0
    0.0996   -1.4396  -10.6903 C   0  0  0  0  0  0  0  0  0  0  0  0
   -1.3274   -1.8880  -10.4047 C   0  0  0  0  0  0  0  0  0  0  0  0
    1.2265   -3.3082  -11.7811 C   0  0  0  0  0  0  0  0  0  0  0  0
    0.4175   -2.9526  -13.1766 S   0  0  0  0  0  0  0  0  0  0  0  0
    2.1136   -4.3426  -11.7299 N   0  0  0  0  0  0  0  0  0  0  0  0
    2.3544   -5.1385  -12.9283 C   0  0  0  0  0  0  0  0  0  0  0  0
    1.3318   -6.2589  -13.0630 C   0  0  0  0  0  0  0  0  0  0  0  0
    2.7865   -4.7378  -10.5800 C   0  0  0  0  0  0  0  0  0  0  0  0
    3.5526   -5.6824  -10.6094 O   0  0  0  0  0  0  0  0  0  0  0  0
    3.1684   -3.9569   -6.9133 C   0  0  0  0  0  0  0  0  0  0  0  0
    3.9208   -4.5833   -5.9017 C   0  0  0  0  0  0  0  0  0  0  0  0
    4.8601   -5.7278   -6.0990 C   0  0  0  0  0  0  0  0  0  0  0  0
    6.2097   -5.2403   -6.6333 C   0  0  0  0  0  0  0  0  0  0  0  0
    3.7196   -3.9789   -4.6701 C   0  0  0  0  0  0  0  0  0  0  0  0
    4.3323   -4.3377   -3.0648 S   0  0  0  0  0  0  0  0  0  0  0  0
    3.3703   -3.0427   -2.4463 C   0  0  0  0  0  0  0  0  0  0  0  0
    3.0353   -2.4720   -1.2110 C   0  0  0  0  0  0  0  0  0  0  0  0
    3.4085   -2.8870    0.0937 C   0  0  0  0  0  0  0  0  0  0  0  0
    2.7922   -2.2447    1.1947 C   0  0  0  0  0  0  0  0  0  0  0  0
    3.0430   -2.6309    2.4506 N   0  0  0  0  0  0  0  0  0  0  0  0
    3.8972   -3.6195    2.6052 C   0  0  0  0  0  0  0  0  0  0  0  0
    4.5224   -4.2406    1.5177 C   0  0  0  0  0  0  0  0  0  0  0  0
    4.2803   -3.8853    0.2744 N   0  0  0  0  0  0  0  0  0  0  0  0
    1.9208   -1.1575    0.9273 C   0  0  0  0  0  0  0  0  0  0  0  0
    1.2368   -0.3305    1.8309 C   0  0  0  0  0  0  0  0  0  0  0  0
    0.9569   -0.2017    3.5277 S   0  0  0  0  0  0  0  0  0  0  0  0
   -0.0532    1.2024    3.2427 C   0  0  0  0  0  0  0  0  0  0  0  0
   -0.7835    2.0483    4.0923 C   0  0  0  0  0  0  0  0  0  0  0  0
   -0.9856    1.8260    5.5513 C   0  0  0  0  0  0  0  0  0  0  0  0
   -1.0558    0.3567    5.9526 C   0  0  0  0  0  0  0  0  0  0  0  0
   -1.4036    3.0666    3.3691 C   0  0  0  0  0  0  0  0  0  0  0  0
   -1.1320    2.9155    1.6307 S   0  0  0  0  0  0  0  0  0  0  0  0
   -0.1341    1.5370    1.8822 C   0  0  0  0  0  0  0  0  0  0  0  0
    0.5911    0.6533    1.0775 C   0  0  0  0  0  0  0  0  0  0  0  0
    0.8234    0.4505   -0.2574 N   0  0  0  0  0  0  0  0  0  0  0  0
    1.6274   -0.6706   -0.3785 C   0  0  0  0  0  0  0  0  0  0  0  0
    2.1208   -1.4113   -1.4818 C   0  0  0  0  0  0  0  0  0  0  0  0
    1.9031   -1.3617   -2.8450 N   0  0  0  0  0  0  0  0  0  0  0  0
    2.6410   -2.3592   -3.4252 C   0  0  0  0  0  0  0  0  0  0  0  0
    2.8255   -2.8928   -4.7045 C   0  0  0  0  0  0  0  0  0  0  0  0
    2.2221   -2.6028   -6.2921 S   0  0  0  0  0  0  0  0  0  0  0  0
    0.8782   -0.6955   -3.6157 C   0  0  0  0  0  0  0  0  0  0  0  0
   -0.5145   -1.2008   -3.2465 C   0  0  0  0  0  0  0  0  0  0  0  0
    0.5516    1.5124   -1.2003 C   0  0  0  0  0  0  0  0  0  0  0  0
    1.8411    2.1724   -1.6827 C   0  0  0  0  0  0  0  0  0  0  0  0
   -2.2935    4.0905    3.7491 C   0  0  0  0  0  0  0  0  0  0  0  0
   -2.3788    4.7574    4.9415 C   0  0  0  0  0  0  0  0  0  0  0  0
   -1.2996    4.8874    5.9422 C   0  0  0  0  0  0  0  0  0  0  0  0
   -0.1667    4.4527    5.8706 O   0  0  0  0  0  0  0  0  0  0  0  0
   -1.8319    5.7717    6.9970 C   0  0  0  0  0  0  0  0  0  0  0  0
   -1.1948    6.1383    8.1804 C   0  0  0  0  0  0  0  0  0  0  0  0
   -1.9417    6.9648    8.9854 C   0  0  0  0  0  0  0  0  0  0  0  0
   -3.2206    7.4132    8.6295 C   0  0  0  0  0  0  0  0  0  0  0  0
   -3.8548    7.0713    7.4594 C   0  0  0  0  0  0  0  0  0  0  0  0
   -3.1188    6.2152    6.6334 C   0  0  0  0  0  0  0  0  0  0  0  0
   -3.4739    5.6166    5.3494 C   0  0  0  0  0  0  0  0  0  0  0  0
   -4.6660    5.7883    4.6932 C   0  0  0  0  0  0  0  0  0  0  0  0
   -5.7033    6.6397    5.1275 C   0  0  0  0  0  0  0  0  0  0  0  0
   -6.5871    7.3157    5.4114 N   0  0  0  0  0  0  0  0  0  0  0  0
   -5.0462    5.1407    3.4991 C   0  0  0  0  0  0  0  0  0  0  0  0
   -5.4466    4.6432    2.5438 N   0  0  0  0  0  0  0  0  0  0  0  0
   -3.3890    8.1984    9.9063 C   0  0  0  0  0  0  0  0  0  0  0  0
   -4.2931    7.5657   10.9854 C   0  0  0  0  0  0  0  0  0  0  0  0
   -3.8930    8.2784   12.2569 C   0  0  0  0  0  0  0  0  0  0  0  0
   -2.6843    7.8490   12.5967 C   0  0  0  0  0  0  0  0  0  0  0  0
   -2.2472    6.8390   11.5603 C   0  0  0  0  0  0  0  0  0  0  0  0
   -3.6046    6.2138   11.2135 C   0  0  0  0  0  0  0  0  0  0  0  0
   -1.9653    7.6939   10.3060 C   0  0  0  0  0  0  0  0  0  0  0  0
    3.8014   -5.2509   -8.4298 H   0  0  0  0  0  0  0  0  0  0  0  0
    0.4311   -0.7327   -9.9276 H   0  0  0  0  0  0  0  0  0  0  0  0
    0.1662   -0.9796  -11.6772 H   0  0  0  0  0  0  0  0  0  0  0  0
   -1.9885   -1.0266  -10.4213 H   0  0  0  0  0  0  0  0  0  0  0  0
   -1.3844   -2.3558   -9.4245 H   0  0  0  0  0  0  0  0  0  0  0  0
   -1.6600   -2.5966  -11.1595 H   0  0  0  0  0  0  0  0  0  0  0  0
    2.3133   -4.4752  -13.7935 H   0  0  0  0  0  0  0  0  0  0  0  0
    3.3574   -5.5567  -12.8271 H   0  0  0  0  0  0  0  0  0  0  0  0
    0.3288   -5.8493  -13.1563 H   0  0  0  0  0  0  0  0  0  0  0  0
    1.5519   -6.8453  -13.9501 H   0  0  0  0  0  0  0  0  0  0  0  0
    1.3729   -6.9101  -12.1930 H   0  0  0  0  0  0  0  0  0  0  0  0
    5.0124   -6.2132   -5.1329 H   0  0  0  0  0  0  0  0  0  0  0  0
    4.4364   -6.4600   -6.7878 H   0  0  0  0  0  0  0  0  0  0  0  0
    6.8901   -6.0804   -6.7427 H   0  0  0  0  0  0  0  0  0  0  0  0
    6.0903   -4.7616   -7.6023 H   0  0  0  0  0  0  0  0  0  0  0  0
    6.6506   -4.5237   -5.9444 H   0  0  0  0  0  0  0  0  0  0  0  0
    4.0945   -3.9269    3.6228 H   0  0  0  0  0  0  0  0  0  0  0  0
    5.2317   -5.0448    1.6562 H   0  0  0  0  0  0  0  0  0  0  0  0
   -1.9076    2.3317    5.8522 H   0  0  0  0  0  0  0  0  0  0  0  0
   -0.1669    2.3168    6.0890 H   0  0  0  0  0  0  0  0  0  0  0  0
   -1.7783   -0.1765    5.3386 H   0  0  0  0  0  0  0  0  0  0  0  0
   -1.3653    0.2816    6.9921 H   0  0  0  0  0  0  0  0  0  0  0  0
   -0.0889   -0.1276    5.8518 H   0  0  0  0  0  0  0  0  0  0  0  0
    1.0775   -0.9275   -4.6647 H   0  0  0  0  0  0  0  0  0  0  0  0
    0.9590    0.3854   -3.5030 H   0  0  0  0  0  0  0  0  0  0  0  0
   -0.5945   -2.2610   -3.4741 H   0  0  0  0  0  0  0  0  0  0  0  0
   -0.7166   -1.0651   -2.1862 H   0  0  0  0  0  0  0  0  0  0  0  0
   -1.2666   -0.6676   -3.8212 H   0  0  0  0  0  0  0  0  0  0  0  0
   -0.0480    1.1447   -2.0328 H   0  0  0  0  0  0  0  0  0  0  0  0
   -0.0545    2.2509   -0.6699 H   0  0  0  0  0  0  0  0  0  0  0  0
    1.6112    2.9551   -2.4003 H   0  0  0  0  0  0  0  0  0  0  0  0
    2.3675    2.6179   -0.8417 H   0  0  0  0  0  0  0  0  0  0  0  0
    2.5035    1.4475   -2.1508 H   0  0  0  0  0  0  0  0  0  0  0  0
   -2.9830    4.3849    2.9659 H   0  0  0  0  0  0  0  0  0  0  0  0
   -0.2049    5.7769    8.4113 H   0  0  0  0  0  0  0  0  0  0  0  0
   -4.8356    7.4308    7.1977 H   0  0  0  0  0  0  0  0  0  0  0  0
   -3.5493    9.2684    9.7895 H   0  0  0  0  0  0  0  0  0  0  0  0
   -5.3520    7.5547   10.7423 H   0  0  0  0  0  0  0  0  0  0  0  0
   -4.4871    9.0368   12.7319 H   0  0  0  0  0  0  0  0  0  0  0  0
   -2.0670    8.1773   13.4122 H   0  0  0  0  0  0  0  0  0  0  0  0
   -1.4426    6.1652   11.8429 H   0  0  0  0  0  0  0  0  0  0  0  0
   -4.0338    5.6700   12.0534 H   0  0  0  0  0  0  0  0  0  0  0  0
   -3.5864    5.5710   10.3352 H   0  0  0  0  0  0  0  0  0  0  0  0
   -1.1760    8.4273   10.4599 H   0  0  0  0  0  0  0  0  0  0  0  0
  1  2  2  0  0  0  0
  2  3  1  0  0  0  0
  3  4  2  0  0  0  0
  3  5  1  0  0  0  0
  5  6  1  0  0  0  0
  6  7  1  0  0  0  0
  5  8  1  0  0  0  0
  8  9  2  0  0  0  0
  8 10  1  0  0  0  0
 10 11  1  0  0  0  0
 11 12  1  0  0  0  0
 10 13  1  0  0  0  0
 13 14  2  0  0  0  0
  1 15  1  0  0  0  0
 15 16  2  0  0  0  0
 16 17  1  0  0  0  0
 17 18  1  0  0  0  0
 16 19  1  0  0  0  0
 19 20  1  0  0  0  0
 20 21  1  0  0  0  0
 21 22  1  0  0  0  0
 22 23  2  0  0  0  0
 23 24  1  0  0  0  0
 24 25  1  0  0  0  0
 25 26  2  0  0  0  0
 26 27  1  0  0  0  0
 27 28  2  0  0  0  0
 24 29  2  0  0  0  0
 29 30  1  0  0  0  0
 30 31  1  0  0  0  0
 31 32  1  0  0  0  0
 32 33  1  0  0  0  0
 33 34  1  0  0  0  0
 34 35  1  0  0  0  0
 33 36  2  0  0  0  0
 36 37  1  0  0  0  0
 37 38  1  0  0  0  0
 38 39  1  0  0  0  0
 39 40  1  0  0  0  0
 40 41  1  0  0  0  0
 41 42  2  0  0  0  0
 42 43  1  0  0  0  0
 43 44  1  0  0  0  0
 44 45  1  0  0  0  0
 45 46  1  0  0  0  0
 43 47  1  0  0  0  0
 47 48  1  0  0  0  0
 40 49  1  0  0  0  0
 49 50  1  0  0  0  0
 36 51  1  0  0  0  0
 51 52  2  0  0  0  0
 52 53  1  0  0  0  0
 53 54  2  0  0  0  0
 53 55  1  0  0  0  0
 55 56  2  0  0  0  0
 56 57  1  0  0  0  0
 57 58  2  0  0  0  0
 58 59  1  0  0  0  0
 59 60  2  0  0  0  0
 60 61  1  0  0  0  0
 61 62  2  0  0  0  0
 62 63  1  0  0  0  0
 63 64  3  0  0  0  0
 62 65  1  0  0  0  0
 65 66  3  0  0  0  0
 58 67  1  0  0  0  0
 67 68  1  0  0  0  0
 68 69  1  0  0  0  0
 69 70  2  0  0  0  0
 70 71  1  0  0  0  0
 71 72  1  0  0  0  0
 71 73  1  0  0  0  0
 13  2  1  0  0  0  0
 46 15  1  0  0  0  0
 61 52  1  0  0  0  0
 73 67  1  0  0  0  0
 45 19  2  0  0  0  0
 60 55  1  0  0  0  0
 72 68  1  0  0  0  0
 44 21  2  0  0  0  0
 73 57  1  0  0  0  0
 42 22  1  0  0  0  0
 28 23  1  0  0  0  0
 41 29  1  0  0  0  0
 39 30  2  0  0  0  0
 38 32  2  0  0  0  0
  1 74  1  0  0  0  0
  6 75  1  0  0  0  0
  6 76  1  0  0  0  0
  7 77  1  0  0  0  0
  7 78  1  0  0  0  0
  7 79  1  0  0  0  0
 11 80  1  0  0  0  0
 11 81  1  0  0  0  0
 12 82  1  0  0  0  0
 12 83  1  0  0  0  0
 12 84  1  0  0  0  0
 17 85  1  0  0  0  0
 17 86  1  0  0  0  0
 18 87  1  0  0  0  0
 18 88  1  0  0  0  0
 18 89  1  0  0  0  0
 26 90  1  0  0  0  0
 27 91  1  0  0  0  0
 34 92  1  0  0  0  0
 34 93  1  0  0  0  0
 35 94  1  0  0  0  0
 35 95  1  0  0  0  0
 35 96  1  0  0  0  0
 47 97  1  0  0  0  0
 47 98  1  0  0  0  0
 48 99  1  0  0  0  0
 48100  1  0  0  0  0
 48101  1  0  0  0  0
 49102  1  0  0  0  0
 49103  1  0  0  0  0
 50104  1  0  0  0  0
 50105  1  0  0  0  0
 50106  1  0  0  0  0
 51107  1  0  0  0  0
 56108  1  0  0  0  0
 59109  1  0  0  0  0
 67110  1  0  0  0  0
 68111  1  0  0  0  0
 69112  1  0  0  0  0
 70113  1  0  0  0  0
 71114  1  0  0  0  0
 72115  1  0  0  0  0
 72116  1  0  0  0  0
 73117  1  0  0  0  0
M  END
