104

C          2.38710        6.00200        3.53260
C          1.33330        6.61950        4.17420
C         -0.04280        6.20770        4.06880
O         -0.42510        5.25790        3.39450
N         -0.96910        6.94140        4.79180
C         -2.36310        6.52780        4.67550
C         -3.07490        7.29400        3.56850
C         -0.65770        8.03010        5.55960
S         -1.83840        8.85440        6.36890
N          0.64730        8.41760        5.64040
C          1.00330        9.56090        6.47340
C          1.21310        9.14410        7.92290
C          1.69570        7.76740        5.00160
O          2.83850        8.16160        5.13610
C          2.47670        4.90870        2.67290
C          3.69170        4.47040        2.11470
C          5.02400        5.11730        2.30760
C          5.19190        6.30910        1.36110
C          3.50630        3.36490        1.29770
S          4.62470        2.39490        0.35530
C          3.29810        1.39900       -0.12580
C          3.06480        0.24580       -0.88540
C          4.00640       -0.57340       -1.56050
C          3.53160       -1.75060       -2.18350
N          4.36660       -2.59350       -2.80120
C          5.64030       -2.26410       -2.80540
C          6.10870       -1.09180       -2.20030
N          5.30530       -0.25400       -1.58110
C          2.13500       -2.00020       -2.15280
C          1.42430       -3.05510       -2.73780
S          1.73610       -4.48580       -3.65330
C          0.00850       -4.78760       -3.70290
C         -0.74510       -5.80280       -4.27140
C         -0.13620       -6.95780       -4.99640
C          0.04120       -8.15610       -4.05930
C         -2.12050       -5.61920       -4.02960
S         -2.44180       -4.15010       -3.10390
C         -0.75500       -3.80870       -3.03740
C          0.06710       -2.82330       -2.48600
N         -0.08230       -1.67730       -1.75080
C          1.17530       -1.14770       -1.52770
C          1.66430       -0.02160       -0.81610
N          1.07900        0.95100       -0.02680
C          2.06540        1.79850        0.40100
C          2.17180        2.92640        1.22170
S          1.11460        3.91000        2.16220
C         -0.22490        1.02580        0.59150
C         -0.39890       -0.05980        1.65160
C         -1.40120       -1.10230       -1.61110
C         -1.60320        0.06380       -2.57630
C         -3.09540       -6.50750       -4.48310
C         -4.46080       -6.51750       -4.31130
C         -5.24460       -5.56090       -3.53690
O         -4.85890       -4.53500       -3.00760
C         -6.62190       -6.10330       -3.49640
C         -7.71810       -5.62740       -2.80020
Cl        -7.66270       -4.14710       -1.95400
C         -8.88700       -6.40180       -2.79530
Cl       -10.27990       -5.83890       -1.97870
C         -8.89990       -7.64990       -3.41490
Cl       -10.30250       -8.62310       -3.30590
C         -7.77960       -8.13100       -4.11330
Cl        -7.81360       -9.74710       -4.68660
C         -6.66070       -7.31470       -4.21700
C         -5.37100       -7.49100       -4.88310
C         -5.12470       -8.27060       -5.98500
C         -3.85990       -8.42280       -6.59340
N         -2.86370       -8.61780       -7.13160
C         -6.10350       -8.89850       -6.78560
N         -6.82020       -9.34760       -7.56130
H          3.33750        6.48070        3.75170
H         -2.35620        5.46000        4.44990
H         -2.85120        6.70160        5.63560
H         -4.10250        6.95110        3.49320
H         -2.57790        7.12630        2.61580
H         -3.07880        8.35920        3.78690
H          0.20480       10.30070        6.39860
H          1.92850        9.96880        6.06280
H          2.00600        8.40280        7.98880
H          0.29770        8.72620        8.33510
H          1.49510       10.01180        8.51180
H          5.79630        4.37690        2.08980
H          5.14730        5.44850        3.33960
H          5.08620        5.98660        0.32800
H          6.17790        6.74750        1.48850
H          4.44360        7.07100        1.56540
H          6.31030       -2.94960       -3.30530
H          7.15680       -0.82670       -2.21580
H         -0.74750       -7.24860       -5.85220
H          0.84360       -6.64900       -5.36540
H          0.49570       -8.98180       -4.59940
H          0.68460       -7.88960       -3.22410
H         -0.91780       -8.48540       -3.66570
H         -0.28630        2.00600        1.07050
H         -1.00820        0.98590       -0.16370
H         -1.39740       -0.00740        2.07650
H          0.32370        0.08640        2.45090
H         -0.24320       -1.05140        1.23140
H         -1.58440       -0.81020       -0.57860
H         -2.11380       -1.89450       -1.85350
H         -2.59000        0.49560       -2.43440
H         -1.52550       -0.28750       -3.60240
H         -0.85240        0.83680       -2.42510
H         -2.68870       -7.34110       -5.03880
