
  xtb     02112201143D
 energy: -194.540294920437 gnorm: 0.000252122993 xtb: 6.4.1 (unknown)
104114  0     0  0            999 V2000
    2.3871    6.0020    3.5326 C   0  0  0  0  0  0  0  0  0  0  0  0
    1.3333    6.6195    4.1742 C   0  0  0  0  0  0  0  0  0  0  0  0
   -0.0428    6.2077    4.0688 C   0  0  0  0  0  0  0  0  0  0  0  0
   -0.4251    5.2579    3.3945 O   0  0  0  0  0  0  0  0  0  0  0  0
   -0.9691    6.9414    4.7918 N   0  0  0  0  0  0  0  0  0  0  0  0
   -2.3631    6.5278    4.6755 C   0  0  0  0  0  0  0  0  0  0  0  0
   -3.0749    7.2940    3.5685 C   0  0  0  0  0  0  0  0  0  0  0  0
   -0.6577    8.0301    5.5596 C   0  0  0  0  0  0  0  0  0  0  0  0
   -1.8384    8.8544    6.3689 S   0  0  0  0  0  0  0  0  0  0  0  0
    0.6473    8.4176    5.6404 N   0  0  0  0  0  0  0  0  0  0  0  0
    1.0033    9.5609    6.4734 C   0  0  0  0  0  0  0  0  0  0  0  0
    1.2131    9.1441    7.9229 C   0  0  0  0  0  0  0  0  0  0  0  0
    1.6957    7.7674    5.0016 C   0  0  0  0  0  0  0  0  0  0  0  0
    2.8385    8.1616    5.1361 O   0  0  0  0  0  0  0  0  0  0  0  0
    2.4767    4.9087    2.6729 C   0  0  0  0  0  0  0  0  0  0  0  0
    3.6917    4.4704    2.1147 C   0  0  0  0  0  0  0  0  0  0  0  0
    5.0240    5.1173    2.3076 C   0  0  0  0  0  0  0  0  0  0  0  0
    5.1919    6.3091    1.3611 C   0  0  0  0  0  0  0  0  0  0  0  0
    3.5063    3.3649    1.2977 C   0  0  0  0  0  0  0  0  0  0  0  0
    4.6247    2.3949    0.3553 S   0  0  0  0  0  0  0  0  0  0  0  0
    3.2981    1.3990   -0.1258 C   0  0  0  0  0  0  0  0  0  0  0  0
    3.0648    0.2458   -0.8854 C   0  0  0  0  0  0  0  0  0  0  0  0
    4.0064   -0.5734   -1.5605 C   0  0  0  0  0  0  0  0  0  0  0  0
    3.5316   -1.7506   -2.1835 C   0  0  0  0  0  0  0  0  0  0  0  0
    4.3666   -2.5935   -2.8012 N   0  0  0  0  0  0  0  0  0  0  0  0
    5.6403   -2.2641   -2.8054 C   0  0  0  0  0  0  0  0  0  0  0  0
    6.1087   -1.0918   -2.2003 C   0  0  0  0  0  0  0  0  0  0  0  0
    5.3053   -0.2540   -1.5811 N   0  0  0  0  0  0  0  0  0  0  0  0
    2.1350   -2.0002   -2.1528 C   0  0  0  0  0  0  0  0  0  0  0  0
    1.4243   -3.0551   -2.7378 C   0  0  0  0  0  0  0  0  0  0  0  0
    1.7361   -4.4858   -3.6533 S   0  0  0  0  0  0  0  0  0  0  0  0
    0.0085   -4.7876   -3.7029 C   0  0  0  0  0  0  0  0  0  0  0  0
   -0.7451   -5.8028   -4.2714 C   0  0  0  0  0  0  0  0  0  0  0  0
   -0.1362   -6.9578   -4.9964 C   0  0  0  0  0  0  0  0  0  0  0  0
    0.0412   -8.1561   -4.0593 C   0  0  0  0  0  0  0  0  0  0  0  0
   -2.1205   -5.6192   -4.0296 C   0  0  0  0  0  0  0  0  0  0  0  0
   -2.4418   -4.1501   -3.1039 S   0  0  0  0  0  0  0  0  0  0  0  0
   -0.7550   -3.8087   -3.0374 C   0  0  0  0  0  0  0  0  0  0  0  0
    0.0671   -2.8233   -2.4860 C   0  0  0  0  0  0  0  0  0  0  0  0
   -0.0823   -1.6773   -1.7508 N   0  0  0  0  0  0  0  0  0  0  0  0
    1.1753   -1.1477   -1.5277 C   0  0  0  0  0  0  0  0  0  0  0  0
    1.6643   -0.0216   -0.8161 C   0  0  0  0  0  0  0  0  0  0  0  0
    1.0790    0.9510   -0.0268 N   0  0  0  0  0  0  0  0  0  0  0  0
    2.0654    1.7985    0.4010 C   0  0  0  0  0  0  0  0  0  0  0  0
    2.1718    2.9264    1.2217 C   0  0  0  0  0  0  0  0  0  0  0  0
    1.1146    3.9100    2.1622 S   0  0  0  0  0  0  0  0  0  0  0  0
   -0.2249    1.0258    0.5915 C   0  0  0  0  0  0  0  0  0  0  0  0
   -0.3989   -0.0598    1.6516 C   0  0  0  0  0  0  0  0  0  0  0  0
   -1.4012   -1.1023   -1.6111 C   0  0  0  0  0  0  0  0  0  0  0  0
   -1.6032    0.0638   -2.5763 C   0  0  0  0  0  0  0  0  0  0  0  0
   -3.0954   -6.5075   -4.4831 C   0  0  0  0  0  0  0  0  0  0  0  0
   -4.4608   -6.5175   -4.3113 C   0  0  0  0  0  0  0  0  0  0  0  0
   -5.2446   -5.5609   -3.5369 C   0  0  0  0  0  0  0  0  0  0  0  0
   -4.8589   -4.5350   -3.0076 O   0  0  0  0  0  0  0  0  0  0  0  0
   -6.6219   -6.1033   -3.4964 C   0  0  0  0  0  0  0  0  0  0  0  0
   -7.7181   -5.6274   -2.8002 C   0  0  0  0  0  0  0  0  0  0  0  0
   -7.6627   -4.1471   -1.9540 Cl  0  0  0  0  0  0  0  0  0  0  0  0
   -8.8870   -6.4018   -2.7953 C   0  0  0  0  0  0  0  0  0  0  0  0
  -10.2799   -5.8389   -1.9787 Cl  0  0  0  0  0  0  0  0  0  0  0  0
   -8.8999   -7.6499   -3.4149 C   0  0  0  0  0  0  0  0  0  0  0  0
  -10.3025   -8.6231   -3.3059 Cl  0  0  0  0  0  0  0  0  0  0  0  0
   -7.7796   -8.1310   -4.1133 C   0  0  0  0  0  0  0  0  0  0  0  0
   -7.8136   -9.7471   -4.6866 Cl  0  0  0  0  0  0  0  0  0  0  0  0
   -6.6607   -7.3147   -4.2170 C   0  0  0  0  0  0  0  0  0  0  0  0
   -5.3710   -7.4910   -4.8831 C   0  0  0  0  0  0  0  0  0  0  0  0
   -5.1247   -8.2706   -5.9850 C   0  0  0  0  0  0  0  0  0  0  0  0
   -3.8599   -8.4228   -6.5934 C   0  0  0  0  0  0  0  0  0  0  0  0
   -2.8637   -8.6178   -7.1316 N   0  0  0  0  0  0  0  0  0  0  0  0
   -6.1035   -8.8985   -6.7856 C   0  0  0  0  0  0  0  0  0  0  0  0
   -6.8202   -9.3476   -7.5613 N   0  0  0  0  0  0  0  0  0  0  0  0
    3.3375    6.4807    3.7517 H   0  0  0  0  0  0  0  0  0  0  0  0
   -2.3562    5.4600    4.4499 H   0  0  0  0  0  0  0  0  0  0  0  0
   -2.8512    6.7016    5.6356 H   0  0  0  0  0  0  0  0  0  0  0  0
   -4.1025    6.9511    3.4932 H   0  0  0  0  0  0  0  0  0  0  0  0
   -2.5779    7.1263    2.6158 H   0  0  0  0  0  0  0  0  0  0  0  0
   -3.0788    8.3592    3.7869 H   0  0  0  0  0  0  0  0  0  0  0  0
    0.2048   10.3007    6.3986 H   0  0  0  0  0  0  0  0  0  0  0  0
    1.9285    9.9688    6.0628 H   0  0  0  0  0  0  0  0  0  0  0  0
    2.0060    8.4028    7.9888 H   0  0  0  0  0  0  0  0  0  0  0  0
    0.2977    8.7262    8.3351 H   0  0  0  0  0  0  0  0  0  0  0  0
    1.4951   10.0118    8.5118 H   0  0  0  0  0  0  0  0  0  0  0  0
    5.7963    4.3769    2.0898 H   0  0  0  0  0  0  0  0  0  0  0  0
    5.1473    5.4485    3.3396 H   0  0  0  0  0  0  0  0  0  0  0  0
    5.0862    5.9866    0.3280 H   0  0  0  0  0  0  0  0  0  0  0  0
    6.1779    6.7475    1.4885 H   0  0  0  0  0  0  0  0  0  0  0  0
    4.4436    7.0710    1.5654 H   0  0  0  0  0  0  0  0  0  0  0  0
    6.3103   -2.9496   -3.3053 H   0  0  0  0  0  0  0  0  0  0  0  0
    7.1568   -0.8267   -2.2158 H   0  0  0  0  0  0  0  0  0  0  0  0
   -0.7475   -7.2486   -5.8522 H   0  0  0  0  0  0  0  0  0  0  0  0
    0.8436   -6.6490   -5.3654 H   0  0  0  0  0  0  0  0  0  0  0  0
    0.4957   -8.9818   -4.5994 H   0  0  0  0  0  0  0  0  0  0  0  0
    0.6846   -7.8896   -3.2241 H   0  0  0  0  0  0  0  0  0  0  0  0
   -0.9178   -8.4854   -3.6657 H   0  0  0  0  0  0  0  0  0  0  0  0
   -0.2863    2.0060    1.0705 H   0  0  0  0  0  0  0  0  0  0  0  0
   -1.0082    0.9859   -0.1637 H   0  0  0  0  0  0  0  0  0  0  0  0
   -1.3974   -0.0074    2.0765 H   0  0  0  0  0  0  0  0  0  0  0  0
    0.3237    0.0864    2.4509 H   0  0  0  0  0  0  0  0  0  0  0  0
   -0.2432   -1.0514    1.2314 H   0  0  0  0  0  0  0  0  0  0  0  0
   -1.5844   -0.8102   -0.5786 H   0  0  0  0  0  0  0  0  0  0  0  0
   -2.1138   -1.8945   -1.8535 H   0  0  0  0  0  0  0  0  0  0  0  0
   -2.5900    0.4956   -2.4344 H   0  0  0  0  0  0  0  0  0  0  0  0
   -1.5255   -0.2875   -3.6024 H   0  0  0  0  0  0  0  0  0  0  0  0
   -0.8524    0.8368   -2.4251 H   0  0  0  0  0  0  0  0  0  0  0  0
   -2.6887   -7.3411   -5.0388 H   0  0  0  0  0  0  0  0  0  0  0  0
  1  2  2  0  0  0  0
  2  3  1  0  0  0  0
  3  4  2  0  0  0  0
  3  5  1  0  0  0  0
  5  6  1  0  0  0  0
  6  7  1  0  0  0  0
  5  8  1  0  0  0  0
  8  9  2  0  0  0  0
  8 10  1  0  0  0  0
 10 11  1  0  0  0  0
 11 12  1  0  0  0  0
 10 13  1  0  0  0  0
 13 14  2  0  0  0  0
  1 15  1  0  0  0  0
 15 16  2  0  0  0  0
 16 17  1  0  0  0  0
 17 18  1  0  0  0  0
 16 19  1  0  0  0  0
 19 20  1  0  0  0  0
 20 21  1  0  0  0  0
 21 22  1  0  0  0  0
 22 23  2  0  0  0  0
 23 24  1  0  0  0  0
 24 25  1  0  0  0  0
 25 26  2  0  0  0  0
 26 27  1  0  0  0  0
 27 28  2  0  0  0  0
 24 29  2  0  0  0  0
 29 30  1  0  0  0  0
 30 31  1  0  0  0  0
 31 32  1  0  0  0  0
 32 33  1  0  0  0  0
 33 34  1  0  0  0  0
 34 35  1  0  0  0  0
 33 36  2  0  0  0  0
 36 37  1  0  0  0  0
 37 38  1  0  0  0  0
 38 39  1  0  0  0  0
 39 40  1  0  0  0  0
 40 41  1  0  0  0  0
 41 42  2  0  0  0  0
 42 43  1  0  0  0  0
 43 44  1  0  0  0  0
 44 45  1  0  0  0  0
 45 46  1  0  0  0  0
 43 47  1  0  0  0  0
 47 48  1  0  0  0  0
 40 49  1  0  0  0  0
 49 50  1  0  0  0  0
 36 51  1  0  0  0  0
 51 52  2  0  0  0  0
 52 53  1  0  0  0  0
 53 54  2  0  0  0  0
 53 55  1  0  0  0  0
 55 56  2  0  0  0  0
 56 57  1  0  0  0  0
 56 58  1  0  0  0  0
 58 59  1  0  0  0  0
 58 60  2  0  0  0  0
 60 61  1  0  0  0  0
 60 62  1  0  0  0  0
 62 63  1  0  0  0  0
 62 64  2  0  0  0  0
 64 65  1  0  0  0  0
 65 66  2  0  0  0  0
 66 67  1  0  0  0  0
 67 68  3  0  0  0  0
 66 69  1  0  0  0  0
 69 70  3  0  0  0  0
 13  2  1  0  0  0  0
 46 15  1  0  0  0  0
 65 52  1  0  0  0  0
 45 19  2  0  0  0  0
 64 55  1  0  0  0  0
 44 21  2  0  0  0  0
 42 22  1  0  0  0  0
 28 23  1  0  0  0  0
 41 29  1  0  0  0  0
 39 30  2  0  0  0  0
 38 32  2  0  0  0  0
  1 71  1  0  0  0  0
  6 72  1  0  0  0  0
  6 73  1  0  0  0  0
  7 74  1  0  0  0  0
  7 75  1  0  0  0  0
  7 76  1  0  0  0  0
 11 77  1  0  0  0  0
 11 78  1  0  0  0  0
 12 79  1  0  0  0  0
 12 80  1  0  0  0  0
 12 81  1  0  0  0  0
 17 82  1  0  0  0  0
 17 83  1  0  0  0  0
 18 84  1  0  0  0  0
 18 85  1  0  0  0  0
 18 86  1  0  0  0  0
 26 87  1  0  0  0  0
 27 88  1  0  0  0  0
 34 89  1  0  0  0  0
 34 90  1  0  0  0  0
 35 91  1  0  0  0  0
 35 92  1  0  0  0  0
 35 93  1  0  0  0  0
 47 94  1  0  0  0  0
 47 95  1  0  0  0  0
 48 96  1  0  0  0  0
 48 97  1  0  0  0  0
 48 98  1  0  0  0  0
 49 99  1  0  0  0  0
 49100  1  0  0  0  0
 50101  1  0  0  0  0
 50102  1  0  0  0  0
 50103  1  0  0  0  0
 51104  1  0  0  0  0
M  END
