155

C          0.09300        1.78460        8.88860
C          0.84420        1.66810       10.03640
C          0.39450        2.53970       11.12810
O         -0.60760        3.22580       11.06350
N          1.18560        2.57060       12.26720
C          0.74390        3.45230       13.34230
C         -0.11880        2.70600       14.35080
C          2.30710        1.81440       12.44140
S          3.17770        1.90530       13.84340
N          2.68870        0.97930       11.43220
C          3.87130        0.14380       11.61480
C          3.52550       -1.16090       12.31960
C          1.99280        0.80140       10.23900
O          2.37850       -0.04720        9.45560
C          0.16970        1.23300        7.60190
C          1.00490        0.29290        7.01300
C          0.72690        0.11430        5.66890
S          1.43610       -0.87080        4.41930
C          0.33660       -0.18880        3.27080
C          0.12150       -0.29410        1.86440
C         -0.87770        0.62870        1.52840
C         -1.48130        1.25350        2.76890
C         -2.89180        0.61040        2.96190
C         -2.81830       -0.85400        2.63530
C         -3.11130       -1.31070        1.35510
C         -2.86460       -2.62080        0.99700
C         -2.32980       -3.51790        1.91340
C         -2.06180       -4.93890        1.51180
C         -3.34710       -5.76610        1.56800
C         -2.09710       -3.07940        3.20890
C         -2.33560       -1.76430        3.56590
C         -1.51540        2.76410        2.78870
C         -0.64870        3.49440        1.98500
C         -0.63780        4.87590        2.03330
C         -1.48320        5.56730        2.89010
C         -1.43870        7.06500        2.97920
C         -0.47300        7.50400        4.08190
C         -2.33400        4.83370        3.70600
C         -2.35080        3.45260        3.65940
C         -0.54730        0.73100        3.82140
C         -0.33390        0.90970        5.18120
S         -1.00210        1.87680        6.43240
C         -1.24180        0.82500        0.21050
C         -0.67520        0.03120       -0.77590
C         -0.89390        0.27130       -2.16420
C         -0.45120       -0.58240       -3.15200
C          0.09780       -1.93650       -2.80650
C          0.74470       -1.89330       -1.43220
C          0.24270       -1.01410       -0.44570
C          0.70530       -1.13630        0.89030
C          1.69390       -2.08500        1.19970
C          2.22020       -2.87280        0.21240
C          1.74170       -2.78120       -1.09770
C         -1.05060       -2.94440       -2.67200
C         -0.76800       -4.25920       -2.31770
C         -1.77700       -5.19330       -2.18690
C         -3.10570       -4.84450       -2.39460
C         -4.19610       -5.87140       -2.29840
C         -4.40720       -6.55120       -3.65290
C         -3.38670       -3.53210       -2.74430
C         -2.37680       -2.59500       -2.88240
C          1.07440       -2.32890       -3.90170
C          2.28400       -1.64770       -3.98940
C          3.17040       -1.91780       -5.01240
C          2.87240       -2.86930       -5.98040
C          3.85810       -3.19030       -7.06630
C          4.89730       -4.19770       -6.57010
C          1.66270       -3.54080       -5.89380
C          0.76920       -3.27140       -4.87270
C         -0.65780       -0.04990       -4.43190
C         -1.27810        1.21400       -4.40800
S         -1.61240        1.74230       -2.78910
C         -1.45820        1.76280       -5.66120
C         -0.95070        0.94190       -6.67360
S         -0.26860       -0.54890       -6.03170
C         -0.98620        1.32540       -8.01840
C         -0.46100        0.76710       -9.16220
C         -0.69500        1.51390      -10.39730
O         -1.35430        2.53360      -10.44920
N         -0.12240        0.98740      -11.54910
C         -0.36150        1.72300      -12.78590
C          0.74260        2.73820      -13.04880
C          0.67720       -0.11750      -11.57260
S          1.36120       -0.64090      -12.98180
N          0.89400       -0.78870      -10.40110
C          1.73940       -1.97700      -10.39800
C          0.93290       -3.23410      -10.69330
C          0.30780       -0.45440       -9.19050
O          0.48140       -1.18290       -8.22300
H         -0.71900        2.50000        9.00470
H          1.62840        3.86830       13.82720
H          0.16680        4.25080       12.87300
H          0.44850        1.90340       14.81620
H         -0.99330        2.28740       13.85840
H         -0.44740        3.39330       15.12470
H          4.60110        0.71100       12.19410
H          4.26800       -0.06220       10.61930
H          3.12340       -0.96190       13.31010
H          4.42170       -1.76550       12.42290
H          2.79190       -1.71630       11.74010
H          1.77200       -0.22000        7.56150
H         -3.21030        0.75470        3.99470
H         -3.59190        1.11810        2.29720
H         -3.52030       -0.62690        0.62510
H         -3.07020       -2.94980       -0.01170
H         -1.31840       -5.37880        2.17940
H         -1.66590       -4.95750        0.49390
H         -3.15110       -6.79590        1.27780
H         -3.75580       -5.76230        2.57610
H         -4.09210       -5.34900        0.89460
H         -1.70760       -3.76890        3.94450
H         -2.13730       -1.44240        4.57880
H          0.02590        2.97930        1.31660
H          0.04030        5.42410        1.39480
H         -2.43550        7.45220        3.19990
H         -1.11200        7.48400        2.02550
H         -0.44100        8.58880        4.15030
H         -0.78880        7.10400        5.04270
H          0.53020        7.13870        3.87320
H         -2.99350        5.34940        4.38900
H         -3.02000        2.91640        4.31400
H         -1.95260        1.59280       -0.06010
H          2.03590       -2.17570        2.21920
H          3.00060       -3.58320        0.44040
H          2.17110       -3.41710       -1.85790
H          0.25340       -4.56230       -2.14820
H         -1.52890       -6.21100       -1.91950
H         -3.92980       -6.62590       -1.55570
H         -5.12800       -5.39580       -1.98560
H         -3.49190       -7.04160       -3.97670
H         -5.19580       -7.29690       -3.58540
H         -4.68620       -5.81740       -4.40580
H         -4.41160       -3.23280       -2.91320
H         -2.64270       -1.58770       -3.16390
H          2.52630       -0.89750       -3.24890
H          4.10380       -1.37520       -5.06650
H          3.33400       -3.61200       -7.92610
H          4.36660       -2.27810       -7.38600
H          5.61250       -4.42570       -7.35700
H          4.41100       -5.12150       -6.26430
H          5.43740       -3.79650       -5.71550
H          1.40530       -4.27550       -6.64240
H         -0.17450       -3.79470       -4.84200
H         -1.91230        2.71720       -5.85690
H         -1.50430        2.26390       -8.20120
H         -0.42420        1.00400      -13.60410
H         -1.31840        2.23350      -12.66430
H          0.52330        3.28290      -13.96230
H          0.80450        3.44550      -12.22520
H          1.70100        2.23740      -13.16340
H          2.18240       -2.04060       -9.40230
H          2.52090       -1.83810      -11.14640
H          1.58960       -4.09920      -10.67780
H          0.15840       -3.36590       -9.94140
H          0.47150       -3.16620      -11.67570
