
  xtb     01262217103D
 energy: -130.545248188520 gnorm: 0.000342034218 xtb: 6.4.1 (unknown)
 67 74  0     0  0            999 V2000
    2.2810    3.3906   -0.7839 C   0  0  0  0  0  0  0  0  0  0  0  0
    1.4707    4.3737   -0.3113 C   0  0  0  0  0  0  0  0  0  0  0  0
    0.1496    4.1469    0.2844 C   0  0  0  0  0  0  0  0  0  0  0  0
   -0.3090    3.0543    0.5404 O   0  0  0  0  0  0  0  0  0  0  0  0
   -0.5730    5.2931    0.5959 N   0  0  0  0  0  0  0  0  0  0  0  0
   -1.9093    5.0778    1.1438 C   0  0  0  0  0  0  0  0  0  0  0  0
   -1.8873    5.0492    2.6660 C   0  0  0  0  0  0  0  0  0  0  0  0
   -0.0954    6.5692    0.4928 C   0  0  0  0  0  0  0  0  0  0  0  0
   -1.0424    7.8597    0.8975 S   0  0  0  0  0  0  0  0  0  0  0  0
    1.1873    6.7557    0.0599 N   0  0  0  0  0  0  0  0  0  0  0  0
    1.7359    8.1078    0.0124 C   0  0  0  0  0  0  0  0  0  0  0  0
    2.2946    8.5244    1.3661 C   0  0  0  0  0  0  0  0  0  0  0  0
    2.0435    5.7311   -0.3105 C   0  0  0  0  0  0  0  0  0  0  0  0
    3.1840    5.9689   -0.6473 O   0  0  0  0  0  0  0  0  0  0  0  0
    2.0086    2.0002   -1.0228 C   0  0  0  0  0  0  0  0  0  0  0  0
    0.8122    1.4929   -1.4793 C   0  0  0  0  0  0  0  0  0  0  0  0
    0.6194    0.1206   -1.7354 C   0  0  0  0  0  0  0  0  0  0  0  0
    1.6343   -0.8371   -1.5288 C   0  0  0  0  0  0  0  0  0  0  0  0
    2.8887   -0.3331   -1.0871 C   0  0  0  0  0  0  0  0  0  0  0  0
    3.9939   -1.0325   -0.8517 N   0  0  0  0  0  0  0  0  0  0  0  0
    5.1589   -0.0230   -0.3882 S   0  0  0  0  0  0  0  0  0  0  0  0
    4.3168    1.3462   -0.4593 N   0  0  0  0  0  0  0  0  0  0  0  0
    3.0790    1.0708   -0.8559 C   0  0  0  0  0  0  0  0  0  0  0  0
    1.4204   -2.2156   -1.7402 C   0  0  0  0  0  0  0  0  0  0  0  0
    0.1995   -2.7201   -2.1202 C   0  0  0  0  0  0  0  0  0  0  0  0
   -0.8357   -1.7833   -2.4029 C   0  0  0  0  0  0  0  0  0  0  0  0
   -2.0422   -2.0475   -2.8925 N   0  0  0  0  0  0  0  0  0  0  0  0
   -2.8440   -0.6639   -3.0619 S   0  0  0  0  0  0  0  0  0  0  0  0
   -1.6927    0.3371   -2.5525 N   0  0  0  0  0  0  0  0  0  0  0  0
   -0.6248   -0.3765   -2.2155 C   0  0  0  0  0  0  0  0  0  0  0  0
   -0.0347   -4.1400   -2.2683 C   0  0  0  0  0  0  0  0  0  0  0  0
   -1.1331   -4.7697   -1.7972 C   0  0  0  0  0  0  0  0  0  0  0  0
   -2.0905   -4.1585   -0.8266 C   0  0  0  0  0  0  0  0  0  0  0  0
   -2.0093   -3.0737   -0.2964 O   0  0  0  0  0  0  0  0  0  0  0  0
   -3.0906   -5.2014   -0.5507 C   0  0  0  0  0  0  0  0  0  0  0  0
   -4.1875   -5.1173    0.2734 C   0  0  0  0  0  0  0  0  0  0  0  0
   -4.9961   -6.2495    0.4037 C   0  0  0  0  0  0  0  0  0  0  0  0
   -6.1744   -6.4279    1.1814 C   0  0  0  0  0  0  0  0  0  0  0  0
   -6.6910   -7.6708    1.0644 C   0  0  0  0  0  0  0  0  0  0  0  0
   -5.7893   -8.7014    0.0084 S   0  0  0  0  0  0  0  0  0  0  0  0
   -4.6542   -7.4269   -0.3062 C   0  0  0  0  0  0  0  0  0  0  0  0
   -3.5426   -7.5152   -1.1343 C   0  0  0  0  0  0  0  0  0  0  0  0
   -2.7527   -6.3854   -1.2548 C   0  0  0  0  0  0  0  0  0  0  0  0
   -1.5394   -6.1514   -2.0238 C   0  0  0  0  0  0  0  0  0  0  0  0
   -0.9231   -7.0554   -2.8455 C   0  0  0  0  0  0  0  0  0  0  0  0
    0.2390   -6.8043   -3.6062 C   0  0  0  0  0  0  0  0  0  0  0  0
    1.1773   -6.6804   -4.2560 N   0  0  0  0  0  0  0  0  0  0  0  0
   -1.3707   -8.3790   -3.0480 C   0  0  0  0  0  0  0  0  0  0  0  0
   -1.6800   -9.4652   -3.2519 N   0  0  0  0  0  0  0  0  0  0  0  0
    3.3003    3.6965   -1.0035 H   0  0  0  0  0  0  0  0  0  0  0  0
   -2.5580    5.8774    0.7836 H   0  0  0  0  0  0  0  0  0  0  0  0
   -2.2546    4.1173    0.7578 H   0  0  0  0  0  0  0  0  0  0  0  0
   -2.8912    4.8683    3.0385 H   0  0  0  0  0  0  0  0  0  0  0  0
   -1.2348    4.2531    3.0163 H   0  0  0  0  0  0  0  0  0  0  0  0
   -1.5366    5.9999    3.0605 H   0  0  0  0  0  0  0  0  0  0  0  0
    2.5318    8.0951   -0.7339 H   0  0  0  0  0  0  0  0  0  0  0  0
    0.9432    8.7879   -0.3025 H   0  0  0  0  0  0  0  0  0  0  0  0
    2.7160    9.5224    1.2914 H   0  0  0  0  0  0  0  0  0  0  0  0
    1.5079    8.5347    2.1169 H   0  0  0  0  0  0  0  0  0  0  0  0
    3.0769    7.8361    1.6771 H   0  0  0  0  0  0  0  0  0  0  0  0
   -0.0214    2.1469   -1.6756 H   0  0  0  0  0  0  0  0  0  0  0  0
    2.2439   -2.8836   -1.5360 H   0  0  0  0  0  0  0  0  0  0  0  0
    0.7361   -4.6957   -2.7863 H   0  0  0  0  0  0  0  0  0  0  0  0
   -4.4126   -4.2026    0.7997 H   0  0  0  0  0  0  0  0  0  0  0  0
   -6.5998   -5.6538    1.7942 H   0  0  0  0  0  0  0  0  0  0  0  0
   -7.5670   -8.0661    1.5410 H   0  0  0  0  0  0  0  0  0  0  0  0
   -3.3223   -8.4361   -1.6479 H   0  0  0  0  0  0  0  0  0  0  0  0
  1  2  2  0  0  0  0
  2  3  1  0  0  0  0
  3  4  2  0  0  0  0
  3  5  1  0  0  0  0
  5  6  1  0  0  0  0
  6  7  1  0  0  0  0
  5  8  1  0  0  0  0
  8  9  2  0  0  0  0
  8 10  1  0  0  0  0
 10 11  1  0  0  0  0
 11 12  1  0  0  0  0
 10 13  1  0  0  0  0
 13 14  2  0  0  0  0
  1 15  1  0  0  0  0
 15 16  2  0  0  0  0
 16 17  1  0  0  0  0
 17 18  2  0  0  0  0
 18 19  1  0  0  0  0
 19 20  2  0  0  0  0
 20 21  1  0  0  0  0
 21 22  1  0  0  0  0
 22 23  2  0  0  0  0
 18 24  1  0  0  0  0
 24 25  2  0  0  0  0
 25 26  1  0  0  0  0
 26 27  2  0  0  0  0
 27 28  1  0  0  0  0
 28 29  1  0  0  0  0
 29 30  2  0  0  0  0
 25 31  1  0  0  0  0
 31 32  2  0  0  0  0
 32 33  1  0  0  0  0
 33 34  2  0  0  0  0
 33 35  1  0  0  0  0
 35 36  2  0  0  0  0
 36 37  1  0  0  0  0
 37 38  1  0  0  0  0
 38 39  2  0  0  0  0
 39 40  1  0  0  0  0
 40 41  1  0  0  0  0
 41 42  1  0  0  0  0
 42 43  2  0  0  0  0
 43 44  1  0  0  0  0
 44 45  2  0  0  0  0
 45 46  1  0  0  0  0
 46 47  3  0  0  0  0
 45 48  1  0  0  0  0
 48 49  3  0  0  0  0
 13  2  1  0  0  0  0
 23 15  1  0  0  0  0
 30 26  1  0  0  0  0
 44 32  1  0  0  0  0
 30 17  1  0  0  0  0
 43 35  1  0  0  0  0
 23 19  1  0  0  0  0
 41 37  2  0  0  0  0
  1 50  1  0  0  0  0
  6 51  1  0  0  0  0
  6 52  1  0  0  0  0
  7 53  1  0  0  0  0
  7 54  1  0  0  0  0
  7 55  1  0  0  0  0
 11 56  1  0  0  0  0
 11 57  1  0  0  0  0
 12 58  1  0  0  0  0
 12 59  1  0  0  0  0
 12 60  1  0  0  0  0
 16 61  1  0  0  0  0
 24 62  1  0  0  0  0
 31 63  1  0  0  0  0
 36 64  1  0  0  0  0
 38 65  1  0  0  0  0
 39 66  1  0  0  0  0
 42 67  1  0  0  0  0
M  END
