
  xtb     02112203053D
 energy: -180.619341541025 gnorm: 0.000215569899 xtb: 6.4.1 (unknown)
 98112  0     0  0            999 V2000
   -4.1578    1.4198   -9.7616 C   0  0  0  0  0  0  0  0  0  0  0  0
   -3.9491    0.1513  -10.2165 C   0  0  0  0  0  0  0  0  0  0  0  0
   -4.1001   -0.1370  -11.6740 C   0  0  0  0  0  0  0  0  0  0  0  0
   -4.6002    0.5877  -12.5056 O   0  0  0  0  0  0  0  0  0  0  0  0
   -3.4627   -1.4440  -11.8590 C   0  0  0  0  0  0  0  0  0  0  0  0
   -3.0620   -1.9668  -10.5843 C   0  0  0  0  0  0  0  0  0  0  0  0
   -2.4631   -3.1824  -10.6776 C   0  0  0  0  0  0  0  0  0  0  0  0
   -2.3749   -3.6989  -12.3236 S   0  0  0  0  0  0  0  0  0  0  0  0
   -3.1735   -2.2588  -12.9090 C   0  0  0  0  0  0  0  0  0  0  0  0
   -3.4584   -2.0492  -14.3457 C   0  0  0  0  0  0  0  0  0  0  0  0
   -3.4858   -1.0482   -9.5460 C   0  0  0  0  0  0  0  0  0  0  0  0
   -3.6623   -1.4066   -8.2307 C   0  0  0  0  0  0  0  0  0  0  0  0
   -3.2091   -2.6461   -7.7402 C   0  0  0  0  0  0  0  0  0  0  0  0
   -2.8192   -3.6392   -7.3158 N   0  0  0  0  0  0  0  0  0  0  0  0
   -4.3613   -0.6404   -7.2795 C   0  0  0  0  0  0  0  0  0  0  0  0
   -4.9536   -0.0687   -6.4772 N   0  0  0  0  0  0  0  0  0  0  0  0
   -3.7158    2.0153   -8.5592 C   0  0  0  0  0  0  0  0  0  0  0  0
   -4.2760    3.1359   -7.9718 C   0  0  0  0  0  0  0  0  0  0  0  0
   -3.6883    3.5150   -6.7679 C   0  0  0  0  0  0  0  0  0  0  0  0
   -4.1455    4.7369   -5.6006 S   0  0  0  0  0  0  0  0  0  0  0  0
   -2.8819    4.1872   -4.5596 C   0  0  0  0  0  0  0  0  0  0  0  0
   -2.4196    4.3822   -3.2498 C   0  0  0  0  0  0  0  0  0  0  0  0
   -2.9263    5.1895   -2.2074 C   0  0  0  0  0  0  0  0  0  0  0  0
   -2.3909    5.0298   -0.8872 C   0  0  0  0  0  0  0  0  0  0  0  0
   -3.0058    5.7923    0.0033 N   0  0  0  0  0  0  0  0  0  0  0  0
   -4.1545    6.6423   -0.7556 S   0  0  0  0  0  0  0  0  0  0  0  0
   -3.9147    6.0690   -2.2496 N   0  0  0  0  0  0  0  0  0  0  0  0
   -1.2906    4.1651   -0.6984 C   0  0  0  0  0  0  0  0  0  0  0  0
   -0.5248    3.8875    0.4427 C   0  0  0  0  0  0  0  0  0  0  0  0
    0.5383    3.0739    0.0334 C   0  0  0  0  0  0  0  0  0  0  0  0
    0.4381    2.8189   -1.3085 N   0  0  0  0  0  0  0  0  0  0  0  0
    1.5612    2.2408   -2.0072 C   0  0  0  0  0  0  0  0  0  0  0  0
    1.6198    0.7209   -1.8486 C   0  0  0  0  0  0  0  0  0  0  0  0
   -0.6988    3.4494   -1.7808 C   0  0  0  0  0  0  0  0  0  0  0  0
   -1.3487    3.4634   -3.0425 C   0  0  0  0  0  0  0  0  0  0  0  0
   -1.1774    2.7259   -4.2047 N   0  0  0  0  0  0  0  0  0  0  0  0
   -2.1212    3.1473   -5.1051 C   0  0  0  0  0  0  0  0  0  0  0  0
   -2.5797    2.7513   -6.3626 C   0  0  0  0  0  0  0  0  0  0  0  0
   -2.1881    1.4197   -7.5996 Se  0  0  0  0  0  2  0  0  0  0  0  0
   -0.6171    1.4095   -4.4132 C   0  0  0  0  0  0  0  0  0  0  0  0
   -1.5837    0.3215   -3.9505 C   0  0  0  0  0  0  0  0  0  0  0  0
    1.4024    2.7551    1.0862 C   0  0  0  0  0  0  0  0  0  0  0  0
    0.9440    3.2987    2.3018 C   0  0  0  0  0  0  0  0  0  0  0  0
   -0.5122    4.2508    2.1306 S   0  0  0  0  0  0  0  0  0  0  0  0
    1.6771    2.9730    3.4412 C   0  0  0  0  0  0  0  0  0  0  0  0
    2.7760    2.1748    3.2009 C   0  0  0  0  0  0  0  0  0  0  0  0
    2.9848    1.8065    1.3419 Se  0  0  0  0  0  2  0  0  0  0  0  0
    3.7162    1.5931    4.0789 C   0  0  0  0  0  0  0  0  0  0  0  0
    3.5521    1.2355    5.3855 C   0  0  0  0  0  0  0  0  0  0  0  0
    2.2671    1.1298    6.1191 C   0  0  0  0  0  0  0  0  0  0  0  0
    1.2026    1.6485    5.8586 O   0  0  0  0  0  0  0  0  0  0  0  0
    2.5307    0.1960    7.2315 C   0  0  0  0  0  0  0  0  0  0  0  0
    1.5889   -0.3385    8.1084 C   0  0  0  0  0  0  0  0  0  0  0  0
    2.1124   -1.2287    9.0148 C   0  0  0  0  0  0  0  0  0  0  0  0
    3.4744   -1.5586    9.0552 C   0  0  0  0  0  0  0  0  0  0  0  0
    4.4165   -1.0281    8.2065 C   0  0  0  0  0  0  0  0  0  0  0  0
    3.9018   -0.1270    7.2691 C   0  0  0  0  0  0  0  0  0  0  0  0
    4.5728    0.5897    6.1913 C   0  0  0  0  0  0  0  0  0  0  0  0
    5.9259    0.7001    6.0101 C   0  0  0  0  0  0  0  0  0  0  0  0
    6.8904    0.0872    6.8361 C   0  0  0  0  0  0  0  0  0  0  0  0
    7.7211   -0.3894    7.4692 N   0  0  0  0  0  0  0  0  0  0  0  0
    6.5296    1.4862    5.0056 C   0  0  0  0  0  0  0  0  0  0  0  0
    7.0814    2.1210    4.2237 N   0  0  0  0  0  0  0  0  0  0  0  0
    3.2850   -2.5398   10.1851 C   0  0  0  0  0  0  0  0  0  0  0  0
    3.2848   -4.0347    9.7999 C   0  0  0  0  0  0  0  0  0  0  0  0
    2.6129   -4.7113   10.9729 C   0  0  0  0  0  0  0  0  0  0  0  0
    1.3240   -4.3982   10.9354 C   0  0  0  0  0  0  0  0  0  0  0  0
    1.1032   -3.5047    9.7363 C   0  0  0  0  0  0  0  0  0  0  0  0
    2.1445   -4.0924    8.7750 C   0  0  0  0  0  0  0  0  0  0  0  0
    1.7675   -2.1709   10.1410 C   0  0  0  0  0  0  0  0  0  0  0  0
   -4.6881    2.0737  -10.4486 H   0  0  0  0  0  0  0  0  0  0  0  0
   -2.0577   -3.8076   -9.9073 H   0  0  0  0  0  0  0  0  0  0  0  0
   -4.1033   -2.8400  -14.7283 H   0  0  0  0  0  0  0  0  0  0  0  0
   -2.5370   -2.0608  -14.9272 H   0  0  0  0  0  0  0  0  0  0  0  0
   -3.9538   -1.0896  -14.4748 H   0  0  0  0  0  0  0  0  0  0  0  0
   -5.1449    3.6212   -8.3816 H   0  0  0  0  0  0  0  0  0  0  0  0
    1.5274    2.5502   -3.0532 H   0  0  0  0  0  0  0  0  0  0  0  0
    2.4734    2.6690   -1.5702 H   0  0  0  0  0  0  0  0  0  0  0  0
    0.6682    0.2546   -2.0887 H   0  0  0  0  0  0  0  0  0  0  0  0
    1.8645    0.4648   -0.8187 H   0  0  0  0  0  0  0  0  0  0  0  0
    2.3915    0.3102   -2.4939 H   0  0  0  0  0  0  0  0  0  0  0  0
    0.3371    1.3058   -3.9116 H   0  0  0  0  0  0  0  0  0  0  0  0
   -0.4403    1.3088   -5.4925 H   0  0  0  0  0  0  0  0  0  0  0  0
   -1.8037    0.4335   -2.8906 H   0  0  0  0  0  0  0  0  0  0  0  0
   -2.5199    0.3824   -4.5029 H   0  0  0  0  0  0  0  0  0  0  0  0
   -1.1483   -0.6594   -4.1210 H   0  0  0  0  0  0  0  0  0  0  0  0
    1.4144    3.3171    4.4242 H   0  0  0  0  0  0  0  0  0  0  0  0
    4.6558    1.3159    3.6087 H   0  0  0  0  0  0  0  0  0  0  0  0
    0.5492   -0.0586    8.0428 H   0  0  0  0  0  0  0  0  0  0  0  0
    5.4603   -1.2926    8.2434 H   0  0  0  0  0  0  0  0  0  0  0  0
    3.8464   -2.3341   11.0942 H   0  0  0  0  0  0  0  0  0  0  0  0
    4.2518   -4.4265    9.4969 H   0  0  0  0  0  0  0  0  0  0  0  0
    3.1367   -5.2841   11.7155 H   0  0  0  0  0  0  0  0  0  0  0  0
    0.5558   -4.6570   11.6402 H   0  0  0  0  0  0  0  0  0  0  0  0
    0.0824   -3.4139    9.3747 H   0  0  0  0  0  0  0  0  0  0  0  0
    2.3163   -3.4912    7.8840 H   0  0  0  0  0  0  0  0  0  0  0  0
    1.9048   -5.1137    8.4836 H   0  0  0  0  0  0  0  0  0  0  0  0
    1.3145   -1.7190   11.0212 H   0  0  0  0  0  0  0  0  0  0  0  0
  1  2  2  0  0  0  0
  2  3  1  0  0  0  0
  3  4  2  0  0  0  0
  3  5  1  0  0  0  0
  5  6  1  0  0  0  0
  6  7  2  0  0  0  0
  7  8  1  0  0  0  0
  8  9  1  0  0  0  0
  9 10  1  0  0  0  0
  6 11  1  0  0  0  0
 11 12  2  0  0  0  0
 12 13  1  0  0  0  0
 13 14  3  0  0  0  0
 12 15  1  0  0  0  0
 15 16  3  0  0  0  0
  1 17  1  0  0  0  0
 17 18  2  0  0  0  0
 18 19  1  0  0  0  0
 19 20  1  0  0  0  0
 20 21  1  0  0  0  0
 21 22  1  0  0  0  0
 22 23  1  0  0  0  0
 23 24  1  0  0  0  0
 24 25  2  0  0  0  0
 25 26  1  0  0  0  0
 26 27  1  0  0  0  0
 24 28  1  0  0  0  0
 28 29  1  0  0  0  0
 29 30  2  0  0  0  0
 30 31  1  0  0  0  0
 31 32  1  0  0  0  0
 32 33  1  0  0  0  0
 31 34  1  0  0  0  0
 34 35  1  0  0  0  0
 35 36  1  0  0  0  0
 36 37  1  0  0  0  0
 37 38  1  0  0  0  0
 38 39  1  0  0  0  0
 36 40  1  0  0  0  0
 40 41  1  0  0  0  0
 30 42  1  0  0  0  0
 42 43  2  0  0  0  0
 43 44  1  0  0  0  0
 43 45  1  0  0  0  0
 45 46  2  0  0  0  0
 46 47  1  0  0  0  0
 46 48  1  0  0  0  0
 48 49  2  0  0  0  0
 49 50  1  0  0  0  0
 50 51  2  0  0  0  0
 50 52  1  0  0  0  0
 52 53  2  0  0  0  0
 53 54  1  0  0  0  0
 54 55  2  0  0  0  0
 55 56  1  0  0  0  0
 56 57  2  0  0  0  0
 57 58  1  0  0  0  0
 58 59  2  0  0  0  0
 59 60  1  0  0  0  0
 60 61  3  0  0  0  0
 59 62  1  0  0  0  0
 62 63  3  0  0  0  0
 55 64  1  0  0  0  0
 64 65  1  0  0  0  0
 65 66  1  0  0  0  0
 66 67  2  0  0  0  0
 67 68  1  0  0  0  0
 68 69  1  0  0  0  0
 68 70  1  0  0  0  0
 11  2  1  0  0  0  0
 39 17  1  0  0  0  0
 47 42  1  0  0  0  0
 58 49  1  0  0  0  0
 70 64  1  0  0  0  0
  9  5  2  0  0  0  0
 38 19  2  0  0  0  0
 57 52  1  0  0  0  0
 69 65  1  0  0  0  0
 37 21  2  0  0  0  0
 70 54  1  0  0  0  0
 35 22  2  0  0  0  0
 27 23  2  0  0  0  0
 34 28  2  0  0  0  0
 44 29  1  0  0  0  0
  1 71  1  0  0  0  0
  7 72  1  0  0  0  0
 10 73  1  0  0  0  0
 10 74  1  0  0  0  0
 10 75  1  0  0  0  0
 18 76  1  0  0  0  0
 32 77  1  0  0  0  0
 32 78  1  0  0  0  0
 33 79  1  0  0  0  0
 33 80  1  0  0  0  0
 33 81  1  0  0  0  0
 40 82  1  0  0  0  0
 40 83  1  0  0  0  0
 41 84  1  0  0  0  0
 41 85  1  0  0  0  0
 41 86  1  0  0  0  0
 45 87  1  0  0  0  0
 48 88  1  0  0  0  0
 53 89  1  0  0  0  0
 56 90  1  0  0  0  0
 64 91  1  0  0  0  0
 65 92  1  0  0  0  0
 66 93  1  0  0  0  0
 67 94  1  0  0  0  0
 68 95  1  0  0  0  0
 69 96  1  0  0  0  0
 69 97  1  0  0  0  0
 70 98  1  0  0  0  0
M  END
