
  xtb     02022203563D
 energy: -223.247239276032 gnorm: 0.000479195215 xtb: 6.4.1 (unknown)
130146  0     0  0            999 V2000
   -1.8927   -5.1414    6.2733 C   0  0  0  0  0  0  0  0  0  0  0  0
   -2.0460   -6.2987    6.9814 C   0  0  0  0  0  0  0  0  0  0  0  0
   -2.5410   -6.2219    8.3883 C   0  0  0  0  0  0  0  0  0  0  0  0
   -3.0413   -5.2596    8.9286 O   0  0  0  0  0  0  0  0  0  0  0  0
   -2.2150   -7.5308    8.9615 C   0  0  0  0  0  0  0  0  0  0  0  0
   -1.6962   -8.3874    7.9346 C   0  0  0  0  0  0  0  0  0  0  0  0
   -1.3597   -9.6192    8.3933 C   0  0  0  0  0  0  0  0  0  0  0  0
   -1.6632   -9.7450   10.0907 S   0  0  0  0  0  0  0  0  0  0  0  0
   -2.2712   -8.1096   10.1913 C   0  0  0  0  0  0  0  0  0  0  0  0
   -2.7553   -7.5280   11.4633 C   0  0  0  0  0  0  0  0  0  0  0  0
   -1.7052   -7.6690    6.6769 C   0  0  0  0  0  0  0  0  0  0  0  0
   -1.6446   -8.2536    5.4378 C   0  0  0  0  0  0  0  0  0  0  0  0
   -1.8829   -7.5547    4.2418 C   0  0  0  0  0  0  0  0  0  0  0  0
   -2.1007   -7.0059    3.2568 N   0  0  0  0  0  0  0  0  0  0  0  0
   -1.4161   -9.6346    5.2892 C   0  0  0  0  0  0  0  0  0  0  0  0
   -1.2311  -10.7601    5.1611 N   0  0  0  0  0  0  0  0  0  0  0  0
   -1.0423   -4.8575    5.1837 C   0  0  0  0  0  0  0  0  0  0  0  0
    0.1554   -5.4488    4.7862 C   0  0  0  0  0  0  0  0  0  0  0  0
    0.8270   -6.5812    5.4348 C   0  0  0  0  0  0  0  0  0  0  0  0
    1.0997   -7.6982    4.6466 C   0  0  0  0  0  0  0  0  0  0  0  0
    1.6755   -8.8297    5.1935 C   0  0  0  0  0  0  0  0  0  0  0  0
    1.9872   -8.8516    6.5409 C   0  0  0  0  0  0  0  0  0  0  0  0
    1.7693   -7.7248    7.3140 C   0  0  0  0  0  0  0  0  0  0  0  0
    1.2033   -6.5735    6.7826 C   0  0  0  0  0  0  0  0  0  0  0  0
    1.1374   -5.3314    7.6265 C   0  0  0  0  0  0  0  0  0  0  0  0
    2.2962   -4.3988    7.2655 C   0  0  0  0  0  0  0  0  0  0  0  0
    0.6908   -4.8060    3.6627 C   0  0  0  0  0  0  0  0  0  0  0  0
    2.1495   -5.0843    2.7403 S   0  0  0  0  0  0  0  0  0  0  0  0
    1.7286   -3.7440    1.7308 C   0  0  0  0  0  0  0  0  0  0  0  0
    2.2467   -3.0362    0.6384 C   0  0  0  0  0  0  0  0  0  0  0  0
    3.4735   -3.1786   -0.0462 C   0  0  0  0  0  0  0  0  0  0  0  0
    3.8090   -2.2295   -1.0647 C   0  0  0  0  0  0  0  0  0  0  0  0
    5.0047   -2.4495   -1.5883 N   0  0  0  0  0  0  0  0  0  0  0  0
    5.6500   -3.7455   -0.8639 S   0  0  0  0  0  0  0  0  0  0  0  0
    4.4298   -4.0730    0.1486 N   0  0  0  0  0  0  0  0  0  0  0  0
    2.8637   -1.2392   -1.4104 C   0  0  0  0  0  0  0  0  0  0  0  0
    2.8995   -0.2551   -2.4062 C   0  0  0  0  0  0  0  0  0  0  0  0
    3.9795    0.3434   -3.6192 S   0  0  0  0  0  0  0  0  0  0  0  0
    2.7456    1.4953   -4.0962 C   0  0  0  0  0  0  0  0  0  0  0  0
    2.7045    2.4827   -5.0730 C   0  0  0  0  0  0  0  0  0  0  0  0
    3.7761    2.7764   -6.0368 C   0  0  0  0  0  0  0  0  0  0  0  0
    4.9592    3.4058   -5.6462 C   0  0  0  0  0  0  0  0  0  0  0  0
    5.1639    3.8861   -4.2377 C   0  0  0  0  0  0  0  0  0  0  0  0
    4.4725    5.2357   -4.0295 C   0  0  0  0  0  0  0  0  0  0  0  0
    5.9210    3.6636   -6.6133 C   0  0  0  0  0  0  0  0  0  0  0  0
    5.7274    3.3065   -7.9344 C   0  0  0  0  0  0  0  0  0  0  0  0
    4.5519    2.6835   -8.3151 C   0  0  0  0  0  0  0  0  0  0  0  0
    3.5795    2.4246   -7.3693 C   0  0  0  0  0  0  0  0  0  0  0  0
    1.4778    3.1677   -5.0671 C   0  0  0  0  0  0  0  0  0  0  0  0
    0.3714    2.5456   -3.8482 S   0  0  0  0  0  0  0  0  0  0  0  0
    1.5606    1.4004   -3.3452 C   0  0  0  0  0  0  0  0  0  0  0  0
    1.6602    0.3941   -2.3796 C   0  0  0  0  0  0  0  0  0  0  0  0
    0.8722   -0.1377   -1.3946 N   0  0  0  0  0  0  0  0  0  0  0  0
    1.5914   -1.1424   -0.7700 C   0  0  0  0  0  0  0  0  0  0  0  0
    1.3177   -1.9983    0.3315 C   0  0  0  0  0  0  0  0  0  0  0  0
    0.2758   -2.0730    1.2419 N   0  0  0  0  0  0  0  0  0  0  0  0
    0.5300   -3.1176    2.0880 C   0  0  0  0  0  0  0  0  0  0  0  0
   -0.0623   -3.7170    3.2039 C   0  0  0  0  0  0  0  0  0  0  0  0
   -1.4540   -3.4654    4.1862 S   0  0  0  0  0  0  0  0  0  0  0  0
   -0.7371   -1.1062    1.6002 C   0  0  0  0  0  0  0  0  0  0  0  0
   -0.1155    0.1933    2.1061 C   0  0  0  0  0  0  0  0  0  0  0  0
   -0.5481    0.1357   -1.4099 C   0  0  0  0  0  0  0  0  0  0  0  0
   -1.3422   -1.0729   -1.8994 C   0  0  0  0  0  0  0  0  0  0  0  0
    1.2522    4.2719   -5.8966 C   0  0  0  0  0  0  0  0  0  0  0  0
    0.1606    5.0945   -6.0053 C   0  0  0  0  0  0  0  0  0  0  0  0
   -1.1209    4.9208   -5.3186 C   0  0  0  0  0  0  0  0  0  0  0  0
   -1.4164    4.0634   -4.5011 O   0  0  0  0  0  0  0  0  0  0  0  0
   -2.0048    5.9875   -5.8167 C   0  0  0  0  0  0  0  0  0  0  0  0
   -3.3319    6.2128   -5.4578 C   0  0  0  0  0  0  0  0  0  0  0  0
   -3.9041    7.2934   -6.0847 C   0  0  0  0  0  0  0  0  0  0  0  0
   -3.2088    8.0894   -7.0043 C   0  0  0  0  0  0  0  0  0  0  0  0
   -1.9009    7.8749   -7.3704 C   0  0  0  0  0  0  0  0  0  0  0  0
   -1.2968    6.7824   -6.7410 C   0  0  0  0  0  0  0  0  0  0  0  0
    0.0654    6.2619   -6.8571 C   0  0  0  0  0  0  0  0  0  0  0  0
    1.0711    6.8220   -7.6035 C   0  0  0  0  0  0  0  0  0  0  0  0
    2.4096    6.3778   -7.6548 C   0  0  0  0  0  0  0  0  0  0  0  0
    3.5222    6.1032   -7.7416 N   0  0  0  0  0  0  0  0  0  0  0  0
    0.9166    7.9626   -8.4187 C   0  0  0  0  0  0  0  0  0  0  0  0
    0.8657    8.8813   -9.1059 N   0  0  0  0  0  0  0  0  0  0  0  0
   -4.3884    9.0029   -7.2271 C   0  0  0  0  0  0  0  0  0  0  0  0
   -4.3378   10.3746   -6.5211 C   0  0  0  0  0  0  0  0  0  0  0  0
   -5.7786   10.8320   -6.5160 C   0  0  0  0  0  0  0  0  0  0  0  0
   -6.4383   10.0779   -5.6461 C   0  0  0  0  0  0  0  0  0  0  0  0
   -5.4544    9.0982   -5.0485 C   0  0  0  0  0  0  0  0  0  0  0  0
   -4.1871    9.9629   -5.0509 C   0  0  0  0  0  0  0  0  0  0  0  0
   -5.1640    8.1146   -6.2022 C   0  0  0  0  0  0  0  0  0  0  0  0
   -2.4533   -4.2945    6.6614 H   0  0  0  0  0  0  0  0  0  0  0  0
   -0.9446  -10.4551    7.8671 H   0  0  0  0  0  0  0  0  0  0  0  0
   -3.0718   -6.5022   11.2881 H   0  0  0  0  0  0  0  0  0  0  0  0
   -3.5967   -8.1009   11.8520 H   0  0  0  0  0  0  0  0  0  0  0  0
   -1.9686   -7.5397   12.2171 H   0  0  0  0  0  0  0  0  0  0  0  0
    0.8370   -7.6788    3.5990 H   0  0  0  0  0  0  0  0  0  0  0  0
    1.8699   -9.6891    4.5711 H   0  0  0  0  0  0  0  0  0  0  0  0
    2.4187   -9.7358    6.9851 H   0  0  0  0  0  0  0  0  0  0  0  0
    2.0542   -7.7314    8.3568 H   0  0  0  0  0  0  0  0  0  0  0  0
    1.2107   -5.6068    8.6806 H   0  0  0  0  0  0  0  0  0  0  0  0
    0.1968   -4.7995    7.4873 H   0  0  0  0  0  0  0  0  0  0  0  0
    3.2487   -4.9029    7.4127 H   0  0  0  0  0  0  0  0  0  0  0  0
    2.2291   -4.0951    6.2231 H   0  0  0  0  0  0  0  0  0  0  0  0
    2.2725   -3.5084    7.8891 H   0  0  0  0  0  0  0  0  0  0  0  0
    6.2327    3.9994   -4.0484 H   0  0  0  0  0  0  0  0  0  0  0  0
    4.7696    3.1625   -3.5227 H   0  0  0  0  0  0  0  0  0  0  0  0
    3.3932    5.1331   -4.1202 H   0  0  0  0  0  0  0  0  0  0  0  0
    4.8088    5.9495   -4.7780 H   0  0  0  0  0  0  0  0  0  0  0  0
    4.6994    5.6297   -3.0415 H   0  0  0  0  0  0  0  0  0  0  0  0
    6.8342    4.1618   -6.3219 H   0  0  0  0  0  0  0  0  0  0  0  0
    6.4889    3.5217   -8.6686 H   0  0  0  0  0  0  0  0  0  0  0  0
    4.3886    2.4059   -9.3455 H   0  0  0  0  0  0  0  0  0  0  0  0
    2.6560    1.9401   -7.6546 H   0  0  0  0  0  0  0  0  0  0  0  0
   -1.4151   -0.9329    0.7652 H   0  0  0  0  0  0  0  0  0  0  0  0
   -1.3267   -1.5577    2.4019 H   0  0  0  0  0  0  0  0  0  0  0  0
    0.4650    0.0009    3.0054 H   0  0  0  0  0  0  0  0  0  0  0  0
   -0.8966    0.9096    2.3459 H   0  0  0  0  0  0  0  0  0  0  0  0
    0.5475    0.6293    1.3622 H   0  0  0  0  0  0  0  0  0  0  0  0
   -0.8866    0.4737   -0.4310 H   0  0  0  0  0  0  0  0  0  0  0  0
   -0.6964    0.9667   -2.1034 H   0  0  0  0  0  0  0  0  0  0  0  0
   -1.0566   -1.3137   -2.9208 H   0  0  0  0  0  0  0  0  0  0  0  0
   -1.1551   -1.9481   -1.2811 H   0  0  0  0  0  0  0  0  0  0  0  0
   -2.4053   -0.8490   -1.8829 H   0  0  0  0  0  0  0  0  0  0  0  0
    2.1002    4.4961   -6.5328 H   0  0  0  0  0  0  0  0  0  0  0  0
   -3.8301    5.5730   -4.7463 H   0  0  0  0  0  0  0  0  0  0  0  0
   -1.3838    8.4937   -8.0841 H   0  0  0  0  0  0  0  0  0  0  0  0
   -4.7571    9.0636   -8.2492 H   0  0  0  0  0  0  0  0  0  0  0  0
   -3.6051   11.0676   -6.9255 H   0  0  0  0  0  0  0  0  0  0  0  0
   -6.1683   11.5946   -7.1645 H   0  0  0  0  0  0  0  0  0  0  0  0
   -7.4892   10.0845   -5.4229 H   0  0  0  0  0  0  0  0  0  0  0  0
   -5.7394    8.6289   -4.1107 H   0  0  0  0  0  0  0  0  0  0  0  0
   -4.2676   10.8129   -4.3753 H   0  0  0  0  0  0  0  0  0  0  0  0
   -3.2732    9.4123   -4.8354 H   0  0  0  0  0  0  0  0  0  0  0  0
   -6.0505    7.5816   -6.5410 H   0  0  0  0  0  0  0  0  0  0  0  0
  1  2  2  0  0  0  0
  2  3  1  0  0  0  0
  3  4  2  0  0  0  0
  3  5  1  0  0  0  0
  5  6  1  0  0  0  0
  6  7  2  0  0  0  0
  7  8  1  0  0  0  0
  8  9  1  0  0  0  0
  9 10  1  0  0  0  0
  6 11  1  0  0  0  0
 11 12  2  0  0  0  0
 12 13  1  0  0  0  0
 13 14  3  0  0  0  0
 12 15  1  0  0  0  0
 15 16  3  0  0  0  0
  1 17  1  0  0  0  0
 17 18  2  0  0  0  0
 18 19  1  0  0  0  0
 19 20  2  0  0  0  0
 20 21  1  0  0  0  0
 21 22  2  0  0  0  0
 22 23  1  0  0  0  0
 23 24  2  0  0  0  0
 24 25  1  0  0  0  0
 25 26  1  0  0  0  0
 18 27  1  0  0  0  0
 27 28  1  0  0  0  0
 28 29  1  0  0  0  0
 29 30  1  0  0  0  0
 30 31  1  0  0  0  0
 31 32  1  0  0  0  0
 32 33  2  0  0  0  0
 33 34  1  0  0  0  0
 34 35  1  0  0  0  0
 32 36  1  0  0  0  0
 36 37  1  0  0  0  0
 37 38  1  0  0  0  0
 38 39  1  0  0  0  0
 39 40  1  0  0  0  0
 40 41  1  0  0  0  0
 41 42  2  0  0  0  0
 42 43  1  0  0  0  0
 43 44  1  0  0  0  0
 42 45  1  0  0  0  0
 45 46  2  0  0  0  0
 46 47  1  0  0  0  0
 47 48  2  0  0  0  0
 40 49  2  0  0  0  0
 49 50  1  0  0  0  0
 50 51  1  0  0  0  0
 51 52  1  0  0  0  0
 52 53  1  0  0  0  0
 53 54  1  0  0  0  0
 54 55  1  0  0  0  0
 55 56  1  0  0  0  0
 56 57  1  0  0  0  0
 57 58  1  0  0  0  0
 58 59  1  0  0  0  0
 56 60  1  0  0  0  0
 60 61  1  0  0  0  0
 53 62  1  0  0  0  0
 62 63  1  0  0  0  0
 49 64  1  0  0  0  0
 64 65  2  0  0  0  0
 65 66  1  0  0  0  0
 66 67  2  0  0  0  0
 66 68  1  0  0  0  0
 68 69  2  0  0  0  0
 69 70  1  0  0  0  0
 70 71  2  0  0  0  0
 71 72  1  0  0  0  0
 72 73  2  0  0  0  0
 73 74  1  0  0  0  0
 74 75  2  0  0  0  0
 75 76  1  0  0  0  0
 76 77  3  0  0  0  0
 75 78  1  0  0  0  0
 78 79  3  0  0  0  0
 71 80  1  0  0  0  0
 80 81  1  0  0  0  0
 81 82  1  0  0  0  0
 82 83  2  0  0  0  0
 83 84  1  0  0  0  0
 84 85  1  0  0  0  0
 84 86  1  0  0  0  0
 11  2  1  0  0  0  0
 59 17  1  0  0  0  0
 74 65  1  0  0  0  0
 86 80  1  0  0  0  0
  9  5  2  0  0  0  0
 24 19  1  0  0  0  0
 58 27  2  0  0  0  0
 73 68  1  0  0  0  0
 85 81  1  0  0  0  0
 57 29  2  0  0  0  0
 86 70  1  0  0  0  0
 55 30  2  0  0  0  0
 35 31  2  0  0  0  0
 54 36  2  0  0  0  0
 52 37  2  0  0  0  0
 51 39  2  0  0  0  0
 48 41  1  0  0  0  0
  1 87  1  0  0  0  0
  7 88  1  0  0  0  0
 10 89  1  0  0  0  0
 10 90  1  0  0  0  0
 10 91  1  0  0  0  0
 20 92  1  0  0  0  0
 21 93  1  0  0  0  0
 22 94  1  0  0  0  0
 23 95  1  0  0  0  0
 25 96  1  0  0  0  0
 25 97  1  0  0  0  0
 26 98  1  0  0  0  0
 26 99  1  0  0  0  0
 26100  1  0  0  0  0
 43101  1  0  0  0  0
 43102  1  0  0  0  0
 44103  1  0  0  0  0
 44104  1  0  0  0  0
 44105  1  0  0  0  0
 45106  1  0  0  0  0
 46107  1  0  0  0  0
 47108  1  0  0  0  0
 48109  1  0  0  0  0
 60110  1  0  0  0  0
 60111  1  0  0  0  0
 61112  1  0  0  0  0
 61113  1  0  0  0  0
 61114  1  0  0  0  0
 62115  1  0  0  0  0
 62116  1  0  0  0  0
 63117  1  0  0  0  0
 63118  1  0  0  0  0
 63119  1  0  0  0  0
 64120  1  0  0  0  0
 69121  1  0  0  0  0
 72122  1  0  0  0  0
 80123  1  0  0  0  0
 81124  1  0  0  0  0
 82125  1  0  0  0  0
 83126  1  0  0  0  0
 84127  1  0  0  0  0
 85128  1  0  0  0  0
 85129  1  0  0  0  0
 86130  1  0  0  0  0
M  END
