
  xtb     02022201413D
 energy: -182.827661963971 gnorm: 0.000340570928 xtb: 6.4.1 (unknown)
100111  0     0  0            999 V2000
    3.0522   -5.9707    4.6924 C   0  0  0  0  0  0  0  0  0  0  0  0
    2.0200   -6.8406    4.5133 C   0  0  0  0  0  0  0  0  0  0  0  0
    1.7307   -7.8663    5.5589 C   0  0  0  0  0  0  0  0  0  0  0  0
    2.4389   -8.1605    6.4970 O   0  0  0  0  0  0  0  0  0  0  0  0
    0.3976   -8.3717    5.2197 C   0  0  0  0  0  0  0  0  0  0  0  0
   -0.0438   -7.7766    3.9905 C   0  0  0  0  0  0  0  0  0  0  0  0
   -1.2755   -8.2040    3.6100 C   0  0  0  0  0  0  0  0  0  0  0  0
   -1.9140   -9.3320    4.7525 S   0  0  0  0  0  0  0  0  0  0  0  0
   -0.4916   -9.2461    5.7632 C   0  0  0  0  0  0  0  0  0  0  0  0
   -0.3571  -10.0494    6.9987 C   0  0  0  0  0  0  0  0  0  0  0  0
    1.0133   -6.9313    3.4734 C   0  0  0  0  0  0  0  0  0  0  0  0
    1.1295   -6.5476    2.1614 C   0  0  0  0  0  0  0  0  0  0  0  0
    0.0785   -6.7395    1.2447 C   0  0  0  0  0  0  0  0  0  0  0  0
   -0.7837   -6.8610    0.4966 N   0  0  0  0  0  0  0  0  0  0  0  0
    2.3068   -6.0222    1.5958 C   0  0  0  0  0  0  0  0  0  0  0  0
    3.2697   -5.6480    1.0939 N   0  0  0  0  0  0  0  0  0  0  0  0
    3.2666   -4.7163    4.0754 C   0  0  0  0  0  0  0  0  0  0  0  0
    4.4786   -4.0561    3.9313 C   0  0  0  0  0  0  0  0  0  0  0  0
    5.8037   -4.5757    4.3823 C   0  0  0  0  0  0  0  0  0  0  0  0
    6.1557   -4.0131    5.7621 C   0  0  0  0  0  0  0  0  0  0  0  0
    4.3147   -2.8249    3.2877 C   0  0  0  0  0  0  0  0  0  0  0  0
    5.4531   -1.6077    2.7621 S   0  0  0  0  0  0  0  0  0  0  0  0
    4.1425   -0.6995    2.0965 C   0  0  0  0  0  0  0  0  0  0  0  0
    3.9280    0.4937    1.3866 C   0  0  0  0  0  0  0  0  0  0  0  0
    4.7739    1.5646    1.0163 C   0  0  0  0  0  0  0  0  0  0  0  0
    4.2035    2.7223    0.3783 C   0  0  0  0  0  0  0  0  0  0  0  0
    5.1025    3.6679    0.1570 N   0  0  0  0  0  0  0  0  0  0  0  0
    6.5394    3.1502    0.6904 S   0  0  0  0  0  0  0  0  0  0  0  0
    6.0726    1.6990    1.2318 N   0  0  0  0  0  0  0  0  0  0  0  0
    2.8379    2.7057    0.0118 C   0  0  0  0  0  0  0  0  0  0  0  0
    2.0338    3.5871   -0.7306 C   0  0  0  0  0  0  0  0  0  0  0  0
    2.1499    5.1268   -1.5063 S   0  0  0  0  0  0  0  0  0  0  0  0
    0.5053    4.9419   -2.0731 C   0  0  0  0  0  0  0  0  0  0  0  0
   -0.3244    5.7517   -2.8519 C   0  0  0  0  0  0  0  0  0  0  0  0
    0.1184    7.0269   -3.4851 C   0  0  0  0  0  0  0  0  0  0  0  0
    0.4987    6.7890   -4.9490 C   0  0  0  0  0  0  0  0  0  0  0  0
   -1.5672    5.1582   -3.0558 C   0  0  0  0  0  0  0  0  0  0  0  0
   -1.7102    3.6121   -2.2166 S   0  0  0  0  0  0  0  0  0  0  0  0
   -0.0868    3.7406   -1.6587 C   0  0  0  0  0  0  0  0  0  0  0  0
    0.7896    2.9629   -0.9031 C   0  0  0  0  0  0  0  0  0  0  0  0
    0.7858    1.7319   -0.2941 N   0  0  0  0  0  0  0  0  0  0  0  0
    2.0254    1.5766    0.2992 C   0  0  0  0  0  0  0  0  0  0  0  0
    2.5338    0.5490    1.1203 C   0  0  0  0  0  0  0  0  0  0  0  0
    1.9074   -0.5318    1.7102 N   0  0  0  0  0  0  0  0  0  0  0  0
    2.8885   -1.2994    2.2857 C   0  0  0  0  0  0  0  0  0  0  0  0
    2.9874   -2.5133    2.9670 C   0  0  0  0  0  0  0  0  0  0  0  0
    1.9121   -3.7651    3.4614 S   0  0  0  0  0  0  0  0  0  0  0  0
    0.5442   -0.5812    2.1989 C   0  0  0  0  0  0  0  0  0  0  0  0
    0.4857   -0.3218    3.7041 C   0  0  0  0  0  0  0  0  0  0  0  0
   -0.0570    0.6729   -0.8205 C   0  0  0  0  0  0  0  0  0  0  0  0
    0.2130    0.4305   -2.3054 C   0  0  0  0  0  0  0  0  0  0  0  0
   -2.6539    5.7223   -3.7522 C   0  0  0  0  0  0  0  0  0  0  0  0
   -3.7893    5.1221   -4.2111 C   0  0  0  0  0  0  0  0  0  0  0  0
   -5.0054    5.9378   -4.4575 C   0  0  0  0  0  0  0  0  0  0  0  0
   -5.0704    7.1440   -4.5341 O   0  0  0  0  0  0  0  0  0  0  0  0
   -6.1133    4.9603   -4.5228 C   0  0  0  0  0  0  0  0  0  0  0  0
   -7.4710    5.1949   -4.6178 C   0  0  0  0  0  0  0  0  0  0  0  0
   -8.3519    4.1189   -4.6347 C   0  0  0  0  0  0  0  0  0  0  0  0
   -9.8312    4.2989   -4.7352 C   0  0  0  0  0  0  0  0  0  0  0  0
   -7.8077    2.8353   -4.5522 C   0  0  0  0  0  0  0  0  0  0  0  0
   -8.6561    1.7900   -4.5505 F   0  0  0  0  0  0  0  0  0  0  0  0
   -6.4504    2.5698   -4.4702 C   0  0  0  0  0  0  0  0  0  0  0  0
   -5.5916    3.6557   -4.4562 C   0  0  0  0  0  0  0  0  0  0  0  0
   -4.1338    3.7344   -4.4209 C   0  0  0  0  0  0  0  0  0  0  0  0
   -3.2744    2.7359   -4.8004 C   0  0  0  0  0  0  0  0  0  0  0  0
   -3.6702    1.4063   -5.0420 C   0  0  0  0  0  0  0  0  0  0  0  0
   -3.9365    0.3034   -5.2170 N   0  0  0  0  0  0  0  0  0  0  0  0
   -1.9085    2.9611   -5.0697 C   0  0  0  0  0  0  0  0  0  0  0  0
   -0.8060    3.1216   -5.3481 N   0  0  0  0  0  0  0  0  0  0  0  0
    3.7614   -6.2515    5.4648 H   0  0  0  0  0  0  0  0  0  0  0  0
   -1.8593   -7.9350    2.7525 H   0  0  0  0  0  0  0  0  0  0  0  0
   -0.3861  -11.1142    6.7683 H   0  0  0  0  0  0  0  0  0  0  0  0
   -1.1727   -9.8361    7.6889 H   0  0  0  0  0  0  0  0  0  0  0  0
    0.5913   -9.8135    7.4760 H   0  0  0  0  0  0  0  0  0  0  0  0
    6.5616   -4.2607    3.6626 H   0  0  0  0  0  0  0  0  0  0  0  0
    5.7918   -5.6648    4.4152 H   0  0  0  0  0  0  0  0  0  0  0  0
    6.1950   -2.9269    5.7289 H   0  0  0  0  0  0  0  0  0  0  0  0
    5.4130   -4.3108    6.4989 H   0  0  0  0  0  0  0  0  0  0  0  0
    7.1263   -4.3854    6.0783 H   0  0  0  0  0  0  0  0  0  0  0  0
    0.9855    7.4044   -2.9399 H   0  0  0  0  0  0  0  0  0  0  0  0
   -0.6784    7.7717   -3.4322 H   0  0  0  0  0  0  0  0  0  0  0  0
    0.8345    7.7175   -5.4028 H   0  0  0  0  0  0  0  0  0  0  0  0
    1.2997    6.0573   -5.0160 H   0  0  0  0  0  0  0  0  0  0  0  0
   -0.3545    6.4118   -5.5077 H   0  0  0  0  0  0  0  0  0  0  0  0
    0.1239   -1.5673    1.9754 H   0  0  0  0  0  0  0  0  0  0  0  0
   -0.0397    0.1881    1.6969 H   0  0  0  0  0  0  0  0  0  0  0  0
   -0.5510   -0.3110    4.0286 H   0  0  0  0  0  0  0  0  0  0  0  0
    0.9354    0.6412    3.9372 H   0  0  0  0  0  0  0  0  0  0  0  0
    1.0106   -1.0958    4.2566 H   0  0  0  0  0  0  0  0  0  0  0  0
    0.1501   -0.2500   -0.2831 H   0  0  0  0  0  0  0  0  0  0  0  0
   -1.1037    0.9571   -0.6724 H   0  0  0  0  0  0  0  0  0  0  0  0
    1.2573    0.1677   -2.4590 H   0  0  0  0  0  0  0  0  0  0  0  0
   -0.4075   -0.3899   -2.6549 H   0  0  0  0  0  0  0  0  0  0  0  0
   -0.0146    1.3090   -2.9030 H   0  0  0  0  0  0  0  0  0  0  0  0
   -2.6317    6.8023   -3.8649 H   0  0  0  0  0  0  0  0  0  0  0  0
   -7.8382    6.2080   -4.6790 H   0  0  0  0  0  0  0  0  0  0  0  0
  -10.0895    5.3520   -4.7941 H   0  0  0  0  0  0  0  0  0  0  0  0
  -10.2125    3.7874   -5.6183 H   0  0  0  0  0  0  0  0  0  0  0  0
  -10.3233    3.8581   -3.8687 H   0  0  0  0  0  0  0  0  0  0  0  0
   -6.1083    1.5495   -4.4092 H   0  0  0  0  0  0  0  0  0  0  0  0
  1  2  2  0  0  0  0
  2  3  1  0  0  0  0
  3  4  2  0  0  0  0
  3  5  1  0  0  0  0
  5  6  1  0  0  0  0
  6  7  2  0  0  0  0
  7  8  1  0  0  0  0
  8  9  1  0  0  0  0
  9 10  1  0  0  0  0
  6 11  1  0  0  0  0
 11 12  2  0  0  0  0
 12 13  1  0  0  0  0
 13 14  3  0  0  0  0
 12 15  1  0  0  0  0
 15 16  3  0  0  0  0
  1 17  1  0  0  0  0
 17 18  2  0  0  0  0
 18 19  1  0  0  0  0
 19 20  1  0  0  0  0
 18 21  1  0  0  0  0
 21 22  1  0  0  0  0
 22 23  1  0  0  0  0
 23 24  1  0  0  0  0
 24 25  1  0  0  0  0
 25 26  1  0  0  0  0
 26 27  2  0  0  0  0
 27 28  1  0  0  0  0
 28 29  1  0  0  0  0
 26 30  1  0  0  0  0
 30 31  1  0  0  0  0
 31 32  1  0  0  0  0
 32 33  1  0  0  0  0
 33 34  1  0  0  0  0
 34 35  1  0  0  0  0
 35 36  1  0  0  0  0
 34 37  2  0  0  0  0
 37 38  1  0  0  0  0
 38 39  1  0  0  0  0
 39 40  1  0  0  0  0
 40 41  1  0  0  0  0
 41 42  1  0  0  0  0
 42 43  1  0  0  0  0
 43 44  1  0  0  0  0
 44 45  1  0  0  0  0
 45 46  1  0  0  0  0
 46 47  1  0  0  0  0
 44 48  1  0  0  0  0
 48 49  1  0  0  0  0
 41 50  1  0  0  0  0
 50 51  1  0  0  0  0
 37 52  1  0  0  0  0
 52 53  2  0  0  0  0
 53 54  1  0  0  0  0
 54 55  2  0  0  0  0
 54 56  1  0  0  0  0
 56 57  2  0  0  0  0
 57 58  1  0  0  0  0
 58 59  1  0  0  0  0
 58 60  2  0  0  0  0
 60 61  1  0  0  0  0
 60 62  1  0  0  0  0
 62 63  2  0  0  0  0
 63 64  1  0  0  0  0
 64 65  2  0  0  0  0
 65 66  1  0  0  0  0
 66 67  3  0  0  0  0
 65 68  1  0  0  0  0
 68 69  3  0  0  0  0
 11  2  1  0  0  0  0
 47 17  1  0  0  0  0
 64 53  1  0  0  0  0
  9  5  2  0  0  0  0
 46 21  2  0  0  0  0
 63 56  1  0  0  0  0
 45 23  2  0  0  0  0
 43 24  2  0  0  0  0
 29 25  2  0  0  0  0
 42 30  2  0  0  0  0
 40 31  2  0  0  0  0
 39 33  2  0  0  0  0
  1 70  1  0  0  0  0
  7 71  1  0  0  0  0
 10 72  1  0  0  0  0
 10 73  1  0  0  0  0
 10 74  1  0  0  0  0
 19 75  1  0  0  0  0
 19 76  1  0  0  0  0
 20 77  1  0  0  0  0
 20 78  1  0  0  0  0
 20 79  1  0  0  0  0
 35 80  1  0  0  0  0
 35 81  1  0  0  0  0
 36 82  1  0  0  0  0
 36 83  1  0  0  0  0
 36 84  1  0  0  0  0
 48 85  1  0  0  0  0
 48 86  1  0  0  0  0
 49 87  1  0  0  0  0
 49 88  1  0  0  0  0
 49 89  1  0  0  0  0
 50 90  1  0  0  0  0
 50 91  1  0  0  0  0
 51 92  1  0  0  0  0
 51 93  1  0  0  0  0
 51 94  1  0  0  0  0
 52 95  1  0  0  0  0
 57 96  1  0  0  0  0
 59 97  1  0  0  0  0
 59 98  1  0  0  0  0
 59 99  1  0  0  0  0
 62100  1  0  0  0  0
M  END
