
  xtb     02012222383D
 energy: -169.313895547190 gnorm: 0.000316904573 xtb: 6.4.1 (unknown)
 86 95  0     0  0            999 V2000
    2.5668    1.3467    5.7404 C   0  0  0  0  0  0  0  0  0  0  0  0
    2.4922    2.6793    6.0572 C   0  0  0  0  0  0  0  0  0  0  0  0
    3.2898    3.1599    7.2138 C   0  0  0  0  0  0  0  0  0  0  0  0
    3.8629    2.4818    8.0301 O   0  0  0  0  0  0  0  0  0  0  0  0
    3.2565    4.6418    7.1140 C   0  0  0  0  0  0  0  0  0  0  0  0
    2.4148    5.0194    6.0527 C   0  0  0  0  0  0  0  0  0  0  0  0
    2.2435    6.3532    5.7270 C   0  0  0  0  0  0  0  0  0  0  0  0
    2.9207    7.3010    6.4815 C   0  0  0  0  0  0  0  0  0  0  0  0
    2.7799    8.5933    6.1770 F   0  0  0  0  0  0  0  0  0  0  0  0
    3.7467    6.9462    7.5452 C   0  0  0  0  0  0  0  0  0  0  0  0
    4.3755    7.8891    8.2512 F   0  0  0  0  0  0  0  0  0  0  0  0
    3.9173    5.5967    7.8656 C   0  0  0  0  0  0  0  0  0  0  0  0
    4.7102    5.2628    8.8780 F   0  0  0  0  0  0  0  0  0  0  0  0
    1.8219    3.8094    5.4708 C   0  0  0  0  0  0  0  0  0  0  0  0
    0.6804    3.8098    4.7064 C   0  0  0  0  0  0  0  0  0  0  0  0
    0.0553    4.9739    4.2141 C   0  0  0  0  0  0  0  0  0  0  0  0
   -0.4811    5.8759    3.7487 N   0  0  0  0  0  0  0  0  0  0  0  0
   -0.0621    2.6653    4.3578 C   0  0  0  0  0  0  0  0  0  0  0  0
   -0.7371    1.7907    4.0446 N   0  0  0  0  0  0  0  0  0  0  0  0
    2.2289    0.6756    4.5572 C   0  0  0  0  0  0  0  0  0  0  0  0
    2.0475   -1.0821    4.6170 S   0  0  0  0  0  0  0  0  0  0  0  0
    1.6010   -1.0952    2.9676 C   0  0  0  0  0  0  0  0  0  0  0  0
    1.1139   -1.9700    1.9929 C   0  0  0  0  0  0  0  0  0  0  0  0
    0.7370   -3.3263    2.0574 C   0  0  0  0  0  0  0  0  0  0  0  0
    0.8095   -4.2422    3.0247 N   0  0  0  0  0  0  0  0  0  0  0  0
    0.2251   -5.2944    2.5101 N   0  0  0  0  0  0  0  0  0  0  0  0
    0.0481   -6.5014    3.2642 C   0  0  0  0  0  0  0  0  0  0  0  0
   -1.2497   -6.4437    4.0648 C   0  0  0  0  0  0  0  0  0  0  0  0
   -0.2356   -5.1722    1.2912 N   0  0  0  0  0  0  0  0  0  0  0  0
    0.0724   -3.9188    0.9525 C   0  0  0  0  0  0  0  0  0  0  0  0
   -0.1032   -3.1762   -0.2317 C   0  0  0  0  0  0  0  0  0  0  0  0
   -0.6827   -3.5012   -1.4614 C   0  0  0  0  0  0  0  0  0  0  0  0
   -1.5474   -4.7683   -2.2165 S   0  0  0  0  0  0  0  0  0  0  0  0
   -1.7229   -3.7861   -3.6732 C   0  0  0  0  0  0  0  0  0  0  0  0
   -1.0746   -2.5617   -3.5677 C   0  0  0  0  0  0  0  0  0  0  0  0
   -0.4950   -2.3995   -2.3146 C   0  0  0  0  0  0  0  0  0  0  0  0
    0.1696   -1.4059   -1.6468 N   0  0  0  0  0  0  0  0  0  0  0  0
    0.8061   -0.3368   -2.3831 C   0  0  0  0  0  0  0  0  0  0  0  0
    2.3265   -0.3885   -2.2526 C   0  0  0  0  0  0  0  0  0  0  0  0
    0.3881   -1.8391   -0.3452 C   0  0  0  0  0  0  0  0  0  0  0  0
    0.9004   -1.1982    0.8098 C   0  0  0  0  0  0  0  0  0  0  0  0
    1.2520    0.1205    1.0775 N   0  0  0  0  0  0  0  0  0  0  0  0
    1.6523    0.1861    2.3871 C   0  0  0  0  0  0  0  0  0  0  0  0
    2.0125    1.1850    3.2801 C   0  0  0  0  0  0  0  0  0  0  0  0
    0.7998    1.3315    0.4233 C   0  0  0  0  0  0  0  0  0  0  0  0
   -0.7235    1.4056    0.3742 C   0  0  0  0  0  0  0  0  0  0  0  0
   -2.4509   -4.3284   -4.7480 C   0  0  0  0  0  0  0  0  0  0  0  0
   -3.0006   -3.7217   -5.8427 C   0  0  0  0  0  0  0  0  0  0  0  0
   -3.3601   -4.5707   -7.0085 C   0  0  0  0  0  0  0  0  0  0  0  0
   -3.4013   -5.7781   -7.0443 O   0  0  0  0  0  0  0  0  0  0  0  0
   -3.6060   -3.6224   -8.1186 C   0  0  0  0  0  0  0  0  0  0  0  0
   -3.8752   -3.8984   -9.4427 C   0  0  0  0  0  0  0  0  0  0  0  0
   -4.0417   -2.8165  -10.2976 C   0  0  0  0  0  0  0  0  0  0  0  0
   -4.4161   -3.1321  -12.1331 Br  0  0  0  0  0  0  0  0  0  0  0  0
   -3.9373   -1.5078   -9.8454 C   0  0  0  0  0  0  0  0  0  0  0  0
   -3.6759   -1.2405   -8.5098 C   0  0  0  0  0  0  0  0  0  0  0  0
   -3.5135   -2.3048   -7.6358 C   0  0  0  0  0  0  0  0  0  0  0  0
   -3.2795   -2.3482   -6.1912 C   0  0  0  0  0  0  0  0  0  0  0  0
   -3.5409   -1.3081   -5.3348 C   0  0  0  0  0  0  0  0  0  0  0  0
   -3.5953   -1.4201   -3.9318 C   0  0  0  0  0  0  0  0  0  0  0  0
   -3.6818   -1.4430   -2.7872 N   0  0  0  0  0  0  0  0  0  0  0  0
   -3.8603   -0.0015   -5.7568 C   0  0  0  0  0  0  0  0  0  0  0  0
   -4.0874    1.0884   -6.0377 N   0  0  0  0  0  0  0  0  0  0  0  0
    3.0040    0.7323    6.5222 H   0  0  0  0  0  0  0  0  0  0  0  0
    1.6188    6.6863    4.9148 H   0  0  0  0  0  0  0  0  0  0  0  0
    0.9050   -6.6007    3.9331 H   0  0  0  0  0  0  0  0  0  0  0  0
    0.0236   -7.3298    2.5540 H   0  0  0  0  0  0  0  0  0  0  0  0
   -2.0982   -6.3276    3.3951 H   0  0  0  0  0  0  0  0  0  0  0  0
   -1.3738   -7.3609    4.6330 H   0  0  0  0  0  0  0  0  0  0  0  0
   -1.2267   -5.6033    4.7542 H   0  0  0  0  0  0  0  0  0  0  0  0
   -1.0208   -1.8610   -4.3814 H   0  0  0  0  0  0  0  0  0  0  0  0
    0.4050    0.6327   -2.0821 H   0  0  0  0  0  0  0  0  0  0  0  0
    0.5360   -0.4793   -3.4313 H   0  0  0  0  0  0  0  0  0  0  0  0
    2.7014   -1.3295   -2.6493 H   0  0  0  0  0  0  0  0  0  0  0  0
    2.6393   -0.3117   -1.2145 H   0  0  0  0  0  0  0  0  0  0  0  0
    2.7741    0.4265   -2.8152 H   0  0  0  0  0  0  0  0  0  0  0  0
    2.1619    2.2221    3.0396 H   0  0  0  0  0  0  0  0  0  0  0  0
    1.1770    2.1644    1.0191 H   0  0  0  0  0  0  0  0  0  0  0  0
    1.2450    1.4221   -0.5668 H   0  0  0  0  0  0  0  0  0  0  0  0
   -1.0340    2.3329   -0.0996 H   0  0  0  0  0  0  0  0  0  0  0  0
   -1.1232    1.3827    1.3859 H   0  0  0  0  0  0  0  0  0  0  0  0
   -1.1439    0.5705   -0.1807 H   0  0  0  0  0  0  0  0  0  0  0  0
   -2.5577   -5.4095   -4.7416 H   0  0  0  0  0  0  0  0  0  0  0  0
   -3.9536   -4.9169   -9.7899 H   0  0  0  0  0  0  0  0  0  0  0  0
   -4.0634   -0.6919  -10.5404 H   0  0  0  0  0  0  0  0  0  0  0  0
   -3.5949   -0.2177   -8.1797 H   0  0  0  0  0  0  0  0  0  0  0  0
  1  2  2  0  0  0  0
  2  3  1  0  0  0  0
  3  4  2  0  0  0  0
  3  5  1  0  0  0  0
  5  6  2  0  0  0  0
  6  7  1  0  0  0  0
  7  8  2  0  0  0  0
  8  9  1  0  0  0  0
  8 10  1  0  0  0  0
 10 11  1  0  0  0  0
 10 12  2  0  0  0  0
 12 13  1  0  0  0  0
  6 14  1  0  0  0  0
 14 15  2  0  0  0  0
 15 16  1  0  0  0  0
 16 17  3  0  0  0  0
 15 18  1  0  0  0  0
 18 19  3  0  0  0  0
  1 20  1  0  0  0  0
 20 21  1  0  0  0  0
 21 22  1  0  0  0  0
 22 23  1  0  0  0  0
 23 24  1  0  0  0  0
 24 25  2  0  0  0  0
 25 26  1  0  0  0  0
 26 27  1  0  0  0  0
 27 28  1  0  0  0  0
 26 29  1  0  0  0  0
 29 30  2  0  0  0  0
 30 31  1  0  0  0  0
 31 32  1  0  0  0  0
 32 33  1  0  0  0  0
 33 34  1  0  0  0  0
 34 35  2  0  0  0  0
 35 36  1  0  0  0  0
 36 37  1  0  0  0  0
 37 38  1  0  0  0  0
 38 39  1  0  0  0  0
 37 40  1  0  0  0  0
 40 41  1  0  0  0  0
 41 42  1  0  0  0  0
 42 43  1  0  0  0  0
 43 44  1  0  0  0  0
 42 45  1  0  0  0  0
 45 46  1  0  0  0  0
 34 47  1  0  0  0  0
 47 48  2  0  0  0  0
 48 49  1  0  0  0  0
 49 50  2  0  0  0  0
 49 51  1  0  0  0  0
 51 52  2  0  0  0  0
 52 53  1  0  0  0  0
 53 54  1  0  0  0  0
 53 55  2  0  0  0  0
 55 56  1  0  0  0  0
 56 57  2  0  0  0  0
 57 58  1  0  0  0  0
 58 59  2  0  0  0  0
 59 60  1  0  0  0  0
 60 61  3  0  0  0  0
 59 62  1  0  0  0  0
 62 63  3  0  0  0  0
 14  2  1  0  0  0  0
 44 20  2  0  0  0  0
 58 48  1  0  0  0  0
 12  5  1  0  0  0  0
 43 22  2  0  0  0  0
 57 51  1  0  0  0  0
 41 23  2  0  0  0  0
 30 24  1  0  0  0  0
 40 31  2  0  0  0  0
 36 32  2  0  0  0  0
  1 64  1  0  0  0  0
  7 65  1  0  0  0  0
 27 66  1  0  0  0  0
 27 67  1  0  0  0  0
 28 68  1  0  0  0  0
 28 69  1  0  0  0  0
 28 70  1  0  0  0  0
 35 71  1  0  0  0  0
 38 72  1  0  0  0  0
 38 73  1  0  0  0  0
 39 74  1  0  0  0  0
 39 75  1  0  0  0  0
 39 76  1  0  0  0  0
 44 77  1  0  0  0  0
 45 78  1  0  0  0  0
 45 79  1  0  0  0  0
 46 80  1  0  0  0  0
 46 81  1  0  0  0  0
 46 82  1  0  0  0  0
 47 83  1  0  0  0  0
 52 84  1  0  0  0  0
 55 85  1  0  0  0  0
 56 86  1  0  0  0  0
M  END
