
  xtb     02022201313D
 energy: -161.131075106162 gnorm: 0.000609824280 xtb: 6.4.1 (unknown)
 75 83  0     0  0            999 V2000
   -3.2731    3.4469   -2.0953 C   0  0  0  0  0  0  0  0  0  0  0  0
   -3.1785    3.4437   -3.4615 C   0  0  0  0  0  0  0  0  0  0  0  0
   -2.2938    2.5770   -4.2549 C   0  0  0  0  0  0  0  0  0  0  0  0
   -1.5298    1.7293   -3.8473 O   0  0  0  0  0  0  0  0  0  0  0  0
   -2.5281    2.9561   -5.6672 C   0  0  0  0  0  0  0  0  0  0  0  0
   -3.4909    3.9797   -5.7276 C   0  0  0  0  0  0  0  0  0  0  0  0
   -3.8769    4.5086   -6.9479 C   0  0  0  0  0  0  0  0  0  0  0  0
   -3.2892    3.9989   -8.0969 C   0  0  0  0  0  0  0  0  0  0  0  0
   -3.6466    4.4952   -9.2819 F   0  0  0  0  0  0  0  0  0  0  0  0
   -2.3356    2.9831   -8.0537 C   0  0  0  0  0  0  0  0  0  0  0  0
   -1.7956    2.5197   -9.1819 F   0  0  0  0  0  0  0  0  0  0  0  0
   -1.9493    2.4543   -6.8200 C   0  0  0  0  0  0  0  0  0  0  0  0
   -1.0404    1.4872   -6.7789 F   0  0  0  0  0  0  0  0  0  0  0  0
   -3.9226    4.3001   -4.3655 C   0  0  0  0  0  0  0  0  0  0  0  0
   -4.8652    5.2390   -4.0409 C   0  0  0  0  0  0  0  0  0  0  0  0
   -5.3047    5.5535   -2.7361 C   0  0  0  0  0  0  0  0  0  0  0  0
   -5.7241    5.8717   -1.7158 N   0  0  0  0  0  0  0  0  0  0  0  0
   -5.5482    6.0400   -4.9828 C   0  0  0  0  0  0  0  0  0  0  0  0
   -6.1388    6.7230   -5.6907 N   0  0  0  0  0  0  0  0  0  0  0  0
   -2.6044    2.6784   -1.1247 C   0  0  0  0  0  0  0  0  0  0  0  0
   -1.4039    1.4287   -1.3983 S   0  0  0  0  0  0  0  0  0  0  0  0
   -1.2505    1.1742    0.3022 C   0  0  0  0  0  0  0  0  0  0  0  0
   -0.4087    0.2649    0.9482 C   0  0  0  0  0  0  0  0  0  0  0  0
   -0.3833    0.1828    2.3590 C   0  0  0  0  0  0  0  0  0  0  0  0
   -1.2382    1.0272    3.1296 C   0  0  0  0  0  0  0  0  0  0  0  0
   -1.3867    1.1035    4.5292 C   0  0  0  0  0  0  0  0  0  0  0  0
   -2.3175    2.0272    4.9248 C   0  0  0  0  0  0  0  0  0  0  0  0
   -2.6853    2.3174    6.3151 C   0  0  0  0  0  0  0  0  0  0  0  0
   -2.0862    1.8000    7.2318 O   0  0  0  0  0  0  0  0  0  0  0  0
   -3.8623    3.2422    6.5191 C   0  0  0  0  0  0  0  0  0  0  0  0
   -5.1639    2.4540    6.3489 C   0  0  0  0  0  0  0  0  0  0  0  0
   -3.0373    2.8446    3.5649 S   0  0  0  0  0  0  0  0  0  0  0  0
   -2.0791    1.9257    2.4655 C   0  0  0  0  0  0  0  0  0  0  0  0
   -2.0990    2.0237    1.0544 C   0  0  0  0  0  0  0  0  0  0  0  0
   -2.8517    2.8594    0.2318 C   0  0  0  0  0  0  0  0  0  0  0  0
    0.5300   -0.7744    2.7966 C   0  0  0  0  0  0  0  0  0  0  0  0
    1.1891   -1.4334    1.7648 C   0  0  0  0  0  0  0  0  0  0  0  0
    0.6742   -0.8548    0.1962 S   0  0  0  0  0  0  0  0  0  0  0  0
    2.1525   -2.4294    2.0308 C   0  0  0  0  0  0  0  0  0  0  0  0
    2.8637   -3.2252    1.1780 C   0  0  0  0  0  0  0  0  0  0  0  0
    2.7233   -3.2530   -0.2885 C   0  0  0  0  0  0  0  0  0  0  0  0
    2.0385   -2.5218   -0.9770 O   0  0  0  0  0  0  0  0  0  0  0  0
    3.5736   -4.3592   -0.7590 C   0  0  0  0  0  0  0  0  0  0  0  0
    3.7488   -4.8169   -2.0333 C   0  0  0  0  0  0  0  0  0  0  0  0
    4.6085   -5.9156   -2.2540 C   0  0  0  0  0  0  0  0  0  0  0  0
    4.8193   -6.4347   -3.5462 C   0  0  0  0  0  0  0  0  0  0  0  0
    5.6511   -7.5037   -3.7304 C   0  0  0  0  0  0  0  0  0  0  0  0
    5.8488   -7.9987   -4.9585 F   0  0  0  0  0  0  0  0  0  0  0  0
    6.3086   -8.0975   -2.6336 C   0  0  0  0  0  0  0  0  0  0  0  0
    7.1169   -9.1433   -2.8444 F   0  0  0  0  0  0  0  0  0  0  0  0
    6.1252   -7.6149   -1.3681 C   0  0  0  0  0  0  0  0  0  0  0  0
    5.2724   -6.5152   -1.1442 C   0  0  0  0  0  0  0  0  0  0  0  0
    5.0739   -6.0144    0.1626 C   0  0  0  0  0  0  0  0  0  0  0  0
    4.2338   -4.9489    0.3554 C   0  0  0  0  0  0  0  0  0  0  0  0
    3.8343   -4.2364    1.5663 C   0  0  0  0  0  0  0  0  0  0  0  0
    4.3243   -4.4758    2.8223 C   0  0  0  0  0  0  0  0  0  0  0  0
    3.9753   -3.7694    3.9935 C   0  0  0  0  0  0  0  0  0  0  0  0
    3.7520   -3.2407    4.9881 N   0  0  0  0  0  0  0  0  0  0  0  0
    5.2801   -5.4717    3.1203 C   0  0  0  0  0  0  0  0  0  0  0  0
    6.0509   -6.2635    3.4295 N   0  0  0  0  0  0  0  0  0  0  0  0
   -3.9691    4.1532   -1.6590 H   0  0  0  0  0  0  0  0  0  0  0  0
   -4.6080    5.2938   -7.0460 H   0  0  0  0  0  0  0  0  0  0  0  0
   -0.8423    0.5075    5.2386 H   0  0  0  0  0  0  0  0  0  0  0  0
   -3.8120    3.6455    7.5311 H   0  0  0  0  0  0  0  0  0  0  0  0
   -3.8290    4.0626    5.8002 H   0  0  0  0  0  0  0  0  0  0  0  0
   -5.2407    2.0425    5.3448 H   0  0  0  0  0  0  0  0  0  0  0  0
   -6.0166    3.1057    6.5207 H   0  0  0  0  0  0  0  0  0  0  0  0
   -5.2027    1.6357    7.0641 H   0  0  0  0  0  0  0  0  0  0  0  0
   -3.5581    3.5809    0.6037 H   0  0  0  0  0  0  0  0  0  0  0  0
    0.7196   -0.9960    3.8318 H   0  0  0  0  0  0  0  0  0  0  0  0
    2.3227   -2.5725    3.0912 H   0  0  0  0  0  0  0  0  0  0  0  0
    3.2358   -4.3488   -2.8595 H   0  0  0  0  0  0  0  0  0  0  0  0
    4.3237   -5.9916   -4.3958 H   0  0  0  0  0  0  0  0  0  0  0  0
    6.6364   -8.0807   -0.5401 H   0  0  0  0  0  0  0  0  0  0  0  0
    5.5891   -6.4929    0.9794 H   0  0  0  0  0  0  0  0  0  0  0  0
  1  2  2  0  0  0  0
  2  3  1  0  0  0  0
  3  4  2  0  0  0  0
  3  5  1  0  0  0  0
  5  6  2  0  0  0  0
  6  7  1  0  0  0  0
  7  8  2  0  0  0  0
  8  9  1  0  0  0  0
  8 10  1  0  0  0  0
 10 11  1  0  0  0  0
 10 12  2  0  0  0  0
 12 13  1  0  0  0  0
  6 14  1  0  0  0  0
 14 15  2  0  0  0  0
 15 16  1  0  0  0  0
 16 17  3  0  0  0  0
 15 18  1  0  0  0  0
 18 19  3  0  0  0  0
  1 20  1  0  0  0  0
 20 21  1  0  0  0  0
 21 22  1  0  0  0  0
 22 23  2  0  0  0  0
 23 24  1  0  0  0  0
 24 25  2  0  0  0  0
 25 26  1  0  0  0  0
 26 27  2  0  0  0  0
 27 28  1  0  0  0  0
 28 29  2  0  0  0  0
 28 30  1  0  0  0  0
 30 31  1  0  0  0  0
 27 32  1  0  0  0  0
 32 33  1  0  0  0  0
 33 34  2  0  0  0  0
 34 35  1  0  0  0  0
 24 36  1  0  0  0  0
 36 37  2  0  0  0  0
 37 38  1  0  0  0  0
 37 39  1  0  0  0  0
 39 40  2  0  0  0  0
 40 41  1  0  0  0  0
 41 42  2  0  0  0  0
 41 43  1  0  0  0  0
 43 44  2  0  0  0  0
 44 45  1  0  0  0  0
 45 46  2  0  0  0  0
 46 47  1  0  0  0  0
 47 48  1  0  0  0  0
 47 49  2  0  0  0  0
 49 50  1  0  0  0  0
 49 51  1  0  0  0  0
 51 52  2  0  0  0  0
 52 53  1  0  0  0  0
 53 54  2  0  0  0  0
 54 55  1  0  0  0  0
 55 56  2  0  0  0  0
 56 57  1  0  0  0  0
 57 58  3  0  0  0  0
 56 59  1  0  0  0  0
 59 60  3  0  0  0  0
 14  2  1  0  0  0  0
 35 20  2  0  0  0  0
 55 40  1  0  0  0  0
 12  5  1  0  0  0  0
 34 22  1  0  0  0  0
 54 43  1  0  0  0  0
 38 23  1  0  0  0  0
 52 45  1  0  0  0  0
 33 25  1  0  0  0  0
  1 61  1  0  0  0  0
  7 62  1  0  0  0  0
 26 63  1  0  0  0  0
 30 64  1  0  0  0  0
 30 65  1  0  0  0  0
 31 66  1  0  0  0  0
 31 67  1  0  0  0  0
 31 68  1  0  0  0  0
 35 69  1  0  0  0  0
 36 70  1  0  0  0  0
 39 71  1  0  0  0  0
 44 72  1  0  0  0  0
 46 73  1  0  0  0  0
 51 74  1  0  0  0  0
 53 75  1  0  0  0  0
M  END
