
  xtb     02112202443D
 energy: -234.778223139724 gnorm: 0.000209190385 xtb: 6.4.1 (unknown)
130146  0     0  0            999 V2000
    3.5744   -0.5625   -7.4441 C   0  0  0  0  0  0  0  0  0  0  0  0
    2.8616   -0.2388   -8.5602 C   0  0  0  0  0  0  0  0  0  0  0  0
    3.0813   -1.0183   -9.8045 C   0  0  0  0  0  0  0  0  0  0  0  0
    3.7514   -2.0139   -9.9245 O   0  0  0  0  0  0  0  0  0  0  0  0
    2.3277   -0.2859  -10.8537 C   0  0  0  0  0  0  0  0  0  0  0  0
    1.6199    0.7790  -10.2676 C   0  0  0  0  0  0  0  0  0  0  0  0
    0.8683    1.6427  -11.0449 C   0  0  0  0  0  0  0  0  0  0  0  0
    0.8254    1.4172  -12.4134 C   0  0  0  0  0  0  0  0  0  0  0  0
    0.1155    2.2430  -13.1852 F   0  0  0  0  0  0  0  0  0  0  0  0
    1.5040    0.3565  -13.0093 C   0  0  0  0  0  0  0  0  0  0  0  0
    1.4300    0.1686  -14.3292 F   0  0  0  0  0  0  0  0  0  0  0  0
    2.2672   -0.5061  -12.2184 C   0  0  0  0  0  0  0  0  0  0  0  0
    2.9182   -1.5120  -12.7924 F   0  0  0  0  0  0  0  0  0  0  0  0
    1.8362    0.7480   -8.8171 C   0  0  0  0  0  0  0  0  0  0  0  0
    1.0188    1.3625   -7.9019 C   0  0  0  0  0  0  0  0  0  0  0  0
    1.0670    1.1801   -6.5055 C   0  0  0  0  0  0  0  0  0  0  0  0
    0.9871    1.0637   -5.3662 N   0  0  0  0  0  0  0  0  0  0  0  0
   -0.0465    2.2194   -8.2502 C   0  0  0  0  0  0  0  0  0  0  0  0
   -0.9192    2.9309   -8.4723 N   0  0  0  0  0  0  0  0  0  0  0  0
    3.7383    0.1452   -6.2275 C   0  0  0  0  0  0  0  0  0  0  0  0
    4.0902    1.4559   -5.9116 C   0  0  0  0  0  0  0  0  0  0  0  0
    4.6924    2.4575   -6.7946 C   0  0  0  0  0  0  0  0  0  0  0  0
    4.2630    2.7474   -8.0861 C   0  0  0  0  0  0  0  0  0  0  0  0
    4.9006    3.7054   -8.8498 C   0  0  0  0  0  0  0  0  0  0  0  0
    5.9912    4.4096   -8.3575 C   0  0  0  0  0  0  0  0  0  0  0  0
    6.7036    5.4210   -9.2048 C   0  0  0  0  0  0  0  0  0  0  0  0
    7.8221    4.7504  -10.0060 C   0  0  0  0  0  0  0  0  0  0  0  0
    6.4322    4.1141   -7.0730 C   0  0  0  0  0  0  0  0  0  0  0  0
    5.7974    3.1614   -6.3050 C   0  0  0  0  0  0  0  0  0  0  0  0
    4.0174    1.6646   -4.5181 C   0  0  0  0  0  0  0  0  0  0  0  0
    4.1528    3.1073   -3.5369 S   0  0  0  0  0  0  0  0  0  0  0  0
    3.6182    2.2028   -2.1634 C   0  0  0  0  0  0  0  0  0  0  0  0
    3.2819    2.4088   -0.8155 C   0  0  0  0  0  0  0  0  0  0  0  0
    3.3972    3.5276    0.0409 C   0  0  0  0  0  0  0  0  0  0  0  0
    2.9522    3.4134    1.4035 C   0  0  0  0  0  0  0  0  0  0  0  0
    3.1647    4.5198    2.0966 N   0  0  0  0  0  0  0  0  0  0  0  0
    3.8587    5.6127    1.1250 S   0  0  0  0  0  0  0  0  0  0  0  0
    3.9150    4.7163   -0.2222 N   0  0  0  0  0  0  0  0  0  0  0  0
    2.2821    2.2361    1.8108 C   0  0  0  0  0  0  0  0  0  0  0  0
    1.5033    1.9481    2.9407 C   0  0  0  0  0  0  0  0  0  0  0  0
    1.0077    2.7036    4.4178 S   0  0  0  0  0  0  0  0  0  0  0  0
   -0.0946    1.3679    4.6957 C   0  0  0  0  0  0  0  0  0  0  0  0
   -1.0668    1.1327    5.6655 C   0  0  0  0  0  0  0  0  0  0  0  0
   -1.3550    2.0573    6.7579 C   0  0  0  0  0  0  0  0  0  0  0  0
   -2.6578    2.4749    7.0259 C   0  0  0  0  0  0  0  0  0  0  0  0
   -2.9095    3.3536    8.0591 C   0  0  0  0  0  0  0  0  0  0  0  0
   -1.8762    3.8380    8.8518 C   0  0  0  0  0  0  0  0  0  0  0  0
   -2.1563    4.8156    9.9541 C   0  0  0  0  0  0  0  0  0  0  0  0
   -2.1584    6.2461    9.4099 C   0  0  0  0  0  0  0  0  0  0  0  0
   -0.5758    3.4401    8.5650 C   0  0  0  0  0  0  0  0  0  0  0  0
   -0.3128    2.5668    7.5294 C   0  0  0  0  0  0  0  0  0  0  0  0
   -1.7556   -0.0731    5.4266 C   0  0  0  0  0  0  0  0  0  0  0  0
   -1.1980   -0.8736    3.9600 S   0  0  0  0  0  0  0  0  0  0  0  0
   -0.0460    0.3825    3.6975 C   0  0  0  0  0  0  0  0  0  0  0  0
    0.8780    0.7159    2.7033 C   0  0  0  0  0  0  0  0  0  0  0  0
    1.2719    0.2175    1.4909 N   0  0  0  0  0  0  0  0  0  0  0  0
    2.1397    1.1278    0.9269 C   0  0  0  0  0  0  0  0  0  0  0  0
    2.7781    1.1680   -0.3356 C   0  0  0  0  0  0  0  0  0  0  0  0
    2.8973    0.2161   -1.3307 N   0  0  0  0  0  0  0  0  0  0  0  0
    3.3810    0.8516   -2.4441 C   0  0  0  0  0  0  0  0  0  0  0  0
    3.6242    0.5421   -3.7828 C   0  0  0  0  0  0  0  0  0  0  0  0
    3.4710   -0.8447   -4.7874 S   0  0  0  0  0  0  0  0  0  0  0  0
    3.0735   -1.2115   -1.1738 C   0  0  0  0  0  0  0  0  0  0  0  0
    4.5461   -1.6033   -1.2949 C   0  0  0  0  0  0  0  0  0  0  0  0
    0.5401   -0.8693    0.8768 C   0  0  0  0  0  0  0  0  0  0  0  0
    0.8996   -2.2248    1.4838 C   0  0  0  0  0  0  0  0  0  0  0  0
   -2.7215   -0.5795    6.3039 C   0  0  0  0  0  0  0  0  0  0  0  0
   -3.5173   -1.6949    6.2055 C   0  0  0  0  0  0  0  0  0  0  0  0
   -3.5137   -2.6646    5.1086 C   0  0  0  0  0  0  0  0  0  0  0  0
   -2.7935   -2.6727    4.1222 O   0  0  0  0  0  0  0  0  0  0  0  0
   -4.5527   -3.6568    5.4231 C   0  0  0  0  0  0  0  0  0  0  0  0
   -4.9103   -4.7639    4.6581 C   0  0  0  0  0  0  0  0  0  0  0  0
   -5.9292   -5.5101    5.1992 C   0  0  0  0  0  0  0  0  0  0  0  0
   -6.5448   -5.1786    6.4131 C   0  0  0  0  0  0  0  0  0  0  0  0
   -6.1942   -4.0930    7.1811 C   0  0  0  0  0  0  0  0  0  0  0  0
   -5.1601   -3.3182    6.6487 C   0  0  0  0  0  0  0  0  0  0  0  0
   -4.5254   -2.1037    7.1633 C   0  0  0  0  0  0  0  0  0  0  0  0
   -4.8548   -1.4810    8.3406 C   0  0  0  0  0  0  0  0  0  0  0  0
   -5.8603   -1.9264    9.2242 C   0  0  0  0  0  0  0  0  0  0  0  0
   -6.6622   -2.2205    9.9921 N   0  0  0  0  0  0  0  0  0  0  0  0
   -4.2638   -0.3116    8.8633 C   0  0  0  0  0  0  0  0  0  0  0  0
   -3.8541    0.6322    9.3756 N   0  0  0  0  0  0  0  0  0  0  0  0
   -7.4958   -6.3469    6.3407 C   0  0  0  0  0  0  0  0  0  0  0  0
   -8.9565   -6.0615    5.9115 C   0  0  0  0  0  0  0  0  0  0  0  0
   -8.9187   -4.8209    5.0539 C   0  0  0  0  0  0  0  0  0  0  0  0
   -8.3338   -5.1390    3.9068 C   0  0  0  0  0  0  0  0  0  0  0  0
   -7.9645   -6.6005    3.9685 C   0  0  0  0  0  0  0  0  0  0  0  0
   -9.1226   -7.1363    4.8253 C   0  0  0  0  0  0  0  0  0  0  0  0
   -6.8064   -6.7187    4.9901 C   0  0  0  0  0  0  0  0  0  0  0  0
    4.0445   -1.5431   -7.4846 H   0  0  0  0  0  0  0  0  0  0  0  0
    0.3266    2.4805  -10.6379 H   0  0  0  0  0  0  0  0  0  0  0  0
    3.4092    2.2436   -8.5022 H   0  0  0  0  0  0  0  0  0  0  0  0
    4.5351    3.9153   -9.8452 H   0  0  0  0  0  0  0  0  0  0  0  0
    7.1320    6.1988   -8.5702 H   0  0  0  0  0  0  0  0  0  0  0  0
    5.9986    5.8895   -9.8940 H   0  0  0  0  0  0  0  0  0  0  0  0
    8.5430    4.2876   -9.3360 H   0  0  0  0  0  0  0  0  0  0  0  0
    7.4138    3.9786  -10.6547 H   0  0  0  0  0  0  0  0  0  0  0  0
    8.3391    5.4831  -10.6206 H   0  0  0  0  0  0  0  0  0  0  0  0
    7.2846    4.6397   -6.6679 H   0  0  0  0  0  0  0  0  0  0  0  0
    6.1769    2.9399   -5.3194 H   0  0  0  0  0  0  0  0  0  0  0  0
   -3.4700    2.1289    6.4025 H   0  0  0  0  0  0  0  0  0  0  0  0
   -3.9247    3.6624    8.2588 H   0  0  0  0  0  0  0  0  0  0  0  0
   -1.3946    4.7270   10.7308 H   0  0  0  0  0  0  0  0  0  0  0  0
   -3.1281    4.5969   10.3999 H   0  0  0  0  0  0  0  0  0  0  0  0
   -2.9218    6.3589    8.6433 H   0  0  0  0  0  0  0  0  0  0  0  0
   -2.3603    6.9562   10.2083 H   0  0  0  0  0  0  0  0  0  0  0  0
   -1.1934    6.4845    8.9679 H   0  0  0  0  0  0  0  0  0  0  0  0
    0.2409    3.8143    9.1654 H   0  0  0  0  0  0  0  0  0  0  0  0
    0.7008    2.2535    7.3272 H   0  0  0  0  0  0  0  0  0  0  0  0
    2.7220   -1.5030   -0.1896 H   0  0  0  0  0  0  0  0  0  0  0  0
    2.4885   -1.7263   -1.9427 H   0  0  0  0  0  0  0  0  0  0  0  0
    4.6522   -2.6703   -1.1196 H   0  0  0  0  0  0  0  0  0  0  0  0
    5.1403   -1.0671   -0.5577 H   0  0  0  0  0  0  0  0  0  0  0  0
    4.9326   -1.3785   -2.2849 H   0  0  0  0  0  0  0  0  0  0  0  0
    0.7101   -0.8468   -0.1996 H   0  0  0  0  0  0  0  0  0  0  0  0
   -0.5265   -0.6894    1.0502 H   0  0  0  0  0  0  0  0  0  0  0  0
    0.4244   -3.0166    0.9122 H   0  0  0  0  0  0  0  0  0  0  0  0
    1.9745   -2.3935    1.4923 H   0  0  0  0  0  0  0  0  0  0  0  0
    0.5410   -2.2827    2.5074 H   0  0  0  0  0  0  0  0  0  0  0  0
   -2.8453    0.0260    7.1933 H   0  0  0  0  0  0  0  0  0  0  0  0
   -4.4086   -4.9801    3.7278 H   0  0  0  0  0  0  0  0  0  0  0  0
   -6.6773   -3.8581    8.1145 H   0  0  0  0  0  0  0  0  0  0  0  0
   -7.4368   -7.0625    7.1584 H   0  0  0  0  0  0  0  0  0  0  0  0
   -9.6738   -6.0585    6.7277 H   0  0  0  0  0  0  0  0  0  0  0  0
   -9.2589   -3.8561    5.3817 H   0  0  0  0  0  0  0  0  0  0  0  0
   -8.0875   -4.4930    3.0845 H   0  0  0  0  0  0  0  0  0  0  0  0
   -7.7784   -7.0897    3.0159 H   0  0  0  0  0  0  0  0  0  0  0  0
   -8.9603   -8.1500    5.1892 H   0  0  0  0  0  0  0  0  0  0  0  0
  -10.0842   -7.0772    4.3176 H   0  0  0  0  0  0  0  0  0  0  0  0
   -6.2930   -7.6763    4.9273 H   0  0  0  0  0  0  0  0  0  0  0  0
  1  2  2  0  0  0  0
  2  3  1  0  0  0  0
  3  4  2  0  0  0  0
  3  5  1  0  0  0  0
  5  6  2  0  0  0  0
  6  7  1  0  0  0  0
  7  8  2  0  0  0  0
  8  9  1  0  0  0  0
  8 10  1  0  0  0  0
 10 11  1  0  0  0  0
 10 12  2  0  0  0  0
 12 13  1  0  0  0  0
  6 14  1  0  0  0  0
 14 15  2  0  0  0  0
 15 16  1  0  0  0  0
 16 17  3  0  0  0  0
 15 18  1  0  0  0  0
 18 19  3  0  0  0  0
  1 20  1  0  0  0  0
 20 21  2  0  0  0  0
 21 22  1  0  0  0  0
 22 23  2  0  0  0  0
 23 24  1  0  0  0  0
 24 25  2  0  0  0  0
 25 26  1  0  0  0  0
 26 27  1  0  0  0  0
 25 28  1  0  0  0  0
 28 29  2  0  0  0  0
 21 30  1  0  0  0  0
 30 31  1  0  0  0  0
 31 32  1  0  0  0  0
 32 33  1  0  0  0  0
 33 34  1  0  0  0  0
 34 35  1  0  0  0  0
 35 36  2  0  0  0  0
 36 37  1  0  0  0  0
 37 38  1  0  0  0  0
 35 39  1  0  0  0  0
 39 40  1  0  0  0  0
 40 41  1  0  0  0  0
 41 42  1  0  0  0  0
 42 43  1  0  0  0  0
 43 44  1  0  0  0  0
 44 45  2  0  0  0  0
 45 46  1  0  0  0  0
 46 47  2  0  0  0  0
 47 48  1  0  0  0  0
 48 49  1  0  0  0  0
 47 50  1  0  0  0  0
 50 51  2  0  0  0  0
 43 52  2  0  0  0  0
 52 53  1  0  0  0  0
 53 54  1  0  0  0  0
 54 55  1  0  0  0  0
 55 56  1  0  0  0  0
 56 57  1  0  0  0  0
 57 58  1  0  0  0  0
 58 59  1  0  0  0  0
 59 60  1  0  0  0  0
 60 61  1  0  0  0  0
 61 62  1  0  0  0  0
 59 63  1  0  0  0  0
 63 64  1  0  0  0  0
 56 65  1  0  0  0  0
 65 66  1  0  0  0  0
 52 67  1  0  0  0  0
 67 68  2  0  0  0  0
 68 69  1  0  0  0  0
 69 70  2  0  0  0  0
 69 71  1  0  0  0  0
 71 72  2  0  0  0  0
 72 73  1  0  0  0  0
 73 74  2  0  0  0  0
 74 75  1  0  0  0  0
 75 76  2  0  0  0  0
 76 77  1  0  0  0  0
 77 78  2  0  0  0  0
 78 79  1  0  0  0  0
 79 80  3  0  0  0  0
 78 81  1  0  0  0  0
 81 82  3  0  0  0  0
 74 83  1  0  0  0  0
 83 84  1  0  0  0  0
 84 85  1  0  0  0  0
 85 86  2  0  0  0  0
 86 87  1  0  0  0  0
 87 88  1  0  0  0  0
 87 89  1  0  0  0  0
 14  2  1  0  0  0  0
 62 20  1  0  0  0  0
 77 68  1  0  0  0  0
 89 83  1  0  0  0  0
 12  5  1  0  0  0  0
 29 22  1  0  0  0  0
 61 30  2  0  0  0  0
 76 71  1  0  0  0  0
 88 84  1  0  0  0  0
 60 32  2  0  0  0  0
 89 73  1  0  0  0  0
 58 33  2  0  0  0  0
 38 34  2  0  0  0  0
 57 39  2  0  0  0  0
 55 40  2  0  0  0  0
 54 42  2  0  0  0  0
 51 44  1  0  0  0  0
  1 90  1  0  0  0  0
  7 91  1  0  0  0  0
 23 92  1  0  0  0  0
 24 93  1  0  0  0  0
 26 94  1  0  0  0  0
 26 95  1  0  0  0  0
 27 96  1  0  0  0  0
 27 97  1  0  0  0  0
 27 98  1  0  0  0  0
 28 99  1  0  0  0  0
 29100  1  0  0  0  0
 45101  1  0  0  0  0
 46102  1  0  0  0  0
 48103  1  0  0  0  0
 48104  1  0  0  0  0
 49105  1  0  0  0  0
 49106  1  0  0  0  0
 49107  1  0  0  0  0
 50108  1  0  0  0  0
 51109  1  0  0  0  0
 63110  1  0  0  0  0
 63111  1  0  0  0  0
 64112  1  0  0  0  0
 64113  1  0  0  0  0
 64114  1  0  0  0  0
 65115  1  0  0  0  0
 65116  1  0  0  0  0
 66117  1  0  0  0  0
 66118  1  0  0  0  0
 66119  1  0  0  0  0
 67120  1  0  0  0  0
 72121  1  0  0  0  0
 75122  1  0  0  0  0
 83123  1  0  0  0  0
 84124  1  0  0  0  0
 85125  1  0  0  0  0
 86126  1  0  0  0  0
 87127  1  0  0  0  0
 88128  1  0  0  0  0
 88129  1  0  0  0  0
 89130  1  0  0  0  0
M  END
