130

C          3.57440       -0.56250       -7.44410
C          2.86160       -0.23880       -8.56020
C          3.08130       -1.01830       -9.80450
O          3.75140       -2.01390       -9.92450
C          2.32770       -0.28590      -10.85370
C          1.61990        0.77900      -10.26760
C          0.86830        1.64270      -11.04490
C          0.82540        1.41720      -12.41340
F          0.11550        2.24300      -13.18520
C          1.50400        0.35650      -13.00930
F          1.43000        0.16860      -14.32920
C          2.26720       -0.50610      -12.21840
F          2.91820       -1.51200      -12.79240
C          1.83620        0.74800       -8.81710
C          1.01880        1.36250       -7.90190
C          1.06700        1.18010       -6.50550
N          0.98710        1.06370       -5.36620
C         -0.04650        2.21940       -8.25020
N         -0.91920        2.93090       -8.47230
C          3.73830        0.14520       -6.22750
C          4.09020        1.45590       -5.91160
C          4.69240        2.45750       -6.79460
C          4.26300        2.74740       -8.08610
C          4.90060        3.70540       -8.84980
C          5.99120        4.40960       -8.35750
C          6.70360        5.42100       -9.20480
C          7.82210        4.75040      -10.00600
C          6.43220        4.11410       -7.07300
C          5.79740        3.16140       -6.30500
C          4.01740        1.66460       -4.51810
S          4.15280        3.10730       -3.53690
C          3.61820        2.20280       -2.16340
C          3.28190        2.40880       -0.81550
C          3.39720        3.52760        0.04090
C          2.95220        3.41340        1.40350
N          3.16470        4.51980        2.09660
S          3.85870        5.61270        1.12500
N          3.91500        4.71630       -0.22220
C          2.28210        2.23610        1.81080
C          1.50330        1.94810        2.94070
S          1.00770        2.70360        4.41780
C         -0.09460        1.36790        4.69570
C         -1.06680        1.13270        5.66550
C         -1.35500        2.05730        6.75790
C         -2.65780        2.47490        7.02590
C         -2.90950        3.35360        8.05910
C         -1.87620        3.83800        8.85180
C         -2.15630        4.81560        9.95410
C         -2.15840        6.24610        9.40990
C         -0.57580        3.44010        8.56500
C         -0.31280        2.56680        7.52940
C         -1.75560       -0.07310        5.42660
S         -1.19800       -0.87360        3.96000
C         -0.04600        0.38250        3.69750
C          0.87800        0.71590        2.70330
N          1.27190        0.21750        1.49090
C          2.13970        1.12780        0.92690
C          2.77810        1.16800       -0.33560
N          2.89730        0.21610       -1.33070
C          3.38100        0.85160       -2.44410
C          3.62420        0.54210       -3.78280
S          3.47100       -0.84470       -4.78740
C          3.07350       -1.21150       -1.17380
C          4.54610       -1.60330       -1.29490
C          0.54010       -0.86930        0.87680
C          0.89960       -2.22480        1.48380
C         -2.72150       -0.57950        6.30390
C         -3.51730       -1.69490        6.20550
C         -3.51370       -2.66460        5.10860
O         -2.79350       -2.67270        4.12220
C         -4.55270       -3.65680        5.42310
C         -4.91030       -4.76390        4.65810
C         -5.92920       -5.51010        5.19920
C         -6.54480       -5.17860        6.41310
C         -6.19420       -4.09300        7.18110
C         -5.16010       -3.31820        6.64870
C         -4.52540       -2.10370        7.16330
C         -4.85480       -1.48100        8.34060
C         -5.86030       -1.92640        9.22420
N         -6.66220       -2.22050        9.99210
C         -4.26380       -0.31160        8.86330
N         -3.85410        0.63220        9.37560
C         -7.49580       -6.34690        6.34070
C         -8.95650       -6.06150        5.91150
C         -8.91870       -4.82090        5.05390
C         -8.33380       -5.13900        3.90680
C         -7.96450       -6.60050        3.96850
C         -9.12260       -7.13630        4.82530
C         -6.80640       -6.71870        4.99010
H          4.04450       -1.54310       -7.48460
H          0.32660        2.48050      -10.63790
H          3.40920        2.24360       -8.50220
H          4.53510        3.91530       -9.84520
H          7.13200        6.19880       -8.57020
H          5.99860        5.88950       -9.89400
H          8.54300        4.28760       -9.33600
H          7.41380        3.97860      -10.65470
H          8.33910        5.48310      -10.62060
H          7.28460        4.63970       -6.66790
H          6.17690        2.93990       -5.31940
H         -3.47000        2.12890        6.40250
H         -3.92470        3.66240        8.25880
H         -1.39460        4.72700       10.73080
H         -3.12810        4.59690       10.39990
H         -2.92180        6.35890        8.64330
H         -2.36030        6.95620       10.20830
H         -1.19340        6.48450        8.96790
H          0.24090        3.81430        9.16540
H          0.70080        2.25350        7.32720
H          2.72200       -1.50300       -0.18960
H          2.48850       -1.72630       -1.94270
H          4.65220       -2.67030       -1.11960
H          5.14030       -1.06710       -0.55770
H          4.93260       -1.37850       -2.28490
H          0.71010       -0.84680       -0.19960
H         -0.52650       -0.68940        1.05020
H          0.42440       -3.01660        0.91220
H          1.97450       -2.39350        1.49230
H          0.54100       -2.28270        2.50740
H         -2.84530        0.02600        7.19330
H         -4.40860       -4.98010        3.72780
H         -6.67730       -3.85810        8.11450
H         -7.43680       -7.06250        7.15840
H         -9.67380       -6.05850        6.72770
H         -9.25890       -3.85610        5.38170
H         -8.08750       -4.49300        3.08450
H         -7.77840       -7.08970        3.01590
H         -8.96030       -8.15000        5.18920
H        -10.08420       -7.07720        4.31760
H         -6.29300       -7.67630        4.92730
