94

C         -5.89630        2.71150        1.69440
C         -7.21940        2.84930        1.33550
C         -7.83570        2.40790        0.08120
O         -7.31420        1.81670       -0.84010
C         -9.25440        2.83580        0.16250
C         -9.48130        3.47780        1.39220
C        -10.73570        3.97260        1.70530
C        -11.75170        3.81460        0.77310
F        -12.96870        4.28650        1.05450
C        -11.54300        3.17990       -0.44880
F        -12.54760        3.04820       -1.31900
C        -10.27470        2.68270       -0.75850
F        -10.07830        2.07890       -1.92590
C         -8.22700        3.48970        2.15020
C         -8.08340        4.01270        3.41190
C         -6.89630        4.02660        4.17290
N         -5.97710        4.08280        4.86140
C         -9.12520        4.61850        4.14570
N         -9.92260        5.12100        4.80100
C         -4.81070        2.11720        1.04720
S         -4.92340        1.25450       -0.48930
C         -3.26230        0.89550       -0.37680
C         -2.31150        0.16300       -1.09490
C         -2.46770       -0.69510       -2.20550
C         -1.35230       -1.49220       -2.61770
N         -1.65300       -2.30640       -3.61820
S         -3.20690       -2.08140       -4.00950
N         -3.55520       -0.94200       -2.91820
C         -0.10540       -1.29070       -1.98660
C          1.15250       -1.84150       -2.26340
S          1.86450       -3.00980       -3.31430
C          3.43880       -2.62540       -2.64990
C          4.72230       -3.13600       -2.88070
C          5.07130       -4.10440       -3.95740
C          4.35780       -3.82570       -5.27780
C          5.65900       -2.52370       -2.04470
S          4.94110       -1.25830       -1.04320
C          3.37970       -1.62430       -1.66450
C          2.07360       -1.18610       -1.43900
N          1.43260       -0.27760       -0.63540
C          0.07690       -0.33320       -0.94420
C         -1.07390        0.30460       -0.40840
N         -1.28770        1.06860        0.72640
C         -2.62320        1.43270        0.76110
C         -3.50310        2.12440        1.59340
C         -3.18010        2.86080        2.85830
C         -3.05930        4.36730        2.60180
C         -0.41520        1.14410        1.87600
C          0.23130        2.52070        2.04600
C          2.21400        0.83340       -0.12960
C          2.17440        2.01300       -1.09840
C          7.04780       -2.68940       -1.91880
C          7.76740       -3.84970       -2.07350
C          7.19810       -5.20410       -1.93500
O          6.03820       -5.51100       -1.77740
C          8.37310       -6.11260       -1.89480
C          9.55940       -5.36370       -1.98680
C         10.79410       -5.98840       -1.94580
C         10.82160       -7.36960       -1.81500
F         12.00040       -7.99420       -1.77000
C          9.65590       -8.12760       -1.72770
F          9.72470       -9.45570       -1.60830
C          8.41400       -7.48900       -1.76460
F          7.30340       -8.21550       -1.68360
C          9.20680       -3.95040       -2.12260
C         10.08710       -2.92370       -2.34790
C          9.70630       -1.58570       -2.58630
N          9.46430       -0.48590       -2.81040
C         11.48800       -3.07650       -2.40370
N         12.63310       -3.13790       -2.44970
H         -5.64860        3.14050        2.65430
H        -10.95840        4.47290        2.63280
H          6.15190       -4.07890       -4.11590
H          4.81890       -5.11080       -3.60750
H          3.28970       -4.00410       -5.19730
H          4.51790       -2.79590       -5.58960
H          4.75390       -4.48370       -6.04690
H         -2.24970        2.49240        3.28310
H         -3.95560        2.69090        3.60720
H         -2.79010        4.87830        3.52220
H         -2.30200        4.57360        1.84810
H         -4.00260        4.77460        2.24820
H         -1.00330        0.90030        2.76670
H          0.33640        0.35900        1.77530
H         -0.49930        3.25550        2.36590
H          0.65940        2.87250        1.11190
H          1.01380        2.47100        2.79940
H          3.24100        0.47260       -0.03310
H          1.88030        1.13830        0.85640
H          1.15320        2.36200       -1.23870
H          2.57020        1.71820       -2.06750
H          2.77840        2.82960       -0.71280
H          7.58640       -1.80400       -1.60010
H         11.72680       -5.45250       -2.00540
