164

C          3.87070        4.91290        7.20190
C          3.33440        6.11240        7.58990
C          3.51430        6.58360        8.98170
O          4.26880        6.13950        9.81240
C          2.52480        7.68500        9.13640
C          1.89880        7.93240        7.90050
C          0.91270        8.89520        7.78330
C          0.56030        9.60690        8.92140
F         -0.39990       10.53220        8.83860
C          1.17520        9.38420       10.15080
F          0.81190       10.09540       11.22250
C          2.17220        8.41080       10.25950
F          2.75370        8.20460       11.43740
C          2.49990        7.05580        6.89350
C          2.49010        7.29000        5.53990
C          1.68810        8.26060        4.91150
N          1.03140        9.01320        4.34480
C          3.35790        6.63720        4.64020
N          4.08930        6.17500        3.88510
C          3.48970        4.08320        6.13460
S          1.92400        4.16780        5.36010
C          2.34070        2.87420        4.28630
C          1.49040        2.40340        3.24970
C          2.08350        1.37420        2.42620
C          3.35490        0.81850        2.61370
C          4.24740        1.25690        3.75810
C          3.62020        2.39040        4.53500
C          4.24150        3.05340        5.58830
C          4.41280        0.12480        4.76910
C          5.50970        0.07330        5.62050
C          5.61860       -0.92390        6.57130
C          4.63100       -1.88970        6.71140
C          4.77290       -3.00010        7.71150
C          5.45000       -4.21320        7.07010
C          3.52770       -1.82510        5.87160
C          3.41520       -0.83010        4.91840
C          5.56350        1.71840        3.14310
C          6.61380        0.83610        2.92110
C          7.77620        1.26570        2.30810
C          7.92100        2.58210        1.89170
C          9.20360        3.05640        1.27230
C         10.16740        3.54990        2.35330
C          6.86510        3.45780        2.10470
C          5.69950        3.03320        2.71420
C          3.76540       -0.16840        1.72370
C          2.98880       -0.63260        0.66530
C          1.71550       -0.12190        0.43380
C          0.78790       -0.52560       -0.62840
C         -0.48920        0.09060       -0.69880
C         -0.81350        1.06390        0.23000
C         -1.99370        1.80280        0.36860
N         -1.82360        2.63560        1.46490
C         -0.55600        2.43920        1.99570
C          0.20820        2.93200        3.05210
C          0.06240        1.45010        1.22100
C          1.31840        0.88460        1.35310
C         -2.76570        3.63160        1.90890
C         -2.55550        4.96270        1.18900
C         -3.00000        1.49890       -0.55110
C         -2.74250        0.52330       -1.51880
C         -3.75220        0.06950       -2.41870
C         -3.53790       -0.89190       -3.39910
C         -2.16220       -1.39760       -3.76230
C         -1.77650       -0.57840       -4.99820
C         -2.39870       -0.83390       -6.21550
C         -2.10640       -0.07410       -7.33110
C         -1.19040        0.96830       -7.26650
C         -0.91140        1.82470       -8.46760
C         -1.88310        3.00560       -8.51740
C         -0.57990        1.22740       -6.04830
C         -0.86880        0.46890       -4.92740
C         -2.20710       -2.89040       -4.04570
C         -1.45020       -3.47280       -5.05330
C         -1.51660       -4.83500       -5.28320
C         -2.33310       -5.65130       -4.51290
C         -2.39090       -7.13210       -4.75530
C         -1.31580       -7.85240       -3.93940
C         -3.05760       -5.07110       -3.48030
C         -2.99080       -3.71190       -3.24470
C         -1.18840       -1.13200       -2.63590
C         -1.48830       -0.18430       -1.64730
C          0.05380       -1.75330       -2.58510
C          1.01710       -1.47820       -1.61650
C         -4.71160       -1.28470       -4.03630
C         -5.84600       -0.64770       -3.56590
S         -5.42040        0.51600       -2.32280
C         -7.20970       -0.77180       -3.89390
C         -7.87160       -1.73320       -4.60910
C         -7.35710       -3.02780       -5.11660
O         -6.20080       -3.38700       -5.22920
C         -8.55080       -3.82060       -5.46570
C         -9.69420       -3.04130       -5.30720
C        -10.96060       -3.57480       -5.58250
C        -11.05010       -4.87430       -6.00850
C         -9.91000       -5.69010       -6.17640
C        -10.01390       -7.02690       -6.61160
C         -8.89600       -7.80070       -6.76040
C         -7.62440       -7.27500       -6.48080
C         -7.48240       -5.98220       -6.05850
C         -8.61670       -5.15960       -5.89850
C         -9.30520       -1.71380       -4.84260
C        -10.14240       -0.63510       -4.72560
C         -9.75020        0.67420       -4.37290
N         -9.52130        1.76980       -4.11360
C        -11.52810       -0.66700       -4.98880
N        -12.65900       -0.61480       -5.18060
H          4.64330        4.51780        7.85430
H          0.40670        9.10550        6.85540
H          5.23770        2.84100        5.93080
H          6.29640        0.80830        5.53490
H          6.48420       -0.94870        7.21790
H          3.78810       -3.29250        8.08150
H          5.37040       -2.66110        8.55990
H          4.86310       -4.57260        6.22760
H          6.44040       -3.94620        6.70800
H          5.55020       -5.01940        7.79300
H          2.74100       -2.56000        5.96680
H          2.54060       -0.80050        4.28490
H          6.53570       -0.19380        3.23900
H          8.58270        0.56360        2.14930
H          8.99800        3.87100        0.57520
H          9.67190        2.24060        0.71750
H         10.39820        2.74700        3.05000
H          9.72030        4.36940        2.91150
H         11.09520        3.89900        1.90610
H          6.94950        4.48680        1.78770
H          4.89600        3.74010        2.85790
H          4.74230       -0.60680        1.86030
H          3.39590       -1.40430        0.02960
H         -0.14190        3.70380        3.72290
H         -3.77610        3.25870        1.71950
H         -2.64190        3.76530        2.98710
H         -3.27850        5.69380        1.53900
H         -1.55450        5.34280        1.38010
H         -2.67900        4.83500        0.11600
H         -3.97100        1.97290       -0.53900
H         -3.11000       -1.64120       -6.29870
H         -2.59810       -0.29520       -8.26780
H         -1.01870        1.23210       -9.37830
H          0.11200        2.20270       -8.42350
H         -1.78290        3.61560       -7.62240
H         -1.68240        3.62770       -9.38650
H         -2.90920        2.64910       -8.57430
H          0.13480        2.03450       -5.97010
H         -0.37340        0.70150       -3.99670
H         -0.81320       -2.85950       -5.67460
H         -0.93020       -5.26760       -6.08160
H         -2.23640       -7.33970       -5.81620
H         -3.37390       -7.51370       -4.47150
H         -0.32660       -7.49790       -4.22050
H         -1.45700       -7.66320       -2.87750
H         -1.36180       -8.92550       -4.11050
H         -3.68860       -5.68920       -2.85770
H         -3.56290       -3.28340       -2.43420
H          0.28940       -2.48720       -3.34220
H          1.95350       -2.01390       -1.65700
H         -4.75820       -2.03730       -4.79930
H         -7.82690        0.00260       -3.45250
H        -11.85170       -2.98250       -5.45710
H        -12.01950       -5.30050       -6.22300
H        -10.99410       -7.42850       -6.82440
H         -8.98450       -8.82430       -7.09340
H         -6.75460       -7.90360       -6.60230
H         -6.50960       -5.57010       -5.84160
