100

C          0.34700       -3.15300        7.16750
C          1.08930       -2.21140        7.84080
C          1.89830       -1.17040        7.17440
O          1.86800       -0.81980        6.01620
C          2.83720       -0.69180        8.22300
C          2.57550       -1.34920        9.43820
C          3.32760       -1.07580       10.56710
C          4.34260       -0.13510       10.46160
F          5.08520        0.14380       11.53560
C          4.61300        0.52880        9.26740
F          5.59540        1.43260        9.20660
C          3.85050        0.24490        8.13190
F          4.11170        0.88420        6.99450
C          1.45700       -2.26890        9.23340
C          0.81170       -2.98440       10.20920
C         -0.35240       -3.74880        9.98020
N         -1.32050       -4.35490        9.86600
C          1.19770       -3.00390       11.56450
N          1.47310       -3.05560       12.67750
C         -0.06880       -3.08220        5.82650
S         -0.00730       -4.59630        4.91220
C         -0.36360       -3.72500        3.48950
C         -0.48090       -3.96750        2.11910
C         -0.45790       -5.17800        1.39190
C         -0.73020       -5.13830       -0.01310
N         -0.73990       -6.34330       -0.56100
S         -0.42720       -7.43340        0.59300
N         -0.26900       -6.40960        1.83760
C         -0.88170       -3.88140       -0.64010
C         -1.00810       -3.55160       -1.99420
S         -1.15750       -4.34400       -3.52340
C         -1.14100       -2.77130       -4.29920
C         -1.22260       -2.38890       -5.63250
C         -1.31670       -3.37330       -6.75210
C          0.06550       -3.65450       -7.34800
C         -1.14330       -0.99370       -5.76990
S         -0.97690       -0.17910       -4.21520
C         -1.02320       -1.69820       -3.40060
C         -0.95750       -2.15510       -2.07980
N         -0.84350       -1.61140       -0.82920
C         -0.80990       -2.65330        0.08500
C         -0.74040       -2.70980        1.50390
N         -0.85160       -1.75440        2.49870
C         -0.61270       -2.35830        3.71500
C         -0.47800       -1.98490        5.06310
C         -0.93850       -0.71570        5.71000
C         -2.46930       -0.68750        5.79460
C         -1.43800       -0.43920        2.37990
C         -2.85060       -0.50630        1.80140
C         -0.41470       -0.23420       -0.70150
C          1.01170       -0.13660       -0.16740
C         -1.20470       -0.34930       -7.01180
C         -1.08880        0.97480       -7.34710
C         -0.80980        2.08350       -6.42860
O         -0.72210        2.01860       -5.21160
C         -0.65740        3.28330       -7.26680
C         -0.86960        2.94000       -8.60150
C         -0.77360        3.91210       -9.60590
C         -0.46510        5.20000       -9.25170
C         -0.24360        5.57730       -7.90980
C          0.07770        6.90370       -7.55610
C          0.29050        7.24450       -6.24890
C          0.19110        6.27740       -5.23560
C         -0.11860        4.98050       -5.53880
C         -0.34190        4.59930       -6.87780
C         -1.16840        1.51220       -8.69070
C         -1.48840        0.83580       -9.83980
C         -1.80340       -0.53670       -9.92550
N         -2.07550       -1.64240      -10.08120
C         -1.56630        1.42250      -11.12070
N         -1.64960        1.82390      -12.19320
H          0.16620       -4.10070        7.66190
H          3.16290       -1.56300       11.51390
H         -1.72820       -4.30300       -6.35430
H         -1.98400       -3.01300       -7.53660
H          0.50630       -2.74380       -7.74720
H          0.73060       -4.05700       -6.58740
H         -0.02130       -4.37760       -8.15390
H         -0.55100        0.15180        5.17390
H         -0.55330       -0.66510        6.72560
H         -2.93740       -0.81680        4.82260
H         -2.81410       -1.49000        6.44290
H         -2.79910        0.25940        6.21500
H         -1.48130       -0.01450        3.37910
H         -0.79400        0.21100        1.78770
H         -3.27280        0.49340        1.74010
H         -2.85640       -0.94990        0.80940
H         -3.48930       -1.11200        2.44120
H         -1.11610        0.33530       -0.09100
H         -0.45020        0.19330       -1.70650
H          1.10970       -0.61340        0.80510
H          1.30020        0.90700       -0.07760
H          1.69830       -0.62570       -0.85430
H         -1.35570       -1.03320       -7.83570
H         -0.93350        3.65870      -10.64060
H         -0.38450        5.95900      -10.01630
H          0.15330        7.64530       -8.33810
H          0.53760        8.26250       -5.98640
H          0.36280        6.56820       -4.20980
H         -0.19700        4.22980       -4.76840
