108

C          1.03440        8.19260       -0.97950
C          0.72720        9.52590       -0.81470
C         -0.42740       10.11630       -0.11470
O         -1.30670        9.56950        0.51430
C         -0.31720       11.58060       -0.33940
C          0.83130       11.86180       -1.09610
C          1.14080       13.16630       -1.44290
C          0.28790       14.17510       -1.01870
F          0.56690       15.44010       -1.34460
C         -0.85250       13.91230       -0.26370
F         -1.64740       14.91270        0.12720
C         -1.15940       12.59430        0.08040
F         -2.25020       12.34520        0.79970
C          1.51820       10.59940       -1.38050
C          2.72130       10.50700       -2.03460
C          3.45560        9.32800       -2.28590
N          4.13570        8.43490       -2.53110
C          3.43330       11.61300       -2.54610
N          4.06760       12.46130       -2.98870
C          0.43550        7.02400       -0.49710
S          1.17880        5.50260       -1.00220
C          0.04600        4.61250       -0.08100
C         -0.05720        3.19510        0.08720
C         -1.11080        2.81350        0.96200
Si        -2.07000        4.34220        1.55040
C         -0.86550        5.43240        0.58600
C         -0.64590        6.77540        0.34840
C         -2.02840        4.63070        3.43190
C         -2.67160        5.95460        3.83210
C         -3.82180        4.42150        0.79570
C         -3.83550        4.11450       -0.69940
C         -1.31900        1.48130        1.23170
C         -0.49310        0.52930        0.63670
C         -0.44200       -0.89640        0.69800
C          0.61900       -1.29600       -0.15850
N          1.21060       -0.18220       -0.69910
C          2.29060       -0.18690       -1.65160
C          1.77450       -0.25360       -3.08760
C          0.54800        0.92910       -0.24600
C          0.77410        2.26670       -0.52560
C          0.92400       -2.63460       -0.34500
C          0.16690       -3.56370        0.35500
C          0.35100       -4.98220        0.26880
C         -0.46930       -5.80220        1.04680
Si        -1.65130       -4.71730        2.03820
C         -0.88230       -3.18130        1.23440
C         -1.18480       -1.84950        1.39340
C         -3.48510       -4.96840        1.57410
C         -4.05100       -6.28240        2.10360
C         -1.33050       -4.83080        3.91640
C         -2.12620       -3.80140        4.71240
C         -0.17670       -7.13550        0.85320
C          0.85240       -7.36430       -0.07100
S          1.46550       -5.84810       -0.69950
C          1.28320       -8.65370       -0.40210
C          2.23920       -9.08420       -1.29020
C          3.05510       -8.22630       -2.15800
O          3.05470       -7.01040       -2.20910
C          3.88260       -9.14070       -2.96960
C          4.81000       -8.85620       -3.95770
Cl         5.15730       -7.23630       -4.40610
C          5.46330       -9.91210       -4.59000
C          5.18140      -11.21730       -4.22930
C          4.25330      -11.51630       -3.23800
C          3.60250      -10.47130       -2.60550
C          2.59020      -10.46400       -1.54670
C          2.09870      -11.58300       -0.92370
C          2.50080      -12.90220       -1.22070
N          2.77760      -14.00140       -1.40400
C          1.13370      -11.60190        0.10500
N          0.35630      -11.71280        0.94390
H          1.90030        7.99420       -1.59960
H          2.00640       13.43350       -2.02540
H         -1.23810        7.56970        0.76210
H         -0.99720        4.61090        3.78640
H         -2.54620        3.81490        3.93680
H         -3.71840        5.97640        3.54060
H         -2.16720        6.78880        3.35200
H         -2.61660        6.09770        4.90950
H         -4.47610        3.71860        1.31240
H         -4.24160        5.41440        0.95810
H         -4.84780        4.16950       -1.09430
H         -3.44610        3.11710       -0.89020
H         -3.21950        4.82780       -1.24170
H         -2.11330        1.17200        1.89410
H          2.93010       -1.04810       -1.44260
H          2.88340        0.71990       -1.50630
H          1.18940       -1.15800       -3.23650
H          1.14410        0.60590       -3.30380
H          2.60880       -0.25920       -3.78330
H          1.55730        2.59600       -1.19220
H          1.71260       -2.96540       -1.00380
H         -1.98660       -1.53890        2.04630
H         -4.07530       -4.14080        1.96900
H         -3.60030       -4.94050        0.48960
H         -5.09440       -6.39620        1.81540
H         -3.49470       -7.12710        1.70560
H         -3.99360       -6.31790        3.18840
H         -1.58750       -5.83040        4.26840
H         -0.26730       -4.69430        4.11990
H         -3.19360       -3.92980        4.55110
H         -1.92990       -3.90330        5.77810
H         -1.85350       -2.79280        4.41200
H         -0.67600       -7.94870        1.35070
H          0.75030       -9.42410        0.14240
H          6.18680       -9.70060       -5.36100
H          5.69380      -12.02470       -4.72960
H          4.05590      -12.54370       -2.98220
