164

C         -2.44270        7.03930        3.65700
C         -1.73500        8.20020        3.88530
C         -0.29130        8.35870        3.71240
O          0.51360        7.51890        3.36130
C          0.00030        9.77190        4.05370
C         -1.19410       10.42130        4.41270
C         -1.18490       11.75720        4.77450
C          0.03080       12.42720        4.77140
F          0.06130       13.71670        5.11710
C          1.22190       11.79780        4.41890
F          2.37170       12.47780        4.42880
C          1.20590       10.44930        4.05430
F          2.34430        9.85090        3.71730
C         -2.29550        9.45810        4.31950
C         -3.60790        9.74100        4.60520
C         -4.07600       11.00470        5.02250
N         -4.52500       12.00440        5.36380
C         -4.68310        8.83080        4.53200
N         -5.61470        8.15910        4.50200
C         -2.01940        5.77970        3.23410
S         -0.37270        5.29000        2.84490
C         -0.94060        3.73040        2.44820
C         -0.42260        2.53850        1.89690
C         -1.44230        1.61500        1.70920
C         -2.74540        2.15100        2.27230
C         -2.32780        3.57120        2.61400
C         -2.93090        4.72090        3.05440
C         -3.83280        2.13080        1.21460
C         -5.09300        1.58880        1.40790
C         -6.03040        1.61320        0.39040
C         -5.73690        2.17320       -0.84360
C         -6.73690        2.15310       -1.96280
C         -6.49900        0.94540       -2.87140
C         -4.47070        2.71320       -1.03510
C         -3.53470        2.69680       -0.02160
C         -3.10730        1.51610        3.60640
C         -4.21530        1.97470        4.31070
C         -4.54790        1.42890        5.53510
C         -3.77360        0.42610        6.10470
C         -4.11740       -0.13480        7.45380
C         -3.49210        0.71620        8.56100
C         -2.64600       -0.00000        5.41850
C         -2.31400        0.53680        4.18770
C         -1.01770        0.48460        0.97230
C         -1.72540       -0.61780        0.45720
C         -3.13310       -0.91070        0.69920
C         -4.11180       -1.04840       -0.24160
C         -5.33360       -1.50100        0.29520
C         -5.28110       -1.73640        1.63350
C         -6.35240       -2.23930        2.53810
C         -6.01750       -3.62880        3.08230
S         -3.70730       -1.38760        2.26560
C         -1.02560       -1.49330       -0.35990
S         -1.78240       -2.90180       -1.07920
C         -0.28090       -3.29470       -1.83080
C          0.18060       -4.32520       -2.67800
C          1.53420       -4.10190       -2.96620
C          2.00530       -2.81250       -2.31580
C          2.33990       -1.85910       -3.45130
C          1.56130       -0.74310       -3.72330
C          1.86390        0.08600       -4.78970
C          2.94560       -0.17710       -5.61680
C          3.25270        0.70300       -6.79330
C          2.56310        0.17190       -8.05160
C          3.70450       -1.31220       -5.36010
C          3.40350       -2.14610       -4.30120
C          3.13960       -3.09950       -1.34500
C          4.40200       -2.53990       -1.44550
C          5.38790       -2.86970       -0.53070
C          5.13950       -3.75240        0.50870
C          6.18990       -4.07530        1.53200
C          5.87160       -3.40500        2.86980
C          3.86980       -4.31020        0.60590
C          2.88670       -3.99200       -0.30720
C          0.75260       -2.41010       -1.56310
C          0.35740       -1.37230       -0.68620
C          1.07900       -0.30860       -0.11880
C          0.37140        0.59060        0.66220
S          1.11460        2.04690        1.29130
C          2.51790       -0.08660       -0.26370
C          3.20660        0.54970       -1.24730
C          4.57100        0.73640       -0.93360
C          4.91860        0.25800        0.28930
C          6.24290        0.32270        0.96840
C          6.18910        1.21690        2.20790
S          3.55370       -0.45100        1.08850
C          2.07970       -5.07180       -3.78050
C          1.15200       -6.05110       -4.13790
S         -0.42990       -5.73830       -3.40670
C          1.24110       -7.19770       -4.93790
C          2.25040       -7.68080       -5.73750
C          3.53650       -7.04460       -6.08170
O          4.04320       -6.03440       -5.63790
C          4.13120       -7.89570       -7.13700
C          5.31240       -7.69450       -7.82300
C          5.66270       -8.62690       -8.78560
F          6.79780       -8.47140       -9.47870
C          4.84150       -9.72520       -9.04110
F          5.20070      -10.60780       -9.98040
C          3.65710       -9.92800       -8.34830
C          3.30010       -8.99870       -7.38340
C          2.14220       -8.91680       -6.49280
C          1.17660       -9.88350       -6.38270
C          1.15280      -11.06560       -7.15410
N          1.07040      -12.04460       -7.74770
C          0.08760       -9.88290       -5.48420
N         -0.81610       -9.98320       -4.78230
H         -3.51170        7.09050        3.82350
H         -2.07260       12.29830        5.05640
H         -3.98260        4.85320        3.23360
H         -5.35220        1.12750        2.34770
H         -7.00740        1.18550        0.56430
H         -7.74820        2.10370       -1.55530
H         -6.65030        3.06800       -2.55260
H         -5.49970        0.98390       -3.29940
H         -6.59280        0.02220       -2.30450
H         -7.22310        0.93050       -3.68250
H         -4.21780        3.15620       -1.98790
H         -2.55740        3.12810       -0.18860
H         -4.82690        2.76330        3.89980
H         -5.42200        1.79050        6.05780
H         -5.20160       -0.15070        7.58270
H         -3.74780       -1.15880        7.53400
H         -3.74010        0.31010        9.53870
H         -2.40960        0.73590        8.45670
H         -3.85920        1.73860        8.50600
H         -2.01820       -0.76770        5.84680
H         -1.43340        0.17600        3.67810
H         -3.96910       -0.79970       -1.27790
H         -6.21990       -1.65310       -0.29460
H         -7.29190       -2.27570        1.98270
H         -6.47700       -1.54890        3.37730
H         -5.09070       -3.59510        3.65060
H         -5.89650       -4.33580        2.26490
H         -6.81310       -3.98160        3.73340
H          0.71030       -0.50590       -3.10240
H          1.24670        0.95370       -4.97670
H          4.33120        0.73300       -6.96070
H          2.90830        1.72010       -6.59590
H          2.90070       -0.83870       -8.27000
H          2.78880        0.80630       -8.90540
H          1.48470        0.14870       -7.91090
H          4.54130       -1.55050       -6.00050
H          4.00260       -3.02830       -4.13950
H          4.62650       -1.82950       -2.22520
H          6.36760       -2.42570       -0.63540
H          6.23820       -5.15700        1.67840
H          7.16630       -3.73820        1.17840
H          5.80200       -2.32620        2.74980
H          6.64800       -3.62520        3.59880
H          4.92040       -3.76060        3.25770
H          3.65160       -5.00650        1.40260
H          1.90790       -4.44190       -0.21500
H          2.75640        0.88710       -2.16280
H          5.26510        1.21980       -1.59810
H          6.55570       -0.68150        1.26570
H          6.97820        0.71300        0.26160
H          7.16400        1.25800        2.68710
H          5.89230        2.22640        1.93380
H          5.46560        0.82790        2.92110
H          3.09610       -5.11040       -4.12260
H          0.32860       -7.78250       -4.93640
H          5.94190       -6.84270       -7.62100
H          3.05940      -10.79190       -8.58720
