
  xtb     02012220343D
 energy: -190.069642876905 gnorm: 0.000419087392 xtb: 6.4.1 (unknown)
108118  0     0  0            999 V2000
    1.0344    8.1926   -0.9795 C   0  0  0  0  0  0  0  0  0  0  0  0
    0.7272    9.5259   -0.8147 C   0  0  0  0  0  0  0  0  0  0  0  0
   -0.4274   10.1163   -0.1147 C   0  0  0  0  0  0  0  0  0  0  0  0
   -1.3067    9.5695    0.5143 O   0  0  0  0  0  0  0  0  0  0  0  0
   -0.3172   11.5806   -0.3394 C   0  0  0  0  0  0  0  0  0  0  0  0
    0.8313   11.8618   -1.0961 C   0  0  0  0  0  0  0  0  0  0  0  0
    1.1408   13.1663   -1.4429 C   0  0  0  0  0  0  0  0  0  0  0  0
    0.2879   14.1751   -1.0187 C   0  0  0  0  0  0  0  0  0  0  0  0
    0.5669   15.4401   -1.3446 F   0  0  0  0  0  0  0  0  0  0  0  0
   -0.8525   13.9123   -0.2637 C   0  0  0  0  0  0  0  0  0  0  0  0
   -1.6474   14.9127    0.1272 F   0  0  0  0  0  0  0  0  0  0  0  0
   -1.1594   12.5943    0.0804 C   0  0  0  0  0  0  0  0  0  0  0  0
   -2.2502   12.3452    0.7997 F   0  0  0  0  0  0  0  0  0  0  0  0
    1.5182   10.5994   -1.3805 C   0  0  0  0  0  0  0  0  0  0  0  0
    2.7213   10.5070   -2.0346 C   0  0  0  0  0  0  0  0  0  0  0  0
    3.4556    9.3280   -2.2859 C   0  0  0  0  0  0  0  0  0  0  0  0
    4.1357    8.4349   -2.5311 N   0  0  0  0  0  0  0  0  0  0  0  0
    3.4333   11.6130   -2.5461 C   0  0  0  0  0  0  0  0  0  0  0  0
    4.0676   12.4613   -2.9887 N   0  0  0  0  0  0  0  0  0  0  0  0
    0.4355    7.0240   -0.4971 C   0  0  0  0  0  0  0  0  0  0  0  0
    1.1788    5.5026   -1.0022 S   0  0  0  0  0  0  0  0  0  0  0  0
    0.0460    4.6125   -0.0810 C   0  0  0  0  0  0  0  0  0  0  0  0
   -0.0572    3.1951    0.0872 C   0  0  0  0  0  0  0  0  0  0  0  0
   -1.1108    2.8135    0.9620 C   0  0  0  0  0  0  0  0  0  0  0  0
   -2.0700    4.3422    1.5504 Si  0  0  0  0  0  4  0  0  0  0  0  0
   -0.8655    5.4324    0.5860 C   0  0  0  0  0  0  0  0  0  0  0  0
   -0.6459    6.7754    0.3484 C   0  0  0  0  0  0  0  0  0  0  0  0
   -2.0284    4.6307    3.4319 C   0  0  0  0  0  0  0  0  0  0  0  0
   -2.6716    5.9546    3.8321 C   0  0  0  0  0  0  0  0  0  0  0  0
   -3.8218    4.4215    0.7957 C   0  0  0  0  0  0  0  0  0  0  0  0
   -3.8355    4.1145   -0.6994 C   0  0  0  0  0  0  0  0  0  0  0  0
   -1.3190    1.4813    1.2317 C   0  0  0  0  0  0  0  0  0  0  0  0
   -0.4931    0.5293    0.6367 C   0  0  0  0  0  0  0  0  0  0  0  0
   -0.4420   -0.8964    0.6980 C   0  0  0  0  0  0  0  0  0  0  0  0
    0.6190   -1.2960   -0.1585 C   0  0  0  0  0  0  0  0  0  0  0  0
    1.2106   -0.1822   -0.6991 N   0  0  0  0  0  0  0  0  0  0  0  0
    2.2906   -0.1869   -1.6516 C   0  0  0  0  0  0  0  0  0  0  0  0
    1.7745   -0.2536   -3.0876 C   0  0  0  0  0  0  0  0  0  0  0  0
    0.5480    0.9291   -0.2460 C   0  0  0  0  0  0  0  0  0  0  0  0
    0.7741    2.2667   -0.5256 C   0  0  0  0  0  0  0  0  0  0  0  0
    0.9240   -2.6346   -0.3450 C   0  0  0  0  0  0  0  0  0  0  0  0
    0.1669   -3.5637    0.3550 C   0  0  0  0  0  0  0  0  0  0  0  0
    0.3510   -4.9822    0.2688 C   0  0  0  0  0  0  0  0  0  0  0  0
   -0.4693   -5.8022    1.0468 C   0  0  0  0  0  0  0  0  0  0  0  0
   -1.6513   -4.7173    2.0382 Si  0  0  0  0  0  4  0  0  0  0  0  0
   -0.8823   -3.1813    1.2344 C   0  0  0  0  0  0  0  0  0  0  0  0
   -1.1848   -1.8495    1.3934 C   0  0  0  0  0  0  0  0  0  0  0  0
   -3.4851   -4.9684    1.5741 C   0  0  0  0  0  0  0  0  0  0  0  0
   -4.0510   -6.2824    2.1036 C   0  0  0  0  0  0  0  0  0  0  0  0
   -1.3305   -4.8308    3.9164 C   0  0  0  0  0  0  0  0  0  0  0  0
   -2.1262   -3.8014    4.7124 C   0  0  0  0  0  0  0  0  0  0  0  0
   -0.1767   -7.1355    0.8532 C   0  0  0  0  0  0  0  0  0  0  0  0
    0.8524   -7.3643   -0.0710 C   0  0  0  0  0  0  0  0  0  0  0  0
    1.4655   -5.8481   -0.6995 S   0  0  0  0  0  0  0  0  0  0  0  0
    1.2832   -8.6537   -0.4021 C   0  0  0  0  0  0  0  0  0  0  0  0
    2.2392   -9.0842   -1.2902 C   0  0  0  0  0  0  0  0  0  0  0  0
    3.0551   -8.2263   -2.1580 C   0  0  0  0  0  0  0  0  0  0  0  0
    3.0547   -7.0104   -2.2091 O   0  0  0  0  0  0  0  0  0  0  0  0
    3.8826   -9.1407   -2.9696 C   0  0  0  0  0  0  0  0  0  0  0  0
    4.8100   -8.8562   -3.9577 C   0  0  0  0  0  0  0  0  0  0  0  0
    5.1573   -7.2363   -4.4061 Cl  0  0  0  0  0  0  0  0  0  0  0  0
    5.4633   -9.9121   -4.5900 C   0  0  0  0  0  0  0  0  0  0  0  0
    5.1814  -11.2173   -4.2293 C   0  0  0  0  0  0  0  0  0  0  0  0
    4.2533  -11.5163   -3.2380 C   0  0  0  0  0  0  0  0  0  0  0  0
    3.6025  -10.4713   -2.6055 C   0  0  0  0  0  0  0  0  0  0  0  0
    2.5902  -10.4640   -1.5467 C   0  0  0  0  0  0  0  0  0  0  0  0
    2.0987  -11.5830   -0.9237 C   0  0  0  0  0  0  0  0  0  0  0  0
    2.5008  -12.9022   -1.2207 C   0  0  0  0  0  0  0  0  0  0  0  0
    2.7776  -14.0014   -1.4040 N   0  0  0  0  0  0  0  0  0  0  0  0
    1.1337  -11.6019    0.1050 C   0  0  0  0  0  0  0  0  0  0  0  0
    0.3563  -11.7128    0.9439 N   0  0  0  0  0  0  0  0  0  0  0  0
    1.9003    7.9942   -1.5996 H   0  0  0  0  0  0  0  0  0  0  0  0
    2.0064   13.4335   -2.0254 H   0  0  0  0  0  0  0  0  0  0  0  0
   -1.2381    7.5697    0.7621 H   0  0  0  0  0  0  0  0  0  0  0  0
   -0.9972    4.6109    3.7864 H   0  0  0  0  0  0  0  0  0  0  0  0
   -2.5462    3.8149    3.9368 H   0  0  0  0  0  0  0  0  0  0  0  0
   -3.7184    5.9764    3.5406 H   0  0  0  0  0  0  0  0  0  0  0  0
   -2.1672    6.7888    3.3520 H   0  0  0  0  0  0  0  0  0  0  0  0
   -2.6166    6.0977    4.9095 H   0  0  0  0  0  0  0  0  0  0  0  0
   -4.4761    3.7186    1.3124 H   0  0  0  0  0  0  0  0  0  0  0  0
   -4.2416    5.4144    0.9581 H   0  0  0  0  0  0  0  0  0  0  0  0
   -4.8478    4.1695   -1.0943 H   0  0  0  0  0  0  0  0  0  0  0  0
   -3.4461    3.1171   -0.8902 H   0  0  0  0  0  0  0  0  0  0  0  0
   -3.2195    4.8278   -1.2417 H   0  0  0  0  0  0  0  0  0  0  0  0
   -2.1133    1.1720    1.8941 H   0  0  0  0  0  0  0  0  0  0  0  0
    2.9301   -1.0481   -1.4426 H   0  0  0  0  0  0  0  0  0  0  0  0
    2.8834    0.7199   -1.5063 H   0  0  0  0  0  0  0  0  0  0  0  0
    1.1894   -1.1580   -3.2365 H   0  0  0  0  0  0  0  0  0  0  0  0
    1.1441    0.6059   -3.3038 H   0  0  0  0  0  0  0  0  0  0  0  0
    2.6088   -0.2592   -3.7833 H   0  0  0  0  0  0  0  0  0  0  0  0
    1.5573    2.5960   -1.1922 H   0  0  0  0  0  0  0  0  0  0  0  0
    1.7126   -2.9654   -1.0038 H   0  0  0  0  0  0  0  0  0  0  0  0
   -1.9866   -1.5389    2.0463 H   0  0  0  0  0  0  0  0  0  0  0  0
   -4.0753   -4.1408    1.9690 H   0  0  0  0  0  0  0  0  0  0  0  0
   -3.6003   -4.9405    0.4896 H   0  0  0  0  0  0  0  0  0  0  0  0
   -5.0944   -6.3962    1.8154 H   0  0  0  0  0  0  0  0  0  0  0  0
   -3.4947   -7.1271    1.7056 H   0  0  0  0  0  0  0  0  0  0  0  0
   -3.9936   -6.3179    3.1884 H   0  0  0  0  0  0  0  0  0  0  0  0
   -1.5875   -5.8304    4.2684 H   0  0  0  0  0  0  0  0  0  0  0  0
   -0.2673   -4.6943    4.1199 H   0  0  0  0  0  0  0  0  0  0  0  0
   -3.1936   -3.9298    4.5511 H   0  0  0  0  0  0  0  0  0  0  0  0
   -1.9299   -3.9033    5.7781 H   0  0  0  0  0  0  0  0  0  0  0  0
   -1.8535   -2.7928    4.4120 H   0  0  0  0  0  0  0  0  0  0  0  0
   -0.6760   -7.9487    1.3507 H   0  0  0  0  0  0  0  0  0  0  0  0
    0.7503   -9.4241    0.1424 H   0  0  0  0  0  0  0  0  0  0  0  0
    6.1868   -9.7006   -5.3610 H   0  0  0  0  0  0  0  0  0  0  0  0
    5.6938  -12.0247   -4.7296 H   0  0  0  0  0  0  0  0  0  0  0  0
    4.0559  -12.5437   -2.9822 H   0  0  0  0  0  0  0  0  0  0  0  0
  1  2  2  0  0  0  0
  2  3  1  0  0  0  0
  3  4  2  0  0  0  0
  3  5  1  0  0  0  0
  5  6  2  0  0  0  0
  6  7  1  0  0  0  0
  7  8  2  0  0  0  0
  8  9  1  0  0  0  0
  8 10  1  0  0  0  0
 10 11  1  0  0  0  0
 10 12  2  0  0  0  0
 12 13  1  0  0  0  0
  6 14  1  0  0  0  0
 14 15  2  0  0  0  0
 15 16  1  0  0  0  0
 16 17  3  0  0  0  0
 15 18  1  0  0  0  0
 18 19  3  0  0  0  0
  1 20  1  0  0  0  0
 20 21  1  0  0  0  0
 21 22  1  0  0  0  0
 22 23  1  0  0  0  0
 23 24  2  0  0  0  0
 24 25  1  0  0  0  0
 25 26  1  0  0  0  0
 26 27  1  0  0  0  0
 25 28  1  0  0  0  0
 28 29  1  0  0  0  0
 25 30  1  0  0  0  0
 30 31  1  0  0  0  0
 24 32  1  0  0  0  0
 32 33  2  0  0  0  0
 33 34  1  0  0  0  0
 34 35  2  0  0  0  0
 35 36  1  0  0  0  0
 36 37  1  0  0  0  0
 37 38  1  0  0  0  0
 36 39  1  0  0  0  0
 39 40  2  0  0  0  0
 35 41  1  0  0  0  0
 41 42  2  0  0  0  0
 42 43  1  0  0  0  0
 43 44  2  0  0  0  0
 44 45  1  0  0  0  0
 45 46  1  0  0  0  0
 46 47  2  0  0  0  0
 45 48  1  0  0  0  0
 48 49  1  0  0  0  0
 45 50  1  0  0  0  0
 50 51  1  0  0  0  0
 44 52  1  0  0  0  0
 52 53  2  0  0  0  0
 53 54  1  0  0  0  0
 53 55  1  0  0  0  0
 55 56  2  0  0  0  0
 56 57  1  0  0  0  0
 57 58  2  0  0  0  0
 57 59  1  0  0  0  0
 59 60  2  0  0  0  0
 60 61  1  0  0  0  0
 60 62  1  0  0  0  0
 62 63  2  0  0  0  0
 63 64  1  0  0  0  0
 64 65  2  0  0  0  0
 65 66  1  0  0  0  0
 66 67  2  0  0  0  0
 67 68  1  0  0  0  0
 68 69  3  0  0  0  0
 67 70  1  0  0  0  0
 70 71  3  0  0  0  0
 14  2  1  0  0  0  0
 27 20  2  0  0  0  0
 39 33  1  0  0  0  0
 46 42  1  0  0  0  0
 66 56  1  0  0  0  0
 12  5  1  0  0  0  0
 26 22  2  0  0  0  0
 47 34  1  0  0  0  0
 65 59  1  0  0  0  0
 40 23  1  0  0  0  0
 54 43  1  0  0  0  0
  1 72  1  0  0  0  0
  7 73  1  0  0  0  0
 27 74  1  0  0  0  0
 28 75  1  0  0  0  0
 28 76  1  0  0  0  0
 29 77  1  0  0  0  0
 29 78  1  0  0  0  0
 29 79  1  0  0  0  0
 30 80  1  0  0  0  0
 30 81  1  0  0  0  0
 31 82  1  0  0  0  0
 31 83  1  0  0  0  0
 31 84  1  0  0  0  0
 32 85  1  0  0  0  0
 37 86  1  0  0  0  0
 37 87  1  0  0  0  0
 38 88  1  0  0  0  0
 38 89  1  0  0  0  0
 38 90  1  0  0  0  0
 40 91  1  0  0  0  0
 41 92  1  0  0  0  0
 47 93  1  0  0  0  0
 48 94  1  0  0  0  0
 48 95  1  0  0  0  0
 49 96  1  0  0  0  0
 49 97  1  0  0  0  0
 49 98  1  0  0  0  0
 50 99  1  0  0  0  0
 50100  1  0  0  0  0
 51101  1  0  0  0  0
 51102  1  0  0  0  0
 51103  1  0  0  0  0
 52104  1  0  0  0  0
 55105  1  0  0  0  0
 62106  1  0  0  0  0
 63107  1  0  0  0  0
 64108  1  0  0  0  0
M  END
