85

C          4.52300        7.63790        0.63700
C          5.80900        7.47750        0.16130
C          6.33590        6.25000       -0.41180
O          5.73980        5.19680       -0.58870
C          7.75060        6.52020       -0.73880
C          8.06300        7.84500       -0.37980
C          9.34430        8.33600       -0.56160
C         10.29780        7.48840       -1.11010
F         11.54090        7.94090       -1.28770
C         10.00040        6.17830       -1.48070
F         10.94480        5.39680       -2.00920
C          8.70660        5.68670       -1.29110
F          8.42220        4.43550       -1.64090
C          6.85670        8.47550        0.16690
C          6.77480        9.77790        0.58570
C          5.62050       10.40420        1.10350
N          4.73160       10.98990        1.53460
C          7.85080       10.69130        0.55080
N          8.68290       11.48210        0.55000
C          3.46240        6.73320        0.71780
C          2.23890        7.10940        1.28940
C          1.28840        6.11250        1.35340
S         -0.33360        6.12510        2.02430
C         -0.47840        4.45100        1.61870
C         -1.38320        3.39660        1.77530
C         -2.62600        3.35580        2.44560
C         -3.28980        2.09700        2.58500
N         -4.41420        2.19050        3.27800
S         -4.62060        3.73500        3.71260
N         -3.28170        4.34260        3.03680
C         -2.71950        0.95650        1.97750
C         -3.18270       -0.36240        1.92640
C         -2.27820       -1.08250        1.13340
N         -1.26580       -0.25820        0.71610
C         -0.40380       -0.70100       -0.35670
C         -0.77550       -0.04080       -1.68190
C         -1.50380        1.00860        1.22940
C         -0.78400        2.23420        1.19420
N          0.45930        2.59820        0.70770
C          0.65330        3.92560        0.98120
C          1.68010        4.85930        0.82570
Se         3.42440        4.91160        0.16740
C          1.58480        1.80340        0.27440
C          2.16250        0.98040        1.42330
C         -2.63880       -2.42600        1.00150
C         -3.82570       -2.70400        1.72020
S         -4.49230       -1.30630        2.53510
C         -4.27790       -4.01360        1.68910
C         -3.48580       -4.87850        0.94750
Se        -1.99570       -3.96080        0.16900
C         -3.57680       -6.25060        0.67500
C         -4.45400       -7.22220        1.09480
C         -5.56500       -7.09850        2.05920
O         -6.00620       -6.10680        2.59490
C         -6.06420       -8.48190        2.26280
C         -5.34100       -9.37480        1.45570
C         -5.61540      -10.73310        1.49330
C         -6.62400      -11.17380        2.34000
F         -6.90080      -12.47900        2.39470
C         -7.35620      -10.29830        3.13870
F         -8.31980      -10.76240        3.93700
C         -7.07100       -8.93140        3.10040
F         -7.76560       -8.09780        3.86770
C         -4.36390       -8.60870        0.67810
C         -3.56600       -9.13940       -0.30390
C         -3.55320      -10.50620       -0.65880
N         -3.48890      -11.60120       -0.99700
C         -2.66340       -8.43030       -1.12430
N         -1.91480       -7.93820       -1.84350
H          4.27890        8.61640        1.03530
H          9.63630        9.33860       -0.29580
H          2.07310        8.10750        1.65960
H         -0.54860       -1.78390       -0.44480
H          0.64300       -0.54430       -0.10110
H         -0.10950       -0.38520       -2.46870
H         -1.79550       -0.30350       -1.95420
H         -0.71310        1.04340       -1.61400
H          1.30900        1.18340       -0.57710
H          2.34800        2.50660       -0.08020
H          1.40010        0.35490        1.88260
H          2.96940        0.34940        1.06160
H          2.56220        1.64340        2.18730
H         -5.16370       -4.34760        2.20100
H         -2.78570       -6.60150        0.02090
H         -5.08410      -11.45960        0.90190
