
  xtb     02022201053D
 energy: -276.697476395076 gnorm: 0.000571812901 xtb: 6.4.1 (unknown)
158173  0     0  0            999 V2000
    8.0630    2.8500    3.7135 C   0  0  0  0  0  0  0  0  0  0  0  0
    9.1858    3.5141    3.2645 C   0  0  0  0  0  0  0  0  0  0  0  0
    9.3781    4.2224    1.9870 C   0  0  0  0  0  0  0  0  0  0  0  0
    8.6075    4.3654    1.0622 O   0  0  0  0  0  0  0  0  0  0  0  0
   10.7560    4.7730    2.0445 C   0  0  0  0  0  0  0  0  0  0  0  0
   11.3575    4.4252    3.2643 C   0  0  0  0  0  0  0  0  0  0  0  0
   12.6519    4.8278    3.5473 C   0  0  0  0  0  0  0  0  0  0  0  0
   13.3262    5.5784    2.5948 C   0  0  0  0  0  0  0  0  0  0  0  0
   14.5760    5.9762    2.8480 F   0  0  0  0  0  0  0  0  0  0  0  0
   12.7425    5.9315    1.3808 C   0  0  0  0  0  0  0  0  0  0  0  0
   13.4260    6.6554    0.4892 F   0  0  0  0  0  0  0  0  0  0  0  0
   11.4369    5.5224    1.1023 C   0  0  0  0  0  0  0  0  0  0  0  0
   10.8810    5.8603   -0.0582 F   0  0  0  0  0  0  0  0  0  0  0  0
   10.4003    3.6356    4.0435 C   0  0  0  0  0  0  0  0  0  0  0  0
   10.6671    3.1083    5.2829 C   0  0  0  0  0  0  0  0  0  0  0  0
    9.8024    2.3188    6.0708 C   0  0  0  0  0  0  0  0  0  0  0  0
    9.1853    1.6665    6.7879 N   0  0  0  0  0  0  0  0  0  0  0  0
   11.8879    3.2758    5.9709 C   0  0  0  0  0  0  0  0  0  0  0  0
   12.8490    3.3680    6.5920 N   0  0  0  0  0  0  0  0  0  0  0  0
    6.8311    2.5781    3.1134 C   0  0  0  0  0  0  0  0  0  0  0  0
    6.3057    2.8567    1.8480 C   0  0  0  0  0  0  0  0  0  0  0  0
    5.0348    2.3561    1.6803 C   0  0  0  0  0  0  0  0  0  0  0  0
    3.9966    2.3237    0.5721 C   0  0  0  0  0  0  0  0  0  0  0  0
    4.5956    1.6816   -0.6697 C   0  0  0  0  0  0  0  0  0  0  0  0
    5.0800    0.3826   -0.5632 C   0  0  0  0  0  0  0  0  0  0  0  0
    5.6793   -0.2398   -1.6414 C   0  0  0  0  0  0  0  0  0  0  0  0
    5.8194    0.4200   -2.8558 C   0  0  0  0  0  0  0  0  0  0  0  0
    6.4546   -0.2552   -4.0372 C   0  0  0  0  0  0  0  0  0  0  0  0
    5.3927   -0.8698   -4.9515 C   0  0  0  0  0  0  0  0  0  0  0  0
    5.3201    1.7114   -2.9611 C   0  0  0  0  0  0  0  0  0  0  0  0
    4.7139    2.3363   -1.8859 C   0  0  0  0  0  0  0  0  0  0  0  0
    3.4920    3.7432    0.3598 C   0  0  0  0  0  0  0  0  0  0  0  0
    4.3921    4.7398   -0.0050 C   0  0  0  0  0  0  0  0  0  0  0  0
    3.9678    6.0414   -0.1898 C   0  0  0  0  0  0  0  0  0  0  0  0
    2.6355    6.3915   -0.0123 C   0  0  0  0  0  0  0  0  0  0  0  0
    2.1839    7.8141   -0.1730 C   0  0  0  0  0  0  0  0  0  0  0  0
    2.2837    8.5598    1.1594 C   0  0  0  0  0  0  0  0  0  0  0  0
    1.7448    5.3987    0.3687 C   0  0  0  0  0  0  0  0  0  0  0  0
    2.1646    4.0937    0.5570 C   0  0  0  0  0  0  0  0  0  0  0  0
    2.9534    1.4264    1.2040 C   0  0  0  0  0  0  0  0  0  0  0  0
    3.3039    1.1129    2.5071 C   0  0  0  0  0  0  0  0  0  0  0  0
    4.5629    1.6668    2.8104 C   0  0  0  0  0  0  0  0  0  0  0  0
    5.6768    1.6611    4.0988 S   0  0  0  0  0  0  0  0  0  0  0  0
    2.1554    0.1203    3.3214 S   0  0  0  0  0  0  0  0  0  0  0  0
    1.1624    0.0599    1.8631 C   0  0  0  0  0  0  0  0  0  0  0  0
   -0.0343   -0.6209    1.7003 C   0  0  0  0  0  0  0  0  0  0  0  0
   -0.7129   -1.3709    2.5965 O   0  0  0  0  0  0  0  0  0  0  0  0
   -0.0745   -1.9508    3.7180 C   0  0  0  0  0  0  0  0  0  0  0  0
    0.9392   -3.0202    3.3312 C   0  0  0  0  0  0  0  0  0  0  0  0
   -0.6781   -0.4785    0.4478 C   0  0  0  0  0  0  0  0  0  0  0  0
   -0.0983    0.2828   -0.6100 C   0  0  0  0  0  0  0  0  0  0  0  0
    1.1209    0.9276   -0.4618 C   0  0  0  0  0  0  0  0  0  0  0  0
    1.7390    0.8270    0.8070 C   0  0  0  0  0  0  0  0  0  0  0  0
    1.7888    1.6942   -1.3500 O   0  0  0  0  0  0  0  0  0  0  0  0
    1.5738    1.5803   -2.7441 C   0  0  0  0  0  0  0  0  0  0  0  0
    2.0128    0.2299   -3.2949 C   0  0  0  0  0  0  0  0  0  0  0  0
   -1.1237    0.2814   -2.0456 S   0  0  0  0  0  0  0  0  0  0  0  0
   -2.2631   -0.7269   -1.2410 C   0  0  0  0  0  0  0  0  0  0  0  0
   -3.4684   -1.3703   -1.5936 C   0  0  0  0  0  0  0  0  0  0  0  0
   -3.9111   -2.1073   -0.4820 C   0  0  0  0  0  0  0  0  0  0  0  0
   -2.9829   -1.9016    0.7043 C   0  0  0  0  0  0  0  0  0  0  0  0
   -1.9189   -1.0331    0.0642 C   0  0  0  0  0  0  0  0  0  0  0  0
   -3.7554   -1.1782    1.7939 C   0  0  0  0  0  0  0  0  0  0  0  0
   -3.4068    0.0910    2.2309 C   0  0  0  0  0  0  0  0  0  0  0  0
   -4.1459    0.7262    3.2132 C   0  0  0  0  0  0  0  0  0  0  0  0
   -5.2568    0.1201    3.7810 C   0  0  0  0  0  0  0  0  0  0  0  0
   -6.0824    0.8316    4.8132 C   0  0  0  0  0  0  0  0  0  0  0  0
   -7.1842    1.6531    4.1405 C   0  0  0  0  0  0  0  0  0  0  0  0
   -5.6156   -1.1430    3.3281 C   0  0  0  0  0  0  0  0  0  0  0  0
   -4.8794   -1.7814    2.3493 C   0  0  0  0  0  0  0  0  0  0  0  0
   -2.3952   -3.2370    1.1335 C   0  0  0  0  0  0  0  0  0  0  0  0
   -1.6849   -3.9699    0.1887 C   0  0  0  0  0  0  0  0  0  0  0  0
   -1.1415   -5.1987    0.5088 C   0  0  0  0  0  0  0  0  0  0  0  0
   -1.2924   -5.7333    1.7823 C   0  0  0  0  0  0  0  0  0  0  0  0
   -0.7430   -7.0889    2.1201 C   0  0  0  0  0  0  0  0  0  0  0  0
   -1.7868   -8.1718    1.8395 C   0  0  0  0  0  0  0  0  0  0  0  0
   -2.0007   -4.9972    2.7224 C   0  0  0  0  0  0  0  0  0  0  0  0
   -2.5428   -3.7636    2.4072 C   0  0  0  0  0  0  0  0  0  0  0  0
   -5.0426   -2.8311   -0.7664 C   0  0  0  0  0  0  0  0  0  0  0  0
   -5.4861   -2.6562   -2.0898 C   0  0  0  0  0  0  0  0  0  0  0  0
   -4.4469   -1.5515   -2.9820 S   0  0  0  0  0  0  0  0  0  0  0  0
   -6.6130   -3.3231   -2.5760 C   0  0  0  0  0  0  0  0  0  0  0  0
   -7.1882   -3.3175   -3.8264 C   0  0  0  0  0  0  0  0  0  0  0  0
   -6.6969   -2.5688   -4.9840 C   0  0  0  0  0  0  0  0  0  0  0  0
   -5.7433   -1.8099   -5.0303 O   0  0  0  0  0  0  0  0  0  0  0  0
   -7.5859   -2.9172   -6.1075 C   0  0  0  0  0  0  0  0  0  0  0  0
   -7.5320   -2.4940   -7.4032 C   0  0  0  0  0  0  0  0  0  0  0  0
   -8.4907   -2.9770   -8.3221 C   0  0  0  0  0  0  0  0  0  0  0  0
   -8.4793   -2.5791   -9.6727 C   0  0  0  0  0  0  0  0  0  0  0  0
   -9.4147   -3.0675  -10.5415 C   0  0  0  0  0  0  0  0  0  0  0  0
   -9.4010   -2.6888  -11.8276 F   0  0  0  0  0  0  0  0  0  0  0  0
  -10.3999   -3.9717  -10.0987 C   0  0  0  0  0  0  0  0  0  0  0  0
  -11.3031   -4.4357  -10.9733 F   0  0  0  0  0  0  0  0  0  0  0  0
  -10.4378   -4.3745   -8.7931 C   0  0  0  0  0  0  0  0  0  0  0  0
   -9.4875   -3.8900   -7.8724 C   0  0  0  0  0  0  0  0  0  0  0  0
   -9.5188   -4.3052   -6.5205 C   0  0  0  0  0  0  0  0  0  0  0  0
   -8.5793   -3.8258   -5.6472 C   0  0  0  0  0  0  0  0  0  0  0  0
   -8.3565   -4.0742   -4.2230 C   0  0  0  0  0  0  0  0  0  0  0  0
   -9.1400   -4.8800   -3.4346 C   0  0  0  0  0  0  0  0  0  0  0  0
   -8.9548   -5.1221   -2.0583 C   0  0  0  0  0  0  0  0  0  0  0  0
   -8.8782   -5.3710   -0.9390 N   0  0  0  0  0  0  0  0  0  0  0  0
  -10.2667   -5.5870   -3.9028 C   0  0  0  0  0  0  0  0  0  0  0  0
  -11.1921   -6.1895   -4.2175 N   0  0  0  0  0  0  0  0  0  0  0  0
    8.1362    2.4506    4.7178 H   0  0  0  0  0  0  0  0  0  0  0  0
   13.1578    4.5874    4.4671 H   0  0  0  0  0  0  0  0  0  0  0  0
    6.8773    3.3903    1.1127 H   0  0  0  0  0  0  0  0  0  0  0  0
    4.9941   -0.1464    0.3760 H   0  0  0  0  0  0  0  0  0  0  0  0
    6.0528   -1.2484   -1.5348 H   0  0  0  0  0  0  0  0  0  0  0  0
    7.1312   -1.0398   -3.6936 H   0  0  0  0  0  0  0  0  0  0  0  0
    7.0371    0.4728   -4.6052 H   0  0  0  0  0  0  0  0  0  0  0  0
    4.8052   -1.6081   -4.4098 H   0  0  0  0  0  0  0  0  0  0  0  0
    5.8626   -1.3581   -5.8017 H   0  0  0  0  0  0  0  0  0  0  0  0
    4.7193   -0.1005   -5.3225 H   0  0  0  0  0  0  0  0  0  0  0  0
    5.4121    2.2412   -3.8986 H   0  0  0  0  0  0  0  0  0  0  0  0
    4.3321    3.3383   -2.0020 H   0  0  0  0  0  0  0  0  0  0  0  0
    5.4338    4.5020   -0.1522 H   0  0  0  0  0  0  0  0  0  0  0  0
    4.6856    6.7960   -0.4773 H   0  0  0  0  0  0  0  0  0  0  0  0
    1.1494    7.8375   -0.5218 H   0  0  0  0  0  0  0  0  0  0  0  0
    2.8070    8.3184   -0.9142 H   0  0  0  0  0  0  0  0  0  0  0  0
    1.6510    8.0862    1.9068 H   0  0  0  0  0  0  0  0  0  0  0  0
    3.3089    8.5486    1.5228 H   0  0  0  0  0  0  0  0  0  0  0  0
    1.9680    9.5937    1.0413 H   0  0  0  0  0  0  0  0  0  0  0  0
    0.7038    5.6463    0.5215 H   0  0  0  0  0  0  0  0  0  0  0  0
    1.4409    3.3532    0.8582 H   0  0  0  0  0  0  0  0  0  0  0  0
   -0.8993   -2.4032    4.2734 H   0  0  0  0  0  0  0  0  0  0  0  0
    0.3852   -1.1843    4.3513 H   0  0  0  0  0  0  0  0  0  0  0  0
    1.7641   -2.5924    2.7673 H   0  0  0  0  0  0  0  0  0  0  0  0
    1.3362   -3.4821    4.2301 H   0  0  0  0  0  0  0  0  0  0  0  0
    0.4579   -3.7811    2.7218 H   0  0  0  0  0  0  0  0  0  0  0  0
    2.1983    2.3738   -3.1614 H   0  0  0  0  0  0  0  0  0  0  0  0
    0.5305    1.7911   -3.0021 H   0  0  0  0  0  0  0  0  0  0  0  0
    1.9104    0.2302   -4.3759 H   0  0  0  0  0  0  0  0  0  0  0  0
    1.4049   -0.5749   -2.8896 H   0  0  0  0  0  0  0  0  0  0  0  0
    3.0522    0.0487   -3.0338 H   0  0  0  0  0  0  0  0  0  0  0  0
   -2.5532    0.5987    1.8109 H   0  0  0  0  0  0  0  0  0  0  0  0
   -3.8504    1.7123    3.5427 H   0  0  0  0  0  0  0  0  0  0  0  0
   -6.5378    0.1049    5.4888 H   0  0  0  0  0  0  0  0  0  0  0  0
   -5.4470    1.4959    5.4025 H   0  0  0  0  0  0  0  0  0  0  0  0
   -7.8343    1.0065    3.5555 H   0  0  0  0  0  0  0  0  0  0  0  0
   -6.7495    2.3942    3.4733 H   0  0  0  0  0  0  0  0  0  0  0  0
   -7.7852    2.1670    4.8869 H   0  0  0  0  0  0  0  0  0  0  0  0
   -6.4818   -1.6346    3.7474 H   0  0  0  0  0  0  0  0  0  0  0  0
   -5.1802   -2.7642    2.0208 H   0  0  0  0  0  0  0  0  0  0  0  0
   -1.5567   -3.5751   -0.8096 H   0  0  0  0  0  0  0  0  0  0  0  0
   -0.5913   -5.7506   -0.2401 H   0  0  0  0  0  0  0  0  0  0  0  0
   -0.4638   -7.1234    3.1753 H   0  0  0  0  0  0  0  0  0  0  0  0
    0.1499   -7.2863    1.5232 H   0  0  0  0  0  0  0  0  0  0  0  0
   -2.0709   -8.1605    0.7896 H   0  0  0  0  0  0  0  0  0  0  0  0
   -1.3896   -9.1546    2.0816 H   0  0  0  0  0  0  0  0  0  0  0  0
   -2.6796   -8.0007    2.4367 H   0  0  0  0  0  0  0  0  0  0  0  0
   -2.1256   -5.3914    3.7211 H   0  0  0  0  0  0  0  0  0  0  0  0
   -3.0742   -3.2097    3.1650 H   0  0  0  0  0  0  0  0  0  0  0  0
   -5.5587   -3.4898   -0.0916 H   0  0  0  0  0  0  0  0  0  0  0  0
   -7.0862   -3.9500   -1.8301 H   0  0  0  0  0  0  0  0  0  0  0  0
   -6.7673   -1.8028   -7.7238 H   0  0  0  0  0  0  0  0  0  0  0  0
   -7.7311   -1.8877  -10.0275 H   0  0  0  0  0  0  0  0  0  0  0  0
  -11.1992   -5.0672   -8.4701 H   0  0  0  0  0  0  0  0  0  0  0  0
  -10.2867   -4.9965   -6.2143 H   0  0  0  0  0  0  0  0  0  0  0  0
  1  2  2  0  0  0  0
  2  3  1  0  0  0  0
  3  4  2  0  0  0  0
  3  5  1  0  0  0  0
  5  6  2  0  0  0  0
  6  7  1  0  0  0  0
  7  8  2  0  0  0  0
  8  9  1  0  0  0  0
  8 10  1  0  0  0  0
 10 11  1  0  0  0  0
 10 12  2  0  0  0  0
 12 13  1  0  0  0  0
  6 14  1  0  0  0  0
 14 15  2  0  0  0  0
 15 16  1  0  0  0  0
 16 17  3  0  0  0  0
 15 18  1  0  0  0  0
 18 19  3  0  0  0  0
  1 20  1  0  0  0  0
 20 21  2  0  0  0  0
 21 22  1  0  0  0  0
 22 23  1  0  0  0  0
 23 24  1  0  0  0  0
 24 25  2  0  0  0  0
 25 26  1  0  0  0  0
 26 27  2  0  0  0  0
 27 28  1  0  0  0  0
 28 29  1  0  0  0  0
 27 30  1  0  0  0  0
 30 31  2  0  0  0  0
 23 32  1  0  0  0  0
 32 33  2  0  0  0  0
 33 34  1  0  0  0  0
 34 35  2  0  0  0  0
 35 36  1  0  0  0  0
 36 37  1  0  0  0  0
 35 38  1  0  0  0  0
 38 39  2  0  0  0  0
 23 40  1  0  0  0  0
 40 41  2  0  0  0  0
 41 42  1  0  0  0  0
 42 43  1  0  0  0  0
 41 44  1  0  0  0  0
 44 45  1  0  0  0  0
 45 46  2  0  0  0  0
 46 47  1  0  0  0  0
 47 48  1  0  0  0  0
 48 49  1  0  0  0  0
 46 50  1  0  0  0  0
 50 51  2  0  0  0  0
 51 52  1  0  0  0  0
 52 53  2  0  0  0  0
 52 54  1  0  0  0  0
 54 55  1  0  0  0  0
 55 56  1  0  0  0  0
 51 57  1  0  0  0  0
 57 58  1  0  0  0  0
 58 59  1  0  0  0  0
 59 60  2  0  0  0  0
 60 61  1  0  0  0  0
 61 62  1  0  0  0  0
 61 63  1  0  0  0  0
 63 64  2  0  0  0  0
 64 65  1  0  0  0  0
 65 66  2  0  0  0  0
 66 67  1  0  0  0  0
 67 68  1  0  0  0  0
 66 69  1  0  0  0  0
 69 70  2  0  0  0  0
 61 71  1  0  0  0  0
 71 72  2  0  0  0  0
 72 73  1  0  0  0  0
 73 74  2  0  0  0  0
 74 75  1  0  0  0  0
 75 76  1  0  0  0  0
 74 77  1  0  0  0  0
 77 78  2  0  0  0  0
 60 79  1  0  0  0  0
 79 80  2  0  0  0  0
 80 81  1  0  0  0  0
 80 82  1  0  0  0  0
 82 83  2  0  0  0  0
 83 84  1  0  0  0  0
 84 85  2  0  0  0  0
 84 86  1  0  0  0  0
 86 87  2  0  0  0  0
 87 88  1  0  0  0  0
 88 89  2  0  0  0  0
 89 90  1  0  0  0  0
 90 91  1  0  0  0  0
 90 92  2  0  0  0  0
 92 93  1  0  0  0  0
 92 94  1  0  0  0  0
 94 95  2  0  0  0  0
 95 96  1  0  0  0  0
 96 97  2  0  0  0  0
 97 98  1  0  0  0  0
 98 99  2  0  0  0  0
 99100  1  0  0  0  0
100101  3  0  0  0  0
 99102  1  0  0  0  0
102103  3  0  0  0  0
 14  2  1  0  0  0  0
 43 20  1  0  0  0  0
 53 45  1  0  0  0  0
 62 58  2  0  0  0  0
 70 63  1  0  0  0  0
 78 71  1  0  0  0  0
 98 83  1  0  0  0  0
 12  5  1  0  0  0  0
 42 22  2  0  0  0  0
 62 50  1  0  0  0  0
 97 86  1  0  0  0  0
 31 24  1  0  0  0  0
 39 32  1  0  0  0  0
 53 40  1  0  0  0  0
 81 59  1  0  0  0  0
 95 88  1  0  0  0  0
  1104  1  0  0  0  0
  7105  1  0  0  0  0
 21106  1  0  0  0  0
 25107  1  0  0  0  0
 26108  1  0  0  0  0
 28109  1  0  0  0  0
 28110  1  0  0  0  0
 29111  1  0  0  0  0
 29112  1  0  0  0  0
 29113  1  0  0  0  0
 30114  1  0  0  0  0
 31115  1  0  0  0  0
 33116  1  0  0  0  0
 34117  1  0  0  0  0
 36118  1  0  0  0  0
 36119  1  0  0  0  0
 37120  1  0  0  0  0
 37121  1  0  0  0  0
 37122  1  0  0  0  0
 38123  1  0  0  0  0
 39124  1  0  0  0  0
 48125  1  0  0  0  0
 48126  1  0  0  0  0
 49127  1  0  0  0  0
 49128  1  0  0  0  0
 49129  1  0  0  0  0
 55130  1  0  0  0  0
 55131  1  0  0  0  0
 56132  1  0  0  0  0
 56133  1  0  0  0  0
 56134  1  0  0  0  0
 64135  1  0  0  0  0
 65136  1  0  0  0  0
 67137  1  0  0  0  0
 67138  1  0  0  0  0
 68139  1  0  0  0  0
 68140  1  0  0  0  0
 68141  1  0  0  0  0
 69142  1  0  0  0  0
 70143  1  0  0  0  0
 72144  1  0  0  0  0
 73145  1  0  0  0  0
 75146  1  0  0  0  0
 75147  1  0  0  0  0
 76148  1  0  0  0  0
 76149  1  0  0  0  0
 76150  1  0  0  0  0
 77151  1  0  0  0  0
 78152  1  0  0  0  0
 79153  1  0  0  0  0
 82154  1  0  0  0  0
 87155  1  0  0  0  0
 89156  1  0  0  0  0
 94157  1  0  0  0  0
 96158  1  0  0  0  0
M  END
