
  xtb     02022200073D
 energy: -192.096944680768 gnorm: 0.000934796658 xtb: 6.4.1 (unknown)
 94104  0     0  0            999 V2000
   -5.8963    2.7115    1.6944 C   0  0  0  0  0  0  0  0  0  0  0  0
   -7.2194    2.8493    1.3355 C   0  0  0  0  0  0  0  0  0  0  0  0
   -7.8357    2.4079    0.0812 C   0  0  0  0  0  0  0  0  0  0  0  0
   -7.3142    1.8167   -0.8401 O   0  0  0  0  0  0  0  0  0  0  0  0
   -9.2544    2.8358    0.1625 C   0  0  0  0  0  0  0  0  0  0  0  0
   -9.4813    3.4778    1.3922 C   0  0  0  0  0  0  0  0  0  0  0  0
  -10.7357    3.9726    1.7053 C   0  0  0  0  0  0  0  0  0  0  0  0
  -11.7517    3.8146    0.7731 C   0  0  0  0  0  0  0  0  0  0  0  0
  -12.9687    4.2865    1.0545 F   0  0  0  0  0  0  0  0  0  0  0  0
  -11.5430    3.1799   -0.4488 C   0  0  0  0  0  0  0  0  0  0  0  0
  -12.5476    3.0482   -1.3190 F   0  0  0  0  0  0  0  0  0  0  0  0
  -10.2747    2.6827   -0.7585 C   0  0  0  0  0  0  0  0  0  0  0  0
  -10.0783    2.0789   -1.9259 F   0  0  0  0  0  0  0  0  0  0  0  0
   -8.2270    3.4897    2.1502 C   0  0  0  0  0  0  0  0  0  0  0  0
   -8.0834    4.0127    3.4119 C   0  0  0  0  0  0  0  0  0  0  0  0
   -6.8963    4.0266    4.1729 C   0  0  0  0  0  0  0  0  0  0  0  0
   -5.9771    4.0828    4.8614 N   0  0  0  0  0  0  0  0  0  0  0  0
   -9.1252    4.6185    4.1457 C   0  0  0  0  0  0  0  0  0  0  0  0
   -9.9226    5.1210    4.8010 N   0  0  0  0  0  0  0  0  0  0  0  0
   -4.8107    2.1172    1.0472 C   0  0  0  0  0  0  0  0  0  0  0  0
   -4.9234    1.2545   -0.4893 S   0  0  0  0  0  0  0  0  0  0  0  0
   -3.2623    0.8955   -0.3768 C   0  0  0  0  0  0  0  0  0  0  0  0
   -2.3115    0.1630   -1.0949 C   0  0  0  0  0  0  0  0  0  0  0  0
   -2.4677   -0.6951   -2.2055 C   0  0  0  0  0  0  0  0  0  0  0  0
   -1.3523   -1.4922   -2.6177 C   0  0  0  0  0  0  0  0  0  0  0  0
   -1.6530   -2.3064   -3.6182 N   0  0  0  0  0  0  0  0  0  0  0  0
   -3.2069   -2.0814   -4.0095 S   0  0  0  0  0  0  0  0  0  0  0  0
   -3.5552   -0.9420   -2.9182 N   0  0  0  0  0  0  0  0  0  0  0  0
   -0.1054   -1.2907   -1.9866 C   0  0  0  0  0  0  0  0  0  0  0  0
    1.1525   -1.8415   -2.2634 C   0  0  0  0  0  0  0  0  0  0  0  0
    1.8645   -3.0098   -3.3143 S   0  0  0  0  0  0  0  0  0  0  0  0
    3.4388   -2.6254   -2.6499 C   0  0  0  0  0  0  0  0  0  0  0  0
    4.7223   -3.1360   -2.8807 C   0  0  0  0  0  0  0  0  0  0  0  0
    5.0713   -4.1044   -3.9574 C   0  0  0  0  0  0  0  0  0  0  0  0
    4.3578   -3.8257   -5.2778 C   0  0  0  0  0  0  0  0  0  0  0  0
    5.6590   -2.5237   -2.0447 C   0  0  0  0  0  0  0  0  0  0  0  0
    4.9411   -1.2583   -1.0432 S   0  0  0  0  0  0  0  0  0  0  0  0
    3.3797   -1.6243   -1.6645 C   0  0  0  0  0  0  0  0  0  0  0  0
    2.0736   -1.1861   -1.4390 C   0  0  0  0  0  0  0  0  0  0  0  0
    1.4326   -0.2776   -0.6354 N   0  0  0  0  0  0  0  0  0  0  0  0
    0.0769   -0.3332   -0.9442 C   0  0  0  0  0  0  0  0  0  0  0  0
   -1.0739    0.3046   -0.4084 C   0  0  0  0  0  0  0  0  0  0  0  0
   -1.2877    1.0686    0.7264 N   0  0  0  0  0  0  0  0  0  0  0  0
   -2.6232    1.4327    0.7611 C   0  0  0  0  0  0  0  0  0  0  0  0
   -3.5031    2.1244    1.5934 C   0  0  0  0  0  0  0  0  0  0  0  0
   -3.1801    2.8608    2.8583 C   0  0  0  0  0  0  0  0  0  0  0  0
   -3.0593    4.3673    2.6018 C   0  0  0  0  0  0  0  0  0  0  0  0
   -0.4152    1.1441    1.8760 C   0  0  0  0  0  0  0  0  0  0  0  0
    0.2313    2.5207    2.0460 C   0  0  0  0  0  0  0  0  0  0  0  0
    2.2140    0.8334   -0.1296 C   0  0  0  0  0  0  0  0  0  0  0  0
    2.1744    2.0130   -1.0984 C   0  0  0  0  0  0  0  0  0  0  0  0
    7.0478   -2.6894   -1.9188 C   0  0  0  0  0  0  0  0  0  0  0  0
    7.7674   -3.8497   -2.0735 C   0  0  0  0  0  0  0  0  0  0  0  0
    7.1981   -5.2041   -1.9350 C   0  0  0  0  0  0  0  0  0  0  0  0
    6.0382   -5.5110   -1.7774 O   0  0  0  0  0  0  0  0  0  0  0  0
    8.3731   -6.1126   -1.8948 C   0  0  0  0  0  0  0  0  0  0  0  0
    9.5594   -5.3637   -1.9868 C   0  0  0  0  0  0  0  0  0  0  0  0
   10.7941   -5.9884   -1.9458 C   0  0  0  0  0  0  0  0  0  0  0  0
   10.8216   -7.3696   -1.8150 C   0  0  0  0  0  0  0  0  0  0  0  0
   12.0004   -7.9942   -1.7700 F   0  0  0  0  0  0  0  0  0  0  0  0
    9.6559   -8.1276   -1.7277 C   0  0  0  0  0  0  0  0  0  0  0  0
    9.7247   -9.4557   -1.6083 F   0  0  0  0  0  0  0  0  0  0  0  0
    8.4140   -7.4890   -1.7646 C   0  0  0  0  0  0  0  0  0  0  0  0
    7.3034   -8.2155   -1.6836 F   0  0  0  0  0  0  0  0  0  0  0  0
    9.2068   -3.9504   -2.1226 C   0  0  0  0  0  0  0  0  0  0  0  0
   10.0871   -2.9237   -2.3479 C   0  0  0  0  0  0  0  0  0  0  0  0
    9.7063   -1.5857   -2.5863 C   0  0  0  0  0  0  0  0  0  0  0  0
    9.4643   -0.4859   -2.8104 N   0  0  0  0  0  0  0  0  0  0  0  0
   11.4880   -3.0765   -2.4037 C   0  0  0  0  0  0  0  0  0  0  0  0
   12.6331   -3.1379   -2.4497 N   0  0  0  0  0  0  0  0  0  0  0  0
   -5.6486    3.1405    2.6543 H   0  0  0  0  0  0  0  0  0  0  0  0
  -10.9584    4.4729    2.6328 H   0  0  0  0  0  0  0  0  0  0  0  0
    6.1519   -4.0789   -4.1159 H   0  0  0  0  0  0  0  0  0  0  0  0
    4.8189   -5.1108   -3.6075 H   0  0  0  0  0  0  0  0  0  0  0  0
    3.2897   -4.0041   -5.1973 H   0  0  0  0  0  0  0  0  0  0  0  0
    4.5179   -2.7959   -5.5896 H   0  0  0  0  0  0  0  0  0  0  0  0
    4.7539   -4.4837   -6.0469 H   0  0  0  0  0  0  0  0  0  0  0  0
   -2.2497    2.4924    3.2831 H   0  0  0  0  0  0  0  0  0  0  0  0
   -3.9556    2.6909    3.6072 H   0  0  0  0  0  0  0  0  0  0  0  0
   -2.7901    4.8783    3.5222 H   0  0  0  0  0  0  0  0  0  0  0  0
   -2.3020    4.5736    1.8481 H   0  0  0  0  0  0  0  0  0  0  0  0
   -4.0026    4.7746    2.2482 H   0  0  0  0  0  0  0  0  0  0  0  0
   -1.0033    0.9003    2.7667 H   0  0  0  0  0  0  0  0  0  0  0  0
    0.3364    0.3590    1.7753 H   0  0  0  0  0  0  0  0  0  0  0  0
   -0.4993    3.2555    2.3659 H   0  0  0  0  0  0  0  0  0  0  0  0
    0.6594    2.8725    1.1119 H   0  0  0  0  0  0  0  0  0  0  0  0
    1.0138    2.4710    2.7994 H   0  0  0  0  0  0  0  0  0  0  0  0
    3.2410    0.4726   -0.0331 H   0  0  0  0  0  0  0  0  0  0  0  0
    1.8803    1.1383    0.8564 H   0  0  0  0  0  0  0  0  0  0  0  0
    1.1532    2.3620   -1.2387 H   0  0  0  0  0  0  0  0  0  0  0  0
    2.5702    1.7182   -2.0675 H   0  0  0  0  0  0  0  0  0  0  0  0
    2.7784    2.8296   -0.7128 H   0  0  0  0  0  0  0  0  0  0  0  0
    7.5864   -1.8040   -1.6001 H   0  0  0  0  0  0  0  0  0  0  0  0
   11.7268   -5.4525   -2.0054 H   0  0  0  0  0  0  0  0  0  0  0  0
  1  2  2  0  0  0  0
  2  3  1  0  0  0  0
  3  4  2  0  0  0  0
  3  5  1  0  0  0  0
  5  6  2  0  0  0  0
  6  7  1  0  0  0  0
  7  8  2  0  0  0  0
  8  9  1  0  0  0  0
  8 10  1  0  0  0  0
 10 11  1  0  0  0  0
 10 12  2  0  0  0  0
 12 13  1  0  0  0  0
  6 14  1  0  0  0  0
 14 15  2  0  0  0  0
 15 16  1  0  0  0  0
 16 17  3  0  0  0  0
 15 18  1  0  0  0  0
 18 19  3  0  0  0  0
  1 20  1  0  0  0  0
 20 21  1  0  0  0  0
 21 22  1  0  0  0  0
 22 23  1  0  0  0  0
 23 24  1  0  0  0  0
 24 25  1  0  0  0  0
 25 26  2  0  0  0  0
 26 27  1  0  0  0  0
 27 28  1  0  0  0  0
 25 29  1  0  0  0  0
 29 30  1  0  0  0  0
 30 31  1  0  0  0  0
 31 32  1  0  0  0  0
 32 33  1  0  0  0  0
 33 34  1  0  0  0  0
 34 35  1  0  0  0  0
 33 36  2  0  0  0  0
 36 37  1  0  0  0  0
 37 38  1  0  0  0  0
 38 39  1  0  0  0  0
 39 40  1  0  0  0  0
 40 41  1  0  0  0  0
 41 42  1  0  0  0  0
 42 43  1  0  0  0  0
 43 44  1  0  0  0  0
 44 45  1  0  0  0  0
 45 46  1  0  0  0  0
 46 47  1  0  0  0  0
 43 48  1  0  0  0  0
 48 49  1  0  0  0  0
 40 50  1  0  0  0  0
 50 51  1  0  0  0  0
 36 52  1  0  0  0  0
 52 53  2  0  0  0  0
 53 54  1  0  0  0  0
 54 55  2  0  0  0  0
 54 56  1  0  0  0  0
 56 57  2  0  0  0  0
 57 58  1  0  0  0  0
 58 59  2  0  0  0  0
 59 60  1  0  0  0  0
 59 61  1  0  0  0  0
 61 62  1  0  0  0  0
 61 63  2  0  0  0  0
 63 64  1  0  0  0  0
 57 65  1  0  0  0  0
 65 66  2  0  0  0  0
 66 67  1  0  0  0  0
 67 68  3  0  0  0  0
 66 69  1  0  0  0  0
 69 70  3  0  0  0  0
 14  2  1  0  0  0  0
 45 20  2  0  0  0  0
 65 53  1  0  0  0  0
 12  5  1  0  0  0  0
 44 22  2  0  0  0  0
 63 56  1  0  0  0  0
 42 23  2  0  0  0  0
 28 24  2  0  0  0  0
 41 29  2  0  0  0  0
 39 30  2  0  0  0  0
 38 32  2  0  0  0  0
  1 71  1  0  0  0  0
  7 72  1  0  0  0  0
 34 73  1  0  0  0  0
 34 74  1  0  0  0  0
 35 75  1  0  0  0  0
 35 76  1  0  0  0  0
 35 77  1  0  0  0  0
 46 78  1  0  0  0  0
 46 79  1  0  0  0  0
 47 80  1  0  0  0  0
 47 81  1  0  0  0  0
 47 82  1  0  0  0  0
 48 83  1  0  0  0  0
 48 84  1  0  0  0  0
 49 85  1  0  0  0  0
 49 86  1  0  0  0  0
 49 87  1  0  0  0  0
 50 88  1  0  0  0  0
 50 89  1  0  0  0  0
 51 90  1  0  0  0  0
 51 91  1  0  0  0  0
 51 92  1  0  0  0  0
 52 93  1  0  0  0  0
 58 94  1  0  0  0  0
M  END
