
  xtb     02022200273D
 energy: -186.825138086379 gnorm: 0.003594686443 xtb: 6.4.1 (unknown)
 85 96  0     0  0            999 V2000
    4.5230    7.6379    0.6370 C   0  0  0  0  0  0  0  0  0  0  0  0
    5.8090    7.4775    0.1613 C   0  0  0  0  0  0  0  0  0  0  0  0
    6.3359    6.2500   -0.4118 C   0  0  0  0  0  0  0  0  0  0  0  0
    5.7398    5.1968   -0.5887 O   0  0  0  0  0  0  0  0  0  0  0  0
    7.7506    6.5202   -0.7388 C   0  0  0  0  0  0  0  0  0  0  0  0
    8.0630    7.8450   -0.3798 C   0  0  0  0  0  0  0  0  0  0  0  0
    9.3443    8.3360   -0.5616 C   0  0  0  0  0  0  0  0  0  0  0  0
   10.2978    7.4884   -1.1101 C   0  0  0  0  0  0  0  0  0  0  0  0
   11.5409    7.9409   -1.2877 F   0  0  0  0  0  0  0  0  0  0  0  0
   10.0004    6.1783   -1.4807 C   0  0  0  0  0  0  0  0  0  0  0  0
   10.9448    5.3968   -2.0092 F   0  0  0  0  0  0  0  0  0  0  0  0
    8.7066    5.6867   -1.2911 C   0  0  0  0  0  0  0  0  0  0  0  0
    8.4222    4.4355   -1.6409 F   0  0  0  0  0  0  0  0  0  0  0  0
    6.8567    8.4755    0.1669 C   0  0  0  0  0  0  0  0  0  0  0  0
    6.7748    9.7779    0.5857 C   0  0  0  0  0  0  0  0  0  0  0  0
    5.6205   10.4042    1.1035 C   0  0  0  0  0  0  0  0  0  0  0  0
    4.7316   10.9899    1.5346 N   0  0  0  0  0  0  0  0  0  0  0  0
    7.8508   10.6913    0.5508 C   0  0  0  0  0  0  0  0  0  0  0  0
    8.6829   11.4821    0.5500 N   0  0  0  0  0  0  0  0  0  0  0  0
    3.4624    6.7332    0.7178 C   0  0  0  0  0  0  0  0  0  0  0  0
    2.2389    7.1094    1.2894 C   0  0  0  0  0  0  0  0  0  0  0  0
    1.2884    6.1125    1.3534 C   0  0  0  0  0  0  0  0  0  0  0  0
   -0.3336    6.1251    2.0243 S   0  0  0  0  0  0  0  0  0  0  0  0
   -0.4784    4.4510    1.6187 C   0  0  0  0  0  0  0  0  0  0  0  0
   -1.3832    3.3966    1.7753 C   0  0  0  0  0  0  0  0  0  0  0  0
   -2.6260    3.3558    2.4456 C   0  0  0  0  0  0  0  0  0  0  0  0
   -3.2898    2.0970    2.5850 C   0  0  0  0  0  0  0  0  0  0  0  0
   -4.4142    2.1905    3.2780 N   0  0  0  0  0  0  0  0  0  0  0  0
   -4.6206    3.7350    3.7126 S   0  0  0  0  0  0  0  0  0  0  0  0
   -3.2817    4.3426    3.0368 N   0  0  0  0  0  0  0  0  0  0  0  0
   -2.7195    0.9565    1.9775 C   0  0  0  0  0  0  0  0  0  0  0  0
   -3.1827   -0.3624    1.9264 C   0  0  0  0  0  0  0  0  0  0  0  0
   -2.2782   -1.0825    1.1334 C   0  0  0  0  0  0  0  0  0  0  0  0
   -1.2658   -0.2582    0.7161 N   0  0  0  0  0  0  0  0  0  0  0  0
   -0.4038   -0.7010   -0.3567 C   0  0  0  0  0  0  0  0  0  0  0  0
   -0.7755   -0.0408   -1.6819 C   0  0  0  0  0  0  0  0  0  0  0  0
   -1.5038    1.0086    1.2294 C   0  0  0  0  0  0  0  0  0  0  0  0
   -0.7840    2.2342    1.1942 C   0  0  0  0  0  0  0  0  0  0  0  0
    0.4593    2.5982    0.7077 N   0  0  0  0  0  0  0  0  0  0  0  0
    0.6533    3.9256    0.9812 C   0  0  0  0  0  0  0  0  0  0  0  0
    1.6801    4.8593    0.8257 C   0  0  0  0  0  0  0  0  0  0  0  0
    3.4244    4.9116    0.1674 Se  0  0  0  0  0  2  0  0  0  0  0  0
    1.5848    1.8034    0.2744 C   0  0  0  0  0  0  0  0  0  0  0  0
    2.1625    0.9804    1.4233 C   0  0  0  0  0  0  0  0  0  0  0  0
   -2.6388   -2.4260    1.0015 C   0  0  0  0  0  0  0  0  0  0  0  0
   -3.8257   -2.7040    1.7202 C   0  0  0  0  0  0  0  0  0  0  0  0
   -4.4923   -1.3063    2.5351 S   0  0  0  0  0  0  0  0  0  0  0  0
   -4.2779   -4.0136    1.6891 C   0  0  0  0  0  0  0  0  0  0  0  0
   -3.4858   -4.8785    0.9475 C   0  0  0  0  0  0  0  0  0  0  0  0
   -1.9957   -3.9608    0.1690 Se  0  0  0  0  0  2  0  0  0  0  0  0
   -3.5768   -6.2506    0.6750 C   0  0  0  0  0  0  0  0  0  0  0  0
   -4.4540   -7.2222    1.0948 C   0  0  0  0  0  0  0  0  0  0  0  0
   -5.5650   -7.0985    2.0592 C   0  0  0  0  0  0  0  0  0  0  0  0
   -6.0062   -6.1068    2.5949 O   0  0  0  0  0  0  0  0  0  0  0  0
   -6.0642   -8.4819    2.2628 C   0  0  0  0  0  0  0  0  0  0  0  0
   -5.3410   -9.3748    1.4557 C   0  0  0  0  0  0  0  0  0  0  0  0
   -5.6154  -10.7331    1.4933 C   0  0  0  0  0  0  0  0  0  0  0  0
   -6.6240  -11.1738    2.3400 C   0  0  0  0  0  0  0  0  0  0  0  0
   -6.9008  -12.4790    2.3947 F   0  0  0  0  0  0  0  0  0  0  0  0
   -7.3562  -10.2983    3.1387 C   0  0  0  0  0  0  0  0  0  0  0  0
   -8.3198  -10.7624    3.9370 F   0  0  0  0  0  0  0  0  0  0  0  0
   -7.0710   -8.9314    3.1004 C   0  0  0  0  0  0  0  0  0  0  0  0
   -7.7656   -8.0978    3.8677 F   0  0  0  0  0  0  0  0  0  0  0  0
   -4.3639   -8.6087    0.6781 C   0  0  0  0  0  0  0  0  0  0  0  0
   -3.5660   -9.1394   -0.3039 C   0  0  0  0  0  0  0  0  0  0  0  0
   -3.5532  -10.5062   -0.6588 C   0  0  0  0  0  0  0  0  0  0  0  0
   -3.4889  -11.6012   -0.9970 N   0  0  0  0  0  0  0  0  0  0  0  0
   -2.6634   -8.4303   -1.1243 C   0  0  0  0  0  0  0  0  0  0  0  0
   -1.9148   -7.9382   -1.8435 N   0  0  0  0  0  0  0  0  0  0  0  0
    4.2789    8.6164    1.0353 H   0  0  0  0  0  0  0  0  0  0  0  0
    9.6363    9.3386   -0.2958 H   0  0  0  0  0  0  0  0  0  0  0  0
    2.0731    8.1075    1.6596 H   0  0  0  0  0  0  0  0  0  0  0  0
   -0.5486   -1.7839   -0.4448 H   0  0  0  0  0  0  0  0  0  0  0  0
    0.6430   -0.5443   -0.1011 H   0  0  0  0  0  0  0  0  0  0  0  0
   -0.1095   -0.3852   -2.4687 H   0  0  0  0  0  0  0  0  0  0  0  0
   -1.7955   -0.3035   -1.9542 H   0  0  0  0  0  0  0  0  0  0  0  0
   -0.7131    1.0434   -1.6140 H   0  0  0  0  0  0  0  0  0  0  0  0
    1.3090    1.1834   -0.5771 H   0  0  0  0  0  0  0  0  0  0  0  0
    2.3480    2.5066   -0.0802 H   0  0  0  0  0  0  0  0  0  0  0  0
    1.4001    0.3549    1.8826 H   0  0  0  0  0  0  0  0  0  0  0  0
    2.9694    0.3494    1.0616 H   0  0  0  0  0  0  0  0  0  0  0  0
    2.5622    1.6434    2.1873 H   0  0  0  0  0  0  0  0  0  0  0  0
   -5.1637   -4.3476    2.2010 H   0  0  0  0  0  0  0  0  0  0  0  0
   -2.7857   -6.6015    0.0209 H   0  0  0  0  0  0  0  0  0  0  0  0
   -5.0841  -11.4596    0.9019 H   0  0  0  0  0  0  0  0  0  0  0  0
  1  2  2  0  0  0  0
  2  3  1  0  0  0  0
  3  4  2  0  0  0  0
  3  5  1  0  0  0  0
  5  6  2  0  0  0  0
  6  7  1  0  0  0  0
  7  8  2  0  0  0  0
  8  9  1  0  0  0  0
  8 10  1  0  0  0  0
 10 11  1  0  0  0  0
 10 12  2  0  0  0  0
 12 13  1  0  0  0  0
  6 14  1  0  0  0  0
 14 15  2  0  0  0  0
 15 16  1  0  0  0  0
 16 17  3  0  0  0  0
 15 18  1  0  0  0  0
 18 19  3  0  0  0  0
  1 20  1  0  0  0  0
 20 21  2  0  0  0  0
 21 22  1  0  0  0  0
 22 23  1  0  0  0  0
 23 24  1  0  0  0  0
 24 25  1  0  0  0  0
 25 26  1  0  0  0  0
 26 27  1  0  0  0  0
 27 28  2  0  0  0  0
 28 29  1  0  0  0  0
 29 30  1  0  0  0  0
 27 31  1  0  0  0  0
 31 32  1  0  0  0  0
 32 33  2  0  0  0  0
 33 34  1  0  0  0  0
 34 35  1  0  0  0  0
 35 36  1  0  0  0  0
 34 37  1  0  0  0  0
 37 38  1  0  0  0  0
 38 39  1  0  0  0  0
 39 40  1  0  0  0  0
 40 41  1  0  0  0  0
 41 42  1  0  0  0  0
 39 43  1  0  0  0  0
 43 44  1  0  0  0  0
 33 45  1  0  0  0  0
 45 46  2  0  0  0  0
 46 47  1  0  0  0  0
 46 48  1  0  0  0  0
 48 49  2  0  0  0  0
 49 50  1  0  0  0  0
 49 51  1  0  0  0  0
 51 52  2  0  0  0  0
 52 53  1  0  0  0  0
 53 54  2  0  0  0  0
 53 55  1  0  0  0  0
 55 56  2  0  0  0  0
 56 57  1  0  0  0  0
 57 58  2  0  0  0  0
 58 59  1  0  0  0  0
 58 60  1  0  0  0  0
 60 61  1  0  0  0  0
 60 62  2  0  0  0  0
 62 63  1  0  0  0  0
 56 64  1  0  0  0  0
 64 65  2  0  0  0  0
 65 66  1  0  0  0  0
 66 67  3  0  0  0  0
 65 68  1  0  0  0  0
 68 69  3  0  0  0  0
 14  2  1  0  0  0  0
 42 20  1  0  0  0  0
 50 45  1  0  0  0  0
 64 52  1  0  0  0  0
 12  5  1  0  0  0  0
 41 22  2  0  0  0  0
 62 55  1  0  0  0  0
 40 24  2  0  0  0  0
 38 25  2  0  0  0  0
 30 26  2  0  0  0  0
 37 31  2  0  0  0  0
 47 32  1  0  0  0  0
  1 70  1  0  0  0  0
  7 71  1  0  0  0  0
 21 72  1  0  0  0  0
 35 73  1  0  0  0  0
 35 74  1  0  0  0  0
 36 75  1  0  0  0  0
 36 76  1  0  0  0  0
 36 77  1  0  0  0  0
 43 78  1  0  0  0  0
 43 79  1  0  0  0  0
 44 80  1  0  0  0  0
 44 81  1  0  0  0  0
 44 82  1  0  0  0  0
 48 83  1  0  0  0  0
 51 84  1  0  0  0  0
 57 85  1  0  0  0  0
M  END
