
  xtb     02012222343D
 energy: -138.335014044350 gnorm: 0.000696003165 xtb: 6.4.1 (unknown)
 64 71  0     0  0            999 V2000
   -1.1363    4.1595   -1.0211 C   0  0  0  0  0  0  0  0  0  0  0  0
   -1.1507    5.5304   -1.0241 C   0  0  0  0  0  0  0  0  0  0  0  0
   -0.7075    6.4555    0.0439 C   0  0  0  0  0  0  0  0  0  0  0  0
   -0.4197    6.2098    1.1913 O   0  0  0  0  0  0  0  0  0  0  0  0
   -0.6905    7.7983   -0.5888 C   0  0  0  0  0  0  0  0  0  0  0  0
   -1.1660    7.7140   -1.9079 C   0  0  0  0  0  0  0  0  0  0  0  0
   -1.2264    8.8431   -2.7078 C   0  0  0  0  0  0  0  0  0  0  0  0
   -0.8086   10.0499   -2.1658 C   0  0  0  0  0  0  0  0  0  0  0  0
   -0.8527   11.1492   -2.9203 F   0  0  0  0  0  0  0  0  0  0  0  0
   -0.3413   10.1518   -0.8567 C   0  0  0  0  0  0  0  0  0  0  0  0
    0.0492   11.3324   -0.3724 F   0  0  0  0  0  0  0  0  0  0  0  0
   -0.2818    9.0089   -0.0564 C   0  0  0  0  0  0  0  0  0  0  0  0
    0.1677    9.1075    1.1895 F   0  0  0  0  0  0  0  0  0  0  0  0
   -1.5288    6.3232   -2.1814 C   0  0  0  0  0  0  0  0  0  0  0  0
   -2.1791    5.8936   -3.3077 C   0  0  0  0  0  0  0  0  0  0  0  0
   -2.6337    4.5787   -3.5531 C   0  0  0  0  0  0  0  0  0  0  0  0
   -3.0559    3.5466   -3.8261 N   0  0  0  0  0  0  0  0  0  0  0  0
   -2.5378    6.7348   -4.3842 C   0  0  0  0  0  0  0  0  0  0  0  0
   -2.8541    7.3624   -5.2911 N   0  0  0  0  0  0  0  0  0  0  0  0
   -0.8091    3.2245   -0.0225 C   0  0  0  0  0  0  0  0  0  0  0  0
   -0.4678    3.3377    1.3208 C   0  0  0  0  0  0  0  0  0  0  0  0
   -0.2406    2.1147    1.9335 C   0  0  0  0  0  0  0  0  0  0  0  0
    0.1967    1.8981    3.3601 C   0  0  0  0  0  0  0  0  0  0  0  0
   -0.2814    3.0015    4.1648 N   0  0  0  0  0  0  0  0  0  0  0  0
   -1.3491    2.8425    4.8213 C   0  0  0  0  0  0  0  0  0  0  0  0
   -2.1106    1.5885    4.7929 C   0  0  0  0  0  0  0  0  0  0  0  0
   -1.6230    0.5051    4.3617 N   0  0  0  0  0  0  0  0  0  0  0  0
   -0.2417    0.5195    3.9070 C   0  0  0  0  0  0  0  0  0  0  0  0
   -0.1024   -0.5704    2.8830 C   0  0  0  0  0  0  0  0  0  0  0  0
   -0.2295   -0.2923    1.5282 C   0  0  0  0  0  0  0  0  0  0  0  0
   -0.4041    1.0318    1.0694 C   0  0  0  0  0  0  0  0  0  0  0  0
   -0.8401    1.5360   -0.5129 S   0  0  0  0  0  0  0  0  0  0  0  0
   -0.1342   -1.7173    0.5628 S   0  0  0  0  0  0  0  0  0  0  0  0
    0.0783   -2.7039    1.9867 C   0  0  0  0  0  0  0  0  0  0  0  0
    0.0338   -1.9315    3.1351 C   0  0  0  0  0  0  0  0  0  0  0  0
    0.1865   -4.1169    1.9429 C   0  0  0  0  0  0  0  0  0  0  0  0
    0.5718   -4.9204    0.9189 C   0  0  0  0  0  0  0  0  0  0  0  0
    0.1888   -6.3620    0.9276 C   0  0  0  0  0  0  0  0  0  0  0  0
   -0.2236   -6.9960    1.8679 O   0  0  0  0  0  0  0  0  0  0  0  0
    0.3699   -6.8093   -0.4711 C   0  0  0  0  0  0  0  0  0  0  0  0
    0.0357   -8.0235   -1.0368 C   0  0  0  0  0  0  0  0  0  0  0  0
    0.2924   -8.1742   -2.3918 C   0  0  0  0  0  0  0  0  0  0  0  0
   -0.0144   -9.3375   -2.9844 F   0  0  0  0  0  0  0  0  0  0  0  0
    0.8524   -7.1643   -3.1623 C   0  0  0  0  0  0  0  0  0  0  0  0
    1.1929   -5.9526   -2.5815 C   0  0  0  0  0  0  0  0  0  0  0  0
    0.9548   -5.7749   -1.2266 C   0  0  0  0  0  0  0  0  0  0  0  0
    1.2419   -4.6514   -0.3389 C   0  0  0  0  0  0  0  0  0  0  0  0
    2.1964   -3.6944   -0.5516 C   0  0  0  0  0  0  0  0  0  0  0  0
    2.6473   -2.8178    0.4582 C   0  0  0  0  0  0  0  0  0  0  0  0
    3.0688   -2.1245    1.2698 N   0  0  0  0  0  0  0  0  0  0  0  0
    2.9028   -3.5468   -1.7635 C   0  0  0  0  0  0  0  0  0  0  0  0
    3.4925   -3.3809   -2.7336 N   0  0  0  0  0  0  0  0  0  0  0  0
   -1.4011    3.6885   -1.9607 H   0  0  0  0  0  0  0  0  0  0  0  0
   -1.5751    8.8267   -3.7269 H   0  0  0  0  0  0  0  0  0  0  0  0
   -0.3856    4.2815    1.8288 H   0  0  0  0  0  0  0  0  0  0  0  0
    1.2944    1.9586    3.3786 H   0  0  0  0  0  0  0  0  0  0  0  0
   -1.7072    3.6754    5.4116 H   0  0  0  0  0  0  0  0  0  0  0  0
   -3.1382    1.5785    5.1322 H   0  0  0  0  0  0  0  0  0  0  0  0
    0.3732    0.2650    4.7815 H   0  0  0  0  0  0  0  0  0  0  0  0
    0.1297   -2.3531    4.1192 H   0  0  0  0  0  0  0  0  0  0  0  0
   -0.1566   -4.6352    2.8339 H   0  0  0  0  0  0  0  0  0  0  0  0
   -0.4023   -8.8182   -0.4544 H   0  0  0  0  0  0  0  0  0  0  0  0
    1.0183   -7.3378   -4.2138 H   0  0  0  0  0  0  0  0  0  0  0  0
    1.6211   -5.1687   -3.1848 H   0  0  0  0  0  0  0  0  0  0  0  0
  1  2  2  0  0  0  0
  2  3  1  0  0  0  0
  3  4  2  0  0  0  0
  3  5  1  0  0  0  0
  5  6  2  0  0  0  0
  6  7  1  0  0  0  0
  7  8  2  0  0  0  0
  8  9  1  0  0  0  0
  8 10  1  0  0  0  0
 10 11  1  0  0  0  0
 10 12  2  0  0  0  0
 12 13  1  0  0  0  0
  6 14  1  0  0  0  0
 14 15  2  0  0  0  0
 15 16  1  0  0  0  0
 16 17  3  0  0  0  0
 15 18  1  0  0  0  0
 18 19  3  0  0  0  0
  1 20  1  0  0  0  0
 20 21  2  0  0  0  0
 21 22  1  0  0  0  0
 22 23  1  0  0  0  0
 23 24  1  0  0  0  0
 24 25  2  0  0  0  0
 25 26  1  0  0  0  0
 26 27  2  0  0  0  0
 27 28  1  0  0  0  0
 28 29  1  0  0  0  0
 29 30  2  0  0  0  0
 30 31  1  0  0  0  0
 31 32  1  0  0  0  0
 30 33  1  0  0  0  0
 33 34  1  0  0  0  0
 34 35  2  0  0  0  0
 34 36  1  0  0  0  0
 36 37  2  0  0  0  0
 37 38  1  0  0  0  0
 38 39  2  0  0  0  0
 38 40  1  0  0  0  0
 40 41  2  0  0  0  0
 41 42  1  0  0  0  0
 42 43  1  0  0  0  0
 42 44  2  0  0  0  0
 44 45  1  0  0  0  0
 45 46  2  0  0  0  0
 46 47  1  0  0  0  0
 47 48  2  0  0  0  0
 48 49  1  0  0  0  0
 49 50  3  0  0  0  0
 48 51  1  0  0  0  0
 51 52  3  0  0  0  0
 14  2  1  0  0  0  0
 32 20  1  0  0  0  0
 47 37  1  0  0  0  0
 12  5  1  0  0  0  0
 31 22  2  0  0  0  0
 46 40  1  0  0  0  0
 28 23  1  0  0  0  0
 35 29  1  0  0  0  0
  1 53  1  0  0  0  0
  7 54  1  0  0  0  0
 21 55  1  0  0  0  0
 23 56  1  0  0  0  0
 25 57  1  0  0  0  0
 26 58  1  0  0  0  0
 28 59  1  0  0  0  0
 35 60  1  0  0  0  0
 36 61  1  0  0  0  0
 41 62  1  0  0  0  0
 44 63  1  0  0  0  0
 45 64  1  0  0  0  0
M  END
