150

C          5.41610       -6.91990        0.62590
C          5.46650       -8.01040        1.47180
C          4.37670       -8.49160        2.31830
O          3.26630       -8.01570        2.44860
C          4.90020       -9.70430        2.99400
C          6.22590       -9.93090        2.58440
C          6.93610      -11.01390        3.07240
C          6.30160      -11.85980        3.97160
F          6.96850      -12.91240        4.45260
C          4.99070      -11.64690        4.38950
F          4.41620      -12.48360        5.25830
C          4.27950      -10.55180        3.89290
F          3.02800      -10.35040        4.29470
C          6.61030       -8.87220        1.64580
C          7.85840       -8.73850        1.08700
C          8.26630       -7.69850        0.22710
N          8.67910       -6.88020       -0.46680
C          8.93050       -9.62580        1.31530
N          9.84230      -10.30910        1.45550
C          4.41590       -5.98240        0.38910
S          2.84100       -5.95040        1.18290
C          2.44730       -4.53870        0.31500
C          1.40090       -3.58900        0.30470
C          1.70710       -2.57700       -0.59000
C          2.97070       -2.89850       -1.35420
C          3.45410       -4.10900       -0.57100
C          4.57990       -4.90580       -0.52400
C          5.84560       -4.64140       -1.26690
C          2.62380       -3.46950       -2.73290
C          3.63580       -3.74710       -3.64590
C          3.34860       -4.31600       -4.87110
C          2.04310       -4.63050       -5.22630
C          1.73980       -5.29300       -6.53820
C          1.82790       -6.81440       -6.39980
C          1.03550       -4.35390       -4.31420
C          1.31850       -3.78380       -3.08560
C          3.87540       -1.68110       -1.42070
C          3.91970       -0.93900       -2.59790
C          4.68130        0.20750       -2.70240
C          5.42330        0.65610       -1.61960
C          6.21800        1.92610       -1.70290
C          5.33650        3.12640       -1.35120
C          5.34990       -0.06430       -0.43820
C          4.58170       -1.21520       -0.30730
C          4.53880       -1.88690        1.03300
C          0.78160       -1.51450       -0.56200
C          0.79990       -0.29490       -1.24250
C         -0.19490        0.61250       -0.96940
S         -0.29090        2.23020       -1.64150
C         -1.71640        2.52160       -0.70510
C         -2.56920        3.62230       -0.45740
C         -3.53800        3.22670        0.48230
C         -3.36390        1.76770        0.85320
C         -4.60410        1.01940        0.39910
C         -5.79630        1.20850        1.08910
C         -6.95200        0.57220        0.68170
C         -6.95220       -0.26420       -0.42820
C         -8.19830       -0.99130       -0.84240
C         -8.28400       -2.34700       -0.13800
C         -5.76000       -0.44780       -1.11380
C         -4.59890        0.18820       -0.71080
C         -3.05650        1.55440        2.32530
C         -3.47810        0.41190        2.99210
C         -3.13250        0.20530        4.31460
C         -2.35620        1.12760        5.00370
C         -1.94210        0.86990        6.42310
C         -0.66450        0.02860        6.45910
C         -1.93070        2.26460        4.32950
C         -2.27230        2.47560        3.00700
C         -2.12540        1.43680        0.05130
C         -1.25760        0.33070       -0.05770
C         -1.28540       -0.89590        0.60950
C         -0.26520       -1.78550        0.37160
S         -0.06660       -3.32830        1.18520
C         -4.38450        4.25540        0.81560
C         -4.06660        5.45660        0.15750
S         -2.68660        5.26240       -0.91800
C         -4.78510        6.63250        0.39320
C         -4.59780        7.90770       -0.08710
C         -3.52490        8.32670       -0.99150
O         -2.67850        7.62500       -1.51840
C         -3.65970        9.78700       -1.14190
C         -2.87820       10.64760       -1.85590
C         -3.18720       12.02630       -1.84050
C         -2.41150       12.96040       -2.55360
C         -2.72920       14.28930       -2.51630
F         -1.98870       15.17750       -3.19450
C         -3.83360       14.74040       -1.76700
F         -4.12080       16.04920       -1.74760
C         -4.60590       13.85730       -1.06560
C         -4.30490       12.48070       -1.08300
C         -5.09780       11.56140       -0.35720
C         -4.78020       10.22950       -0.38530
C         -5.39280        9.06790        0.25880
C         -6.52550        9.10550        1.03250
C         -7.24790       10.28310        1.31680
N         -7.88140       11.20120        1.58870
C         -7.14430        7.99690        1.64580
N         -7.71240        7.15060        2.17660
H          6.30670       -6.75550        0.03550
H          7.95190      -11.23030        2.78700
H          6.72110       -4.81880       -0.64550
H          5.86730       -3.60550       -1.59600
H          5.92050       -5.29020       -2.13960
H          4.65690       -3.49480       -3.41140
H          4.15330       -4.51560       -5.56420
H          2.45230       -4.95910       -7.29520
H          0.73580       -5.01930       -6.86830
H          1.11640       -7.16870       -5.65730
H          1.60800       -7.29570       -7.34960
H          2.82630       -7.10890       -6.08400
H          0.00990       -4.58370       -4.56540
H          0.50360       -3.58190       -2.40740
H          3.34320       -1.26060       -3.45270
H          4.69470        0.75730       -3.63220
H          6.60930        2.05150       -2.71440
H          7.06200        1.88290       -1.01190
H          5.90820        4.04920       -1.41310
H          4.49450        3.19230       -2.03670
H          4.94620        3.02580       -0.34080
H          5.90470        0.28680        0.42090
H          5.12700       -2.80320        1.03250
H          3.51880       -2.13750        1.31500
H          4.94970       -1.22550        1.79210
H          1.59520       -0.06900       -1.93380
H         -5.81370        1.84780        1.95930
H         -7.86900        0.73020        1.23090
H         -8.19440       -1.14700       -1.92300
H         -9.07660       -0.39620       -0.58560
H         -7.42300       -2.96100       -0.39220
H         -8.30140       -2.21200        0.94100
H         -9.18690       -2.87410       -0.43660
H         -5.73670       -1.09390       -1.97970
H         -3.68730        0.02990       -1.26760
H         -4.08940       -0.31790        2.48090
H         -3.47280       -0.68770        4.81900
H         -1.76490        1.81700        6.93610
H         -2.73690        0.33850        6.95010
H         -0.36220       -0.15970        7.48650
H         -0.82530       -0.92630        5.96370
H          0.14410        0.54650        5.94790
H         -1.32380        2.99500        4.84520
H         -1.92620        3.36520        2.50010
H         -2.07140       -1.11550        1.31280
H         -5.20020        4.19530        1.51340
H         -5.60400        6.49330        1.08870
H         -2.03440       10.28260       -2.42140
H         -1.56240       12.63080       -3.13160
H         -5.44820       14.21960       -0.49710
H         -5.93500       11.93970        0.20640
