99

C         -2.05350       -2.99990       -6.84510
C         -1.92440       -3.00880       -8.21700
C         -0.88470       -2.27470       -8.95620
O          0.00470       -1.58610       -8.50910
C         -1.24730       -2.43200      -10.39060
C         -2.44570       -3.15830      -10.49900
C         -3.00750       -3.41110      -11.73840
C         -2.34990       -2.93260      -12.86300
F         -2.87380       -3.16460      -14.07010
C         -1.15820       -2.21820      -12.77390
F         -0.54920       -1.78200      -13.88110
C         -0.60230       -1.96050      -11.51840
F          0.53980       -1.28110      -11.43870
C         -2.88030       -3.53970       -9.15310
C         -3.96000       -4.33670       -8.86270
C         -4.29920       -4.78530       -7.56930
N         -4.62360       -5.20550       -6.55090
C         -4.85970       -4.83640       -9.82560
N         -5.62720       -5.26540      -10.56380
C         -1.05670       -2.71330       -5.90960
C          0.34450       -2.86570       -6.00080
O          0.85550       -3.43890       -7.08030
C          2.25430       -3.65750       -7.19460
C          2.68210       -4.95200       -6.51440
C          0.98190       -2.44130       -4.82040
S          2.66040       -2.30470       -4.31140
C          2.14130       -1.67000       -2.79510
C          2.69480       -1.21150       -1.58820
C          4.00930       -1.21550       -1.06640
C          4.22320       -0.80350        0.29590
N          5.48650       -0.93540        0.66710
S          6.33580       -1.51530       -0.58150
N          5.12420       -1.62650       -1.64870
C          3.14220       -0.26280        1.03020
C          3.05070        0.35140        2.28950
S          4.04690        0.67390        3.66200
C          2.69010        1.49960        4.42610
C          2.50060        2.14150        5.65050
O          3.35500        2.32740        6.65540
C          4.69630        1.87470        6.52890
C          5.41090        2.22810        7.82150
C          1.18250        2.64800        5.78600
S          0.19460        2.30350        4.37450
C          1.53410        1.51180        3.62820
C          1.74780        0.85250        2.41420
N          1.02090        0.55510        1.28950
C          1.84980       -0.15790        0.44800
C          1.59930       -0.78610       -0.79130
N          0.41490       -1.04410       -1.45450
C          0.74850       -1.56640       -2.68010
C          0.08880       -2.00670       -3.82880
S         -1.55440       -2.14170       -4.32090
C         -0.86160       -1.36300       -0.84390
C         -1.05230       -2.87430       -0.72110
C         -0.10810        1.38140        0.90730
C          0.30760        2.84320        0.74910
C          0.80320        3.33250        6.93850
C         -0.40710        3.88640        7.28560
C         -1.61870        3.83980        6.46870
O         -1.74090        3.35360        5.35650
C         -2.67120        4.49950        7.26370
C         -4.00730        4.71160        6.96870
Cl        -4.67770        4.18830        5.47780
C         -4.80770        5.36000        7.90700
C         -4.26600        5.77980        9.10830
C         -2.92510        5.57550        9.41580
C         -2.12490        4.93320        8.48760
C         -0.70320        4.57840        8.51770
C          0.16540        4.88160        9.53560
C          1.54280        4.57730        9.56430
N          2.66920        4.37770        9.67240
C         -0.19980        5.56650       10.71330
N         -0.42610        6.11690       11.69530
H         -3.03610       -3.18500       -6.42680
H         -3.92790       -3.95600      -11.86750
H          2.81000       -2.80160       -6.80150
H          2.42720       -3.71980       -8.27200
H          2.12840       -5.79090       -6.92870
H          3.74310       -5.11170       -6.67980
H          2.50030       -4.90810       -5.44350
H          5.17200        2.36790        5.67220
H          4.70880        0.79120        6.35870
H          5.34000        3.29660        8.00370
H          4.94920        1.71000        8.65710
H          6.45580        1.94150        7.75400
H         -0.89660       -0.93250        0.15470
H         -1.65970       -0.93630       -1.45890
H         -1.08020       -3.34750       -1.69830
H         -0.24040       -3.30990       -0.14240
H         -1.99080       -3.07900       -0.21440
H         -0.50060        1.03290       -0.04570
H         -0.87790        1.29910        1.68020
H          1.10560        2.93170        0.01480
H         -0.54540        3.42420        0.41080
H          0.64940        3.25590        1.69350
H          1.61210        3.41530        7.65400
H         -5.84960        5.52910        7.68650
H         -4.89920        6.27860        9.82590
H         -2.53500        5.91370       10.36100
