
  xtb     02012220363D
 energy: -203.167511941533 gnorm: 0.000753085343 xtb: 6.4.1 (unknown)
 97108  0     0  0            999 V2000
    6.3791    2.3010   -5.0094 C   0  0  0  0  0  0  0  0  0  0  0  0
    6.3678    3.6572   -4.8257 C   0  0  0  0  0  0  0  0  0  0  0  0
    6.7524    4.5487   -5.9448 C   0  0  0  0  0  0  0  0  0  0  0  0
    7.2891    4.2309   -6.9775 O   0  0  0  0  0  0  0  0  0  0  0  0
    6.2820    5.8975   -5.5289 C   0  0  0  0  0  0  0  0  0  0  0  0
    5.7711    5.8360   -4.2189 C   0  0  0  0  0  0  0  0  0  0  0  0
    5.2449    6.9594   -3.6070 C   0  0  0  0  0  0  0  0  0  0  0  0
    5.2365    8.1467   -4.3253 C   0  0  0  0  0  0  0  0  0  0  0  0
    4.7217    9.2429   -3.7631 F   0  0  0  0  0  0  0  0  0  0  0  0
    5.7470    8.2306   -5.6188 C   0  0  0  0  0  0  0  0  0  0  0  0
    5.7269    9.3943   -6.2739 F   0  0  0  0  0  0  0  0  0  0  0  0
    6.2777    7.0908   -6.2288 C   0  0  0  0  0  0  0  0  0  0  0  0
    6.7620    7.1785   -7.4631 F   0  0  0  0  0  0  0  0  0  0  0  0
    5.9532    4.4740   -3.7146 C   0  0  0  0  0  0  0  0  0  0  0  0
    6.0002    4.1217   -2.3888 C   0  0  0  0  0  0  0  0  0  0  0  0
    6.5306    2.8904   -1.9499 C   0  0  0  0  0  0  0  0  0  0  0  0
    7.0148    1.9243   -1.5628 N   0  0  0  0  0  0  0  0  0  0  0  0
    5.6142    4.9646   -1.3297 C   0  0  0  0  0  0  0  0  0  0  0  0
    5.2744    5.5961   -0.4331 N   0  0  0  0  0  0  0  0  0  0  0  0
    5.6802    1.3039   -4.3103 C   0  0  0  0  0  0  0  0  0  0  0  0
    5.9452   -0.0655   -4.3420 C   0  0  0  0  0  0  0  0  0  0  0  0
    7.1239   -0.6811   -5.0141 C   0  0  0  0  0  0  0  0  0  0  0  0
    8.3763   -0.5109   -4.1496 C   0  0  0  0  0  0  0  0  0  0  0  0
    5.0341   -0.7793   -3.5645 C   0  0  0  0  0  0  0  0  0  0  0  0
    4.8876   -2.4811   -3.1861 S   0  0  0  0  0  0  0  0  0  0  0  0
    3.5058   -2.1183   -2.2158 C   0  0  0  0  0  0  0  0  0  0  0  0
    2.6106   -2.7717   -1.3618 C   0  0  0  0  0  0  0  0  0  0  0  0
    2.5684   -4.1215   -0.9481 C   0  0  0  0  0  0  0  0  0  0  0  0
    1.6104   -4.5087    0.0410 C   0  0  0  0  0  0  0  0  0  0  0  0
    1.7088   -5.7878    0.3682 N   0  0  0  0  0  0  0  0  0  0  0  0
    2.9052   -6.4474   -0.4987 S   0  0  0  0  0  0  0  0  0  0  0  0
    3.3436   -5.1263   -1.3248 N   0  0  0  0  0  0  0  0  0  0  0  0
    0.6845   -3.5480    0.5042 C   0  0  0  0  0  0  0  0  0  0  0  0
   -0.3954   -3.6840    1.3826 C   0  0  0  0  0  0  0  0  0  0  0  0
   -1.1409   -4.8947    2.3672 S   0  0  0  0  0  0  0  0  0  0  0  0
   -2.3708   -3.7258    2.8154 C   0  0  0  0  0  0  0  0  0  0  0  0
   -3.4776   -3.8055    3.6472 C   0  0  0  0  0  0  0  0  0  0  0  0
   -3.8703   -5.0558    4.3630 C   0  0  0  0  0  0  0  0  0  0  0  0
   -4.9410   -5.8205    3.5792 C   0  0  0  0  0  0  0  0  0  0  0  0
   -4.1789   -2.5845    3.6850 C   0  0  0  0  0  0  0  0  0  0  0  0
   -3.4237   -1.3513    2.6738 S   0  0  0  0  0  0  0  0  0  0  0  0
   -2.1914   -2.4634    2.2192 C   0  0  0  0  0  0  0  0  0  0  0  0
   -1.0538   -2.4484    1.4092 C   0  0  0  0  0  0  0  0  0  0  0  0
   -0.4124   -1.5602    0.5915 N   0  0  0  0  0  0  0  0  0  0  0  0
    0.6790   -2.1969    0.0334 C   0  0  0  0  0  0  0  0  0  0  0  0
    1.7131   -1.7833   -0.8523 C   0  0  0  0  0  0  0  0  0  0  0  0
    2.0936   -0.5587   -1.3708 N   0  0  0  0  0  0  0  0  0  0  0  0
    3.1664   -0.7590   -2.1950 C   0  0  0  0  0  0  0  0  0  0  0  0
    4.0421    0.0105   -2.9605 C   0  0  0  0  0  0  0  0  0  0  0  0
    4.2456    1.6763   -3.3516 S   0  0  0  0  0  0  0  0  0  0  0  0
    1.7056    0.7981   -1.0601 C   0  0  0  0  0  0  0  0  0  0  0  0
    0.8689    1.4223   -2.1769 C   0  0  0  0  0  0  0  0  0  0  0  0
   -1.0291   -0.2763    0.3465 C   0  0  0  0  0  0  0  0  0  0  0  0
   -0.7830    0.7070    1.4908 C   0  0  0  0  0  0  0  0  0  0  0  0
   -5.3187   -2.3865    4.4661 C   0  0  0  0  0  0  0  0  0  0  0  0
   -6.1238   -1.2825    4.6249 C   0  0  0  0  0  0  0  0  0  0  0  0
   -6.0024   -0.0131    3.9150 C   0  0  0  0  0  0  0  0  0  0  0  0
   -5.1263    0.3284    3.1419 O   0  0  0  0  0  0  0  0  0  0  0  0
   -7.1885    0.7834    4.2997 C   0  0  0  0  0  0  0  0  0  0  0  0
   -7.5901    2.0181    3.8230 C   0  0  0  0  0  0  0  0  0  0  0  0
   -6.6149    2.9211    2.7537 Cl  0  0  0  0  0  0  0  0  0  0  0  0
   -8.8353    2.5139    4.2349 C   0  0  0  0  0  0  0  0  0  0  0  0
   -9.3601    4.0511    3.7023 Cl  0  0  0  0  0  0  0  0  0  0  0  0
   -9.6643    1.7348    5.0401 C   0  0  0  0  0  0  0  0  0  0  0  0
  -11.2211    2.3161    5.4454 Cl  0  0  0  0  0  0  0  0  0  0  0  0
   -9.2539    0.4766    5.5123 C   0  0  0  0  0  0  0  0  0  0  0  0
  -10.4009   -0.4918    6.3413 Cl  0  0  0  0  0  0  0  0  0  0  0  0
   -7.9748    0.0343    5.1991 C   0  0  0  0  0  0  0  0  0  0  0  0
   -7.2374   -1.1787    5.5497 C   0  0  0  0  0  0  0  0  0  0  0  0
   -7.4206   -1.9482    6.6704 C   0  0  0  0  0  0  0  0  0  0  0  0
   -8.2274   -1.6139    7.7800 C   0  0  0  0  0  0  0  0  0  0  0  0
   -8.7561   -1.3834    8.7721 N   0  0  0  0  0  0  0  0  0  0  0  0
   -6.6901   -3.1198    6.9664 C   0  0  0  0  0  0  0  0  0  0  0  0
   -6.1558   -4.0913    7.2677 N   0  0  0  0  0  0  0  0  0  0  0  0
    6.9437    1.9652   -5.8743 H   0  0  0  0  0  0  0  0  0  0  0  0
    4.8383    6.9468   -2.6091 H   0  0  0  0  0  0  0  0  0  0  0  0
    6.9258   -1.7442   -5.1623 H   0  0  0  0  0  0  0  0  0  0  0  0
    7.2883   -0.2169   -5.9885 H   0  0  0  0  0  0  0  0  0  0  0  0
    8.2320   -0.9815   -3.1806 H   0  0  0  0  0  0  0  0  0  0  0  0
    8.5880    0.5433   -3.9883 H   0  0  0  0  0  0  0  0  0  0  0  0
    9.2304   -0.9712   -4.6384 H   0  0  0  0  0  0  0  0  0  0  0  0
   -2.9839   -5.6856    4.4590 H   0  0  0  0  0  0  0  0  0  0  0  0
   -4.2397   -4.8318    5.3652 H   0  0  0  0  0  0  0  0  0  0  0  0
   -5.8369   -5.2162    3.4558 H   0  0  0  0  0  0  0  0  0  0  0  0
   -5.2071   -6.7296    4.1109 H   0  0  0  0  0  0  0  0  0  0  0  0
   -4.5674   -6.0900    2.5941 H   0  0  0  0  0  0  0  0  0  0  0  0
    1.1873    0.8195   -0.1066 H   0  0  0  0  0  0  0  0  0  0  0  0
    2.6265    1.3812   -0.9473 H   0  0  0  0  0  0  0  0  0  0  0  0
    0.0104    0.8032   -2.4293 H   0  0  0  0  0  0  0  0  0  0  0  0
    0.5175    2.4022   -1.8669 H   0  0  0  0  0  0  0  0  0  0  0  0
    1.4694    1.5414   -3.0749 H   0  0  0  0  0  0  0  0  0  0  0  0
   -2.1081   -0.4457    0.2667 H   0  0  0  0  0  0  0  0  0  0  0  0
   -0.6854    0.1140   -0.6069 H   0  0  0  0  0  0  0  0  0  0  0  0
   -1.1467    1.6916    1.2116 H   0  0  0  0  0  0  0  0  0  0  0  0
   -1.3188    0.3873    2.3800 H   0  0  0  0  0  0  0  0  0  0  0  0
    0.2734    0.7773    1.7422 H   0  0  0  0  0  0  0  0  0  0  0  0
   -5.6122   -3.2648    5.0240 H   0  0  0  0  0  0  0  0  0  0  0  0
  1  2  2  0  0  0  0
  2  3  1  0  0  0  0
  3  4  2  0  0  0  0
  3  5  1  0  0  0  0
  5  6  2  0  0  0  0
  6  7  1  0  0  0  0
  7  8  2  0  0  0  0
  8  9  1  0  0  0  0
  8 10  1  0  0  0  0
 10 11  1  0  0  0  0
 10 12  2  0  0  0  0
 12 13  1  0  0  0  0
  6 14  1  0  0  0  0
 14 15  2  0  0  0  0
 15 16  1  0  0  0  0
 16 17  3  0  0  0  0
 15 18  1  0  0  0  0
 18 19  3  0  0  0  0
  1 20  1  0  0  0  0
 20 21  2  0  0  0  0
 21 22  1  0  0  0  0
 22 23  1  0  0  0  0
 21 24  1  0  0  0  0
 24 25  1  0  0  0  0
 25 26  1  0  0  0  0
 26 27  1  0  0  0  0
 27 28  1  0  0  0  0
 28 29  1  0  0  0  0
 29 30  2  0  0  0  0
 30 31  1  0  0  0  0
 31 32  1  0  0  0  0
 29 33  1  0  0  0  0
 33 34  1  0  0  0  0
 34 35  1  0  0  0  0
 35 36  1  0  0  0  0
 36 37  1  0  0  0  0
 37 38  1  0  0  0  0
 38 39  1  0  0  0  0
 37 40  2  0  0  0  0
 40 41  1  0  0  0  0
 41 42  1  0  0  0  0
 42 43  1  0  0  0  0
 43 44  1  0  0  0  0
 44 45  1  0  0  0  0
 45 46  1  0  0  0  0
 46 47  1  0  0  0  0
 47 48  1  0  0  0  0
 48 49  1  0  0  0  0
 49 50  1  0  0  0  0
 47 51  1  0  0  0  0
 51 52  1  0  0  0  0
 44 53  1  0  0  0  0
 53 54  1  0  0  0  0
 40 55  1  0  0  0  0
 55 56  2  0  0  0  0
 56 57  1  0  0  0  0
 57 58  2  0  0  0  0
 57 59  1  0  0  0  0
 59 60  2  0  0  0  0
 60 61  1  0  0  0  0
 60 62  1  0  0  0  0
 62 63  1  0  0  0  0
 62 64  2  0  0  0  0
 64 65  1  0  0  0  0
 64 66  1  0  0  0  0
 66 67  1  0  0  0  0
 66 68  2  0  0  0  0
 68 69  1  0  0  0  0
 69 70  2  0  0  0  0
 70 71  1  0  0  0  0
 71 72  3  0  0  0  0
 70 73  1  0  0  0  0
 73 74  3  0  0  0  0
 14  2  1  0  0  0  0
 50 20  1  0  0  0  0
 69 56  1  0  0  0  0
 12  5  1  0  0  0  0
 49 24  2  0  0  0  0
 68 59  1  0  0  0  0
 48 26  2  0  0  0  0
 46 27  2  0  0  0  0
 32 28  2  0  0  0  0
 45 33  2  0  0  0  0
 43 34  2  0  0  0  0
 42 36  2  0  0  0  0
  1 75  1  0  0  0  0
  7 76  1  0  0  0  0
 22 77  1  0  0  0  0
 22 78  1  0  0  0  0
 23 79  1  0  0  0  0
 23 80  1  0  0  0  0
 23 81  1  0  0  0  0
 38 82  1  0  0  0  0
 38 83  1  0  0  0  0
 39 84  1  0  0  0  0
 39 85  1  0  0  0  0
 39 86  1  0  0  0  0
 51 87  1  0  0  0  0
 51 88  1  0  0  0  0
 52 89  1  0  0  0  0
 52 90  1  0  0  0  0
 52 91  1  0  0  0  0
 53 92  1  0  0  0  0
 53 93  1  0  0  0  0
 54 94  1  0  0  0  0
 54 95  1  0  0  0  0
 54 96  1  0  0  0  0
 55 97  1  0  0  0  0
M  END
