
  xtb     01272209533D
 energy: -195.431305892006 gnorm: 0.000329668925 xtb: 6.4.1 (unknown)
 97108  0     0  0            999 V2000
   -0.4147    6.2187   -3.9517 C   0  0  0  0  0  0  0  0  0  0  0  0
   -0.3529    7.2045   -2.9883 C   0  0  0  0  0  0  0  0  0  0  0  0
    0.0554    7.0187   -1.5979 C   0  0  0  0  0  0  0  0  0  0  0  0
    0.4130    5.9914   -1.0537 O   0  0  0  0  0  0  0  0  0  0  0  0
   -0.0422    8.3563   -0.9678 C   0  0  0  0  0  0  0  0  0  0  0  0
   -0.4812    9.2910   -1.9219 C   0  0  0  0  0  0  0  0  0  0  0  0
   -0.6564   10.6189   -1.5730 C   0  0  0  0  0  0  0  0  0  0  0  0
   -0.3858   10.9920   -0.2636 C   0  0  0  0  0  0  0  0  0  0  0  0
   -0.5494   12.2679    0.0937 F   0  0  0  0  0  0  0  0  0  0  0  0
    0.0511   10.0779    0.6920 C   0  0  0  0  0  0  0  0  0  0  0  0
    0.3006   10.4769    1.9421 F   0  0  0  0  0  0  0  0  0  0  0  0
    0.2256    8.7394    0.3335 C   0  0  0  0  0  0  0  0  0  0  0  0
    0.6416    7.8665    1.2471 F   0  0  0  0  0  0  0  0  0  0  0  0
   -0.6817    8.5957   -3.1969 C   0  0  0  0  0  0  0  0  0  0  0  0
   -1.1161    9.1938   -4.3536 C   0  0  0  0  0  0  0  0  0  0  0  0
   -1.4196   10.5665   -4.4720 C   0  0  0  0  0  0  0  0  0  0  0  0
   -1.6828   11.6714   -4.6379 N   0  0  0  0  0  0  0  0  0  0  0  0
   -1.3303    8.5449   -5.5875 C   0  0  0  0  0  0  0  0  0  0  0  0
   -1.5326    8.0950   -6.6254 N   0  0  0  0  0  0  0  0  0  0  0  0
   -0.1775    4.8482   -3.8776 C   0  0  0  0  0  0  0  0  0  0  0  0
   -0.3459    3.9805   -4.9776 C   0  0  0  0  0  0  0  0  0  0  0  0
   -0.7929    4.3804   -6.3449 C   0  0  0  0  0  0  0  0  0  0  0  0
   -2.3212    4.4469   -6.4192 C   0  0  0  0  0  0  0  0  0  0  0  0
   -0.1131    2.6629   -4.6203 C   0  0  0  0  0  0  0  0  0  0  0  0
   -0.2299    1.1598   -5.5178 S   0  0  0  0  0  0  0  0  0  0  0  0
    0.1938    0.3042   -4.0767 C   0  0  0  0  0  0  0  0  0  0  0  0
    0.2865   -1.0165   -3.6223 C   0  0  0  0  0  0  0  0  0  0  0  0
   -0.0613   -2.2434   -4.2338 C   0  0  0  0  0  0  0  0  0  0  0  0
   -0.1297   -3.4275   -3.4250 C   0  0  0  0  0  0  0  0  0  0  0  0
   -0.5589   -4.4784   -4.1051 N   0  0  0  0  0  0  0  0  0  0  0  0
   -0.8431   -4.0234   -5.6316 S   0  0  0  0  0  0  0  0  0  0  0  0
   -0.4360   -2.4640   -5.4834 N   0  0  0  0  0  0  0  0  0  0  0  0
    0.2923   -3.3619   -2.0776 C   0  0  0  0  0  0  0  0  0  0  0  0
    0.3885   -4.3386   -1.0745 C   0  0  0  0  0  0  0  0  0  0  0  0
   -0.0259   -5.9947   -0.8140 S   0  0  0  0  0  0  0  0  0  0  0  0
    0.6113   -5.8830    0.8127 C   0  0  0  0  0  0  0  0  0  0  0  0
    0.6413   -6.7808    1.8878 C   0  0  0  0  0  0  0  0  0  0  0  0
    0.2460   -8.2153    1.7947 C   0  0  0  0  0  0  0  0  0  0  0  0
    0.9000   -8.9222    0.6086 C   0  0  0  0  0  0  0  0  0  0  0  0
    1.2021   -6.1859    3.0148 C   0  0  0  0  0  0  0  0  0  0  0  0
    1.7640   -4.5415    2.7044 S   0  0  0  0  0  0  0  0  0  0  0  0
    1.1413   -4.6159    1.1024 C   0  0  0  0  0  0  0  0  0  0  0  0
    0.9995   -3.7327    0.0305 C   0  0  0  0  0  0  0  0  0  0  0  0
    1.2652   -2.4146   -0.2398 N   0  0  0  0  0  0  0  0  0  0  0  0
    0.8008   -2.1559   -1.5179 C   0  0  0  0  0  0  0  0  0  0  0  0
    0.6539   -0.9494   -2.2455 C   0  0  0  0  0  0  0  0  0  0  0  0
    0.7311    0.3750   -1.8731 N   0  0  0  0  0  0  0  0  0  0  0  0
    0.4467    1.1369   -2.9752 C   0  0  0  0  0  0  0  0  0  0  0  0
    0.2562    2.4871   -3.2717 C   0  0  0  0  0  0  0  0  0  0  0  0
    0.3106    3.9807   -2.4181 S   0  0  0  0  0  0  0  0  0  0  0  0
    0.7420    0.9746   -0.5560 C   0  0  0  0  0  0  0  0  0  0  0  0
    2.0288    1.7541   -0.2867 C   0  0  0  0  0  0  0  0  0  0  0  0
    2.3348   -1.7490    0.4742 C   0  0  0  0  0  0  0  0  0  0  0  0
    3.6738   -2.4465    0.2354 C   0  0  0  0  0  0  0  0  0  0  0  0
    1.4053   -6.6907    4.3148 C   0  0  0  0  0  0  0  0  0  0  0  0
    0.5477   -7.5101    5.0011 C   0  0  0  0  0  0  0  0  0  0  0  0
   -0.8963   -7.6281    4.7048 C   0  0  0  0  0  0  0  0  0  0  0  0
   -1.5024   -7.2078    3.7432 O   0  0  0  0  0  0  0  0  0  0  0  0
   -1.4841   -8.2718    5.9028 C   0  0  0  0  0  0  0  0  0  0  0  0
   -2.8123   -8.5532    6.1536 C   0  0  0  0  0  0  0  0  0  0  0  0
   -3.1259   -9.1464    7.3661 C   0  0  0  0  0  0  0  0  0  0  0  0
   -4.4007   -9.4380    7.6504 F   0  0  0  0  0  0  0  0  0  0  0  0
   -2.1269   -9.4403    8.2950 C   0  0  0  0  0  0  0  0  0  0  0  0
   -2.4611  -10.0051    9.4602 F   0  0  0  0  0  0  0  0  0  0  0  0
   -0.7926   -9.1562    8.0440 C   0  0  0  0  0  0  0  0  0  0  0  0
   -0.4721   -8.5649    6.8323 C   0  0  0  0  0  0  0  0  0  0  0  0
    0.8105   -8.1411    6.2759 C   0  0  0  0  0  0  0  0  0  0  0  0
    2.0468   -8.3853    6.8124 C   0  0  0  0  0  0  0  0  0  0  0  0
    2.2581   -9.0355    8.0459 C   0  0  0  0  0  0  0  0  0  0  0  0
    2.4822   -9.5532    9.0452 N   0  0  0  0  0  0  0  0  0  0  0  0
    3.2606   -8.0558    6.1718 C   0  0  0  0  0  0  0  0  0  0  0  0
    4.2774   -7.8366    5.6866 N   0  0  0  0  0  0  0  0  0  0  0  0
   -0.7141    6.5482   -4.9370 H   0  0  0  0  0  0  0  0  0  0  0  0
   -0.9914   11.3720   -2.2664 H   0  0  0  0  0  0  0  0  0  0  0  0
   -0.4360    3.6297   -7.0527 H   0  0  0  0  0  0  0  0  0  0  0  0
   -0.3739    5.3462   -6.6297 H   0  0  0  0  0  0  0  0  0  0  0  0
   -2.6273    4.7246   -7.4234 H   0  0  0  0  0  0  0  0  0  0  0  0
   -2.7540    3.4795   -6.1756 H   0  0  0  0  0  0  0  0  0  0  0  0
   -2.7095    5.1878   -5.7245 H   0  0  0  0  0  0  0  0  0  0  0  0
    0.5252   -8.7259    2.7177 H   0  0  0  0  0  0  0  0  0  0  0  0
   -0.8424   -8.2670    1.7026 H   0  0  0  0  0  0  0  0  0  0  0  0
    1.9831   -8.8383    0.6672 H   0  0  0  0  0  0  0  0  0  0  0  0
    0.6352   -9.9761    0.6234 H   0  0  0  0  0  0  0  0  0  0  0  0
    0.5677   -8.5000   -0.3354 H   0  0  0  0  0  0  0  0  0  0  0  0
   -0.1000    1.6735   -0.5040 H   0  0  0  0  0  0  0  0  0  0  0  0
    0.5720    0.1957    0.1879 H   0  0  0  0  0  0  0  0  0  0  0  0
    2.0640    2.6450   -0.9072 H   0  0  0  0  0  0  0  0  0  0  0  0
    2.0558    2.0654    0.7533 H   0  0  0  0  0  0  0  0  0  0  0  0
    2.9146    1.1595   -0.5006 H   0  0  0  0  0  0  0  0  0  0  0  0
    2.4147   -0.7235    0.1329 H   0  0  0  0  0  0  0  0  0  0  0  0
    2.0945   -1.7613    1.5418 H   0  0  0  0  0  0  0  0  0  0  0  0
    3.9038   -2.4670   -0.8279 H   0  0  0  0  0  0  0  0  0  0  0  0
    3.6561   -3.4670    0.6076 H   0  0  0  0  0  0  0  0  0  0  0  0
    4.4613   -1.9060    0.7531 H   0  0  0  0  0  0  0  0  0  0  0  0
    2.2835   -6.3187    4.8306 H   0  0  0  0  0  0  0  0  0  0  0  0
   -3.5826   -8.3216    5.4355 H   0  0  0  0  0  0  0  0  0  0  0  0
   -0.0571   -9.3947    8.7948 H   0  0  0  0  0  0  0  0  0  0  0  0
  1  2  2  0  0  0  0
  2  3  1  0  0  0  0
  3  4  2  0  0  0  0
  3  5  1  0  0  0  0
  5  6  2  0  0  0  0
  6  7  1  0  0  0  0
  7  8  2  0  0  0  0
  8  9  1  0  0  0  0
  8 10  1  0  0  0  0
 10 11  1  0  0  0  0
 10 12  2  0  0  0  0
 12 13  1  0  0  0  0
  6 14  1  0  0  0  0
 14 15  2  0  0  0  0
 15 16  1  0  0  0  0
 16 17  3  0  0  0  0
 15 18  1  0  0  0  0
 18 19  3  0  0  0  0
  1 20  1  0  0  0  0
 20 21  2  0  0  0  0
 21 22  1  0  0  0  0
 22 23  1  0  0  0  0
 21 24  1  0  0  0  0
 24 25  1  0  0  0  0
 25 26  1  0  0  0  0
 26 27  1  0  0  0  0
 27 28  1  0  0  0  0
 28 29  1  0  0  0  0
 29 30  2  0  0  0  0
 30 31  1  0  0  0  0
 31 32  1  0  0  0  0
 29 33  1  0  0  0  0
 33 34  1  0  0  0  0
 34 35  1  0  0  0  0
 35 36  1  0  0  0  0
 36 37  1  0  0  0  0
 37 38  1  0  0  0  0
 38 39  1  0  0  0  0
 37 40  2  0  0  0  0
 40 41  1  0  0  0  0
 41 42  1  0  0  0  0
 42 43  1  0  0  0  0
 43 44  1  0  0  0  0
 44 45  1  0  0  0  0
 45 46  1  0  0  0  0
 46 47  1  0  0  0  0
 47 48  1  0  0  0  0
 48 49  1  0  0  0  0
 49 50  1  0  0  0  0
 47 51  1  0  0  0  0
 51 52  1  0  0  0  0
 44 53  1  0  0  0  0
 53 54  1  0  0  0  0
 40 55  1  0  0  0  0
 55 56  2  0  0  0  0
 56 57  1  0  0  0  0
 57 58  2  0  0  0  0
 57 59  1  0  0  0  0
 59 60  2  0  0  0  0
 60 61  1  0  0  0  0
 61 62  1  0  0  0  0
 61 63  2  0  0  0  0
 63 64  1  0  0  0  0
 63 65  1  0  0  0  0
 65 66  2  0  0  0  0
 66 67  1  0  0  0  0
 67 68  2  0  0  0  0
 68 69  1  0  0  0  0
 69 70  3  0  0  0  0
 68 71  1  0  0  0  0
 71 72  3  0  0  0  0
 14  2  1  0  0  0  0
 50 20  1  0  0  0  0
 67 56  1  0  0  0  0
 12  5  1  0  0  0  0
 49 24  2  0  0  0  0
 66 59  1  0  0  0  0
 48 26  2  0  0  0  0
 46 27  2  0  0  0  0
 32 28  2  0  0  0  0
 45 33  2  0  0  0  0
 43 34  2  0  0  0  0
 42 36  2  0  0  0  0
  1 73  1  0  0  0  0
  7 74  1  0  0  0  0
 22 75  1  0  0  0  0
 22 76  1  0  0  0  0
 23 77  1  0  0  0  0
 23 78  1  0  0  0  0
 23 79  1  0  0  0  0
 38 80  1  0  0  0  0
 38 81  1  0  0  0  0
 39 82  1  0  0  0  0
 39 83  1  0  0  0  0
 39 84  1  0  0  0  0
 51 85  1  0  0  0  0
 51 86  1  0  0  0  0
 52 87  1  0  0  0  0
 52 88  1  0  0  0  0
 52 89  1  0  0  0  0
 53 90  1  0  0  0  0
 53 91  1  0  0  0  0
 54 92  1  0  0  0  0
 54 93  1  0  0  0  0
 54 94  1  0  0  0  0
 55 95  1  0  0  0  0
 60 96  1  0  0  0  0
 65 97  1  0  0  0  0
M  END
