
  xtb     02022201493D
 energy: -191.060423666470 gnorm: 0.000631035337 xtb: 6.4.1 (unknown)
 98109  0     0  0            999 V2000
   -4.8847    2.4234   -4.6149 C   0  0  0  0  0  0  0  0  0  0  0  0
   -5.2993    3.5979   -4.0204 C   0  0  0  0  0  0  0  0  0  0  0  0
   -4.6454    4.2678   -2.8989 C   0  0  0  0  0  0  0  0  0  0  0  0
   -3.6596    3.9089   -2.2842 O   0  0  0  0  0  0  0  0  0  0  0  0
   -5.4330    5.4998   -2.6532 C   0  0  0  0  0  0  0  0  0  0  0  0
   -6.5037    5.5583   -3.5624 C   0  0  0  0  0  0  0  0  0  0  0  0
   -7.3892    6.6217   -3.5358 C   0  0  0  0  0  0  0  0  0  0  0  0
   -7.1856    7.6184   -2.5915 C   0  0  0  0  0  0  0  0  0  0  0  0
   -8.0272    8.6544   -2.5502 F   0  0  0  0  0  0  0  0  0  0  0  0
   -6.1297    7.5747   -1.6846 C   0  0  0  0  0  0  0  0  0  0  0  0
   -5.9671    8.5550   -0.7915 F   0  0  0  0  0  0  0  0  0  0  0  0
   -5.2405    6.4981   -1.7161 C   0  0  0  0  0  0  0  0  0  0  0  0
   -4.2322    6.4580   -0.8490 F   0  0  0  0  0  0  0  0  0  0  0  0
   -6.4478    4.3738   -4.4243 C   0  0  0  0  0  0  0  0  0  0  0  0
   -7.3552    4.0825   -5.4131 C   0  0  0  0  0  0  0  0  0  0  0  0
   -7.3299    2.9446   -6.2460 C   0  0  0  0  0  0  0  0  0  0  0  0
   -7.3844    2.0468   -6.9614 N   0  0  0  0  0  0  0  0  0  0  0  0
   -8.4653    4.8908   -5.7356 C   0  0  0  0  0  0  0  0  0  0  0  0
   -9.3847    5.5007   -6.0524 N   0  0  0  0  0  0  0  0  0  0  0  0
   -3.8313    1.5642   -4.3151 C   0  0  0  0  0  0  0  0  0  0  0  0
   -3.5614    0.3971   -5.0627 C   0  0  0  0  0  0  0  0  0  0  0  0
   -4.2885   -0.0353   -6.2930 C   0  0  0  0  0  0  0  0  0  0  0  0
   -3.7653    0.7080   -7.5255 C   0  0  0  0  0  0  0  0  0  0  0  0
   -2.4839   -0.2970   -4.5401 C   0  0  0  0  0  0  0  0  0  0  0  0
   -1.6963   -1.7918   -5.0135 S   0  0  0  0  0  0  0  0  0  0  0  0
   -0.6276   -1.6224   -3.6653 C   0  0  0  0  0  0  0  0  0  0  0  0
    0.4435   -2.3043   -3.0698 C   0  0  0  0  0  0  0  0  0  0  0  0
    1.2110   -3.4289   -3.4542 C   0  0  0  0  0  0  0  0  0  0  0  0
    2.3531   -3.8038   -2.6621 C   0  0  0  0  0  0  0  0  0  0  0  0
    3.0140   -4.8233   -3.1858 N   0  0  0  0  0  0  0  0  0  0  0  0
    2.2671   -5.2815   -4.5455 S   0  0  0  0  0  0  0  0  0  0  0  0
    1.0698   -4.1929   -4.5250 N   0  0  0  0  0  0  0  0  0  0  0  0
    2.5929   -3.1372   -1.4375 C   0  0  0  0  0  0  0  0  0  0  0  0
    3.4882   -3.3695   -0.3798 C   0  0  0  0  0  0  0  0  0  0  0  0
    4.7927   -4.4291    0.0248 S   0  0  0  0  0  0  0  0  0  0  0  0
    4.8606   -3.7050    1.6149 C   0  0  0  0  0  0  0  0  0  0  0  0
    5.6413   -3.9723    2.7451 C   0  0  0  0  0  0  0  0  0  0  0  0
    6.7082   -5.0165    2.7748 C   0  0  0  0  0  0  0  0  0  0  0  0
    8.0358   -4.4382    2.2774 C   0  0  0  0  0  0  0  0  0  0  0  0
    5.2846   -3.1560    3.8099 C   0  0  0  0  0  0  0  0  0  0  0  0
    4.0168   -2.0089    3.3754 S   0  0  0  0  0  0  0  0  0  0  0  0
    3.9220   -2.6816    1.7935 C   0  0  0  0  0  0  0  0  0  0  0  0
    3.1357   -2.4926    0.6564 C   0  0  0  0  0  0  0  0  0  0  0  0
    2.0723   -1.7117    0.2797 N   0  0  0  0  0  0  0  0  0  0  0  0
    1.7468   -2.0778   -1.0140 C   0  0  0  0  0  0  0  0  0  0  0  0
    0.7854   -1.5601   -1.9062 C   0  0  0  0  0  0  0  0  0  0  0  0
    0.0079   -0.4237   -1.8387 N   0  0  0  0  0  0  0  0  0  0  0  0
   -0.8641   -0.4687   -2.8986 C   0  0  0  0  0  0  0  0  0  0  0  0
   -1.9178    0.2973   -3.3942 C   0  0  0  0  0  0  0  0  0  0  0  0
   -2.7108    1.7620   -2.9621 S   0  0  0  0  0  0  0  0  0  0  0  0
    0.3756    0.8425   -1.2352 C   0  0  0  0  0  0  0  0  0  0  0  0
    0.9184    1.8153   -2.2811 C   0  0  0  0  0  0  0  0  0  0  0  0
    1.1606   -1.2113    1.2924 C   0  0  0  0  0  0  0  0  0  0  0  0
    0.5385   -2.3558    2.0923 C   0  0  0  0  0  0  0  0  0  0  0  0
    5.8749   -3.1371    5.0949 C   0  0  0  0  0  0  0  0  0  0  0  0
    5.3813   -2.6226    6.2532 C   0  0  0  0  0  0  0  0  0  0  0  0
    6.3185   -2.2869    7.3666 C   0  0  0  0  0  0  0  0  0  0  0  0
    7.4673   -2.6474    7.4602 O   0  0  0  0  0  0  0  0  0  0  0  0
    5.5438   -1.3992    8.2531 C   0  0  0  0  0  0  0  0  0  0  0  0
    5.9593   -0.6898    9.3787 C   0  0  0  0  0  0  0  0  0  0  0  0
    7.2286   -0.7853    9.8008 O   0  0  0  0  0  0  0  0  0  0  0  0
    5.0104    0.1076   10.0281 C   0  0  0  0  0  0  0  0  0  0  0  0
    3.7111    0.1943    9.5659 C   0  0  0  0  0  0  0  0  0  0  0  0
    3.2897   -0.5162    8.4486 C   0  0  0  0  0  0  0  0  0  0  0  0
    4.2128   -1.3160    7.8003 C   0  0  0  0  0  0  0  0  0  0  0  0
    4.0580   -2.2015    6.6474 C   0  0  0  0  0  0  0  0  0  0  0  0
    2.8737   -2.7444    6.2207 C   0  0  0  0  0  0  0  0  0  0  0  0
    2.7961   -3.8274    5.3203 C   0  0  0  0  0  0  0  0  0  0  0  0
    2.6832   -4.7391    4.6312 N   0  0  0  0  0  0  0  0  0  0  0  0
    1.6038   -2.3428    6.6781 C   0  0  0  0  0  0  0  0  0  0  0  0
    0.5399   -2.0376    6.9845 N   0  0  0  0  0  0  0  0  0  0  0  0
   -5.4719    2.0998   -5.4631 H   0  0  0  0  0  0  0  0  0  0  0  0
   -8.2237    6.7112   -4.2110 H   0  0  0  0  0  0  0  0  0  0  0  0
   -4.1241   -1.1062   -6.4272 H   0  0  0  0  0  0  0  0  0  0  0  0
   -5.3616    0.1359   -6.1957 H   0  0  0  0  0  0  0  0  0  0  0  0
   -2.7055    0.5086   -7.6658 H   0  0  0  0  0  0  0  0  0  0  0  0
   -3.9057    1.7809   -7.4181 H   0  0  0  0  0  0  0  0  0  0  0  0
   -4.3032    0.3769   -8.4090 H   0  0  0  0  0  0  0  0  0  0  0  0
    6.4069   -5.8366    2.1202 H   0  0  0  0  0  0  0  0  0  0  0  0
    6.8272   -5.4081    3.7848 H   0  0  0  0  0  0  0  0  0  0  0  0
    8.3666   -3.6266    2.9214 H   0  0  0  0  0  0  0  0  0  0  0  0
    8.7990   -5.2114    2.2741 H   0  0  0  0  0  0  0  0  0  0  0  0
    7.9257   -4.0550    1.2657 H   0  0  0  0  0  0  0  0  0  0  0  0
    1.1531    0.6679   -0.4936 H   0  0  0  0  0  0  0  0  0  0  0  0
   -0.5074    1.2740   -0.7540 H   0  0  0  0  0  0  0  0  0  0  0  0
    1.2420    2.7280   -1.7891 H   0  0  0  0  0  0  0  0  0  0  0  0
    0.1552    2.0725   -3.0095 H   0  0  0  0  0  0  0  0  0  0  0  0
    1.7682    1.3764   -2.8000 H   0  0  0  0  0  0  0  0  0  0  0  0
    0.3595   -0.6513    0.8152 H   0  0  0  0  0  0  0  0  0  0  0  0
    1.7214   -0.5498    1.9600 H   0  0  0  0  0  0  0  0  0  0  0  0
   -0.1446   -1.9503    2.8333 H   0  0  0  0  0  0  0  0  0  0  0  0
    1.2958   -2.9393    2.6091 H   0  0  0  0  0  0  0  0  0  0  0  0
   -0.0160   -3.0182    1.4310 H   0  0  0  0  0  0  0  0  0  0  0  0
    6.8924   -3.5101    5.1572 H   0  0  0  0  0  0  0  0  0  0  0  0
    7.3709   -0.2500   10.5921 H   0  0  0  0  0  0  0  0  0  0  0  0
    5.3071    0.6651   10.9067 H   0  0  0  0  0  0  0  0  0  0  0  0
    3.0078    0.8262   10.0865 H   0  0  0  0  0  0  0  0  0  0  0  0
    2.2737   -0.4305    8.1009 H   0  0  0  0  0  0  0  0  0  0  0  0
  1  2  2  0  0  0  0
  2  3  1  0  0  0  0
  3  4  2  0  0  0  0
  3  5  1  0  0  0  0
  5  6  2  0  0  0  0
  6  7  1  0  0  0  0
  7  8  2  0  0  0  0
  8  9  1  0  0  0  0
  8 10  1  0  0  0  0
 10 11  1  0  0  0  0
 10 12  2  0  0  0  0
 12 13  1  0  0  0  0
  6 14  1  0  0  0  0
 14 15  2  0  0  0  0
 15 16  1  0  0  0  0
 16 17  3  0  0  0  0
 15 18  1  0  0  0  0
 18 19  3  0  0  0  0
  1 20  1  0  0  0  0
 20 21  2  0  0  0  0
 21 22  1  0  0  0  0
 22 23  1  0  0  0  0
 21 24  1  0  0  0  0
 24 25  1  0  0  0  0
 25 26  1  0  0  0  0
 26 27  1  0  0  0  0
 27 28  1  0  0  0  0
 28 29  1  0  0  0  0
 29 30  2  0  0  0  0
 30 31  1  0  0  0  0
 31 32  1  0  0  0  0
 29 33  1  0  0  0  0
 33 34  1  0  0  0  0
 34 35  1  0  0  0  0
 35 36  1  0  0  0  0
 36 37  1  0  0  0  0
 37 38  1  0  0  0  0
 38 39  1  0  0  0  0
 37 40  2  0  0  0  0
 40 41  1  0  0  0  0
 41 42  1  0  0  0  0
 42 43  1  0  0  0  0
 43 44  1  0  0  0  0
 44 45  1  0  0  0  0
 45 46  1  0  0  0  0
 46 47  1  0  0  0  0
 47 48  1  0  0  0  0
 48 49  1  0  0  0  0
 49 50  1  0  0  0  0
 47 51  1  0  0  0  0
 51 52  1  0  0  0  0
 44 53  1  0  0  0  0
 53 54  1  0  0  0  0
 40 55  1  0  0  0  0
 55 56  2  0  0  0  0
 56 57  1  0  0  0  0
 57 58  2  0  0  0  0
 57 59  1  0  0  0  0
 59 60  2  0  0  0  0
 60 61  1  0  0  0  0
 60 62  1  0  0  0  0
 62 63  2  0  0  0  0
 63 64  1  0  0  0  0
 64 65  2  0  0  0  0
 65 66  1  0  0  0  0
 66 67  2  0  0  0  0
 67 68  1  0  0  0  0
 68 69  3  0  0  0  0
 67 70  1  0  0  0  0
 70 71  3  0  0  0  0
 14  2  1  0  0  0  0
 50 20  1  0  0  0  0
 66 56  1  0  0  0  0
 12  5  1  0  0  0  0
 49 24  2  0  0  0  0
 65 59  1  0  0  0  0
 48 26  2  0  0  0  0
 46 27  2  0  0  0  0
 32 28  2  0  0  0  0
 45 33  2  0  0  0  0
 43 34  2  0  0  0  0
 42 36  2  0  0  0  0
  1 72  1  0  0  0  0
  7 73  1  0  0  0  0
 22 74  1  0  0  0  0
 22 75  1  0  0  0  0
 23 76  1  0  0  0  0
 23 77  1  0  0  0  0
 23 78  1  0  0  0  0
 38 79  1  0  0  0  0
 38 80  1  0  0  0  0
 39 81  1  0  0  0  0
 39 82  1  0  0  0  0
 39 83  1  0  0  0  0
 51 84  1  0  0  0  0
 51 85  1  0  0  0  0
 52 86  1  0  0  0  0
 52 87  1  0  0  0  0
 52 88  1  0  0  0  0
 53 89  1  0  0  0  0
 53 90  1  0  0  0  0
 54 91  1  0  0  0  0
 54 92  1  0  0  0  0
 54 93  1  0  0  0  0
 55 94  1  0  0  0  0
 61 95  1  0  0  0  0
 62 96  1  0  0  0  0
 63 97  1  0  0  0  0
 64 98  1  0  0  0  0
M  END
