
  xtb     02012220463D
 energy: -199.656498647537 gnorm: 0.000515193052 xtb: 6.4.1 (unknown)
 97108  0     0  0            999 V2000
   -5.5636    5.2811    2.6935 C   0  0  0  0  0  0  0  0  0  0  0  0
   -6.6460    4.4569    2.9172 C   0  0  0  0  0  0  0  0  0  0  0  0
   -6.6807    3.0113    2.7038 C   0  0  0  0  0  0  0  0  0  0  0  0
   -5.7905    2.2964    2.2861 O   0  0  0  0  0  0  0  0  0  0  0  0
   -8.0413    2.5794    3.1020 C   0  0  0  0  0  0  0  0  0  0  0  0
   -8.7822    3.6980    3.5228 C   0  0  0  0  0  0  0  0  0  0  0  0
  -10.0900    3.5516    3.9517 C   0  0  0  0  0  0  0  0  0  0  0  0
  -10.6394    2.2768    3.9511 C   0  0  0  0  0  0  0  0  0  0  0  0
  -11.8987    2.1138    4.3628 F   0  0  0  0  0  0  0  0  0  0  0  0
   -9.9191    1.1598    3.5346 C   0  0  0  0  0  0  0  0  0  0  0  0
  -10.4846   -0.0499    3.5480 F   0  0  0  0  0  0  0  0  0  0  0  0
   -8.5996    1.3142    3.1032 C   0  0  0  0  0  0  0  0  0  0  0  0
   -7.9124    0.2474    2.7057 F   0  0  0  0  0  0  0  0  0  0  0  0
   -7.9347    4.8884    3.4080 C   0  0  0  0  0  0  0  0  0  0  0  0
   -8.3350    6.1661    3.7100 C   0  0  0  0  0  0  0  0  0  0  0  0
   -9.6222    6.5053    4.1779 C   0  0  0  0  0  0  0  0  0  0  0  0
  -10.6487    6.8506    4.5578 N   0  0  0  0  0  0  0  0  0  0  0  0
   -7.5411    7.3268    3.5990 C   0  0  0  0  0  0  0  0  0  0  0  0
   -6.9662    8.3197    3.5348 N   0  0  0  0  0  0  0  0  0  0  0  0
   -4.2813    5.0076    2.2212 C   0  0  0  0  0  0  0  0  0  0  0  0
   -3.2973    6.0070    2.0673 C   0  0  0  0  0  0  0  0  0  0  0  0
   -3.4488    7.4463    2.4342 C   0  0  0  0  0  0  0  0  0  0  0  0
   -3.1878    7.6537    3.9291 C   0  0  0  0  0  0  0  0  0  0  0  0
   -2.1153    5.4776    1.5761 C   0  0  0  0  0  0  0  0  0  0  0  0
   -0.5699    6.2065    1.1792 S   0  0  0  0  0  0  0  0  0  0  0  0
    0.0057    4.6499    0.6960 C   0  0  0  0  0  0  0  0  0  0  0  0
    1.1652    4.0687    0.1636 C   0  0  0  0  0  0  0  0  0  0  0  0
    2.3721    4.6113   -0.3380 C   0  0  0  0  0  0  0  0  0  0  0  0
    3.3115    3.7420   -0.9948 C   0  0  0  0  0  0  0  0  0  0  0  0
    4.3483    4.4015   -1.4848 N   0  0  0  0  0  0  0  0  0  0  0  0
    4.1699    5.9733   -1.1451 S   0  0  0  0  0  0  0  0  0  0  0  0
    2.7578    5.8765   -0.3611 N   0  0  0  0  0  0  0  0  0  0  0  0
    3.0828    2.3456   -0.9838 C   0  0  0  0  0  0  0  0  0  0  0  0
    3.8505    1.2478   -1.3982 C   0  0  0  0  0  0  0  0  0  0  0  0
    5.3245    0.9309   -2.2434 S   0  0  0  0  0  0  0  0  0  0  0  0
    5.0475   -0.7867   -2.0195 C   0  0  0  0  0  0  0  0  0  0  0  0
    5.7670   -1.9054   -2.4061 C   0  0  0  0  0  0  0  0  0  0  0  0
    7.0241   -1.8213   -3.2073 C   0  0  0  0  0  0  0  0  0  0  0  0
    6.7246   -1.9548   -4.7034 C   0  0  0  0  0  0  0  0  0  0  0  0
    5.1233   -3.0936   -2.0006 C   0  0  0  0  0  0  0  0  0  0  0  0
    3.6251   -2.7726   -1.1196 S   0  0  0  0  0  0  0  0  0  0  0  0
    3.8638   -1.0793   -1.3141 C   0  0  0  0  0  0  0  0  0  0  0  0
    3.1839    0.0886   -0.9673 C   0  0  0  0  0  0  0  0  0  0  0  0
    2.0218    0.4285   -0.3203 N   0  0  0  0  0  0  0  0  0  0  0  0
    1.9261    1.8043   -0.3567 C   0  0  0  0  0  0  0  0  0  0  0  0
    0.8957    2.6757    0.0568 C   0  0  0  0  0  0  0  0  0  0  0  0
   -0.4055    2.4269    0.4409 N   0  0  0  0  0  0  0  0  0  0  0  0
   -0.9438    3.6246    0.8408 C   0  0  0  0  0  0  0  0  0  0  0  0
   -2.1616    4.0899    1.3380 C   0  0  0  0  0  0  0  0  0  0  0  0
   -3.6922    3.4126    1.7386 S   0  0  0  0  0  0  0  0  0  0  0  0
   -1.2650    1.3585   -0.0321 C   0  0  0  0  0  0  0  0  0  0  0  0
   -2.1291    1.8238   -1.2032 C   0  0  0  0  0  0  0  0  0  0  0  0
    1.4526   -0.4568    0.6780 C   0  0  0  0  0  0  0  0  0  0  0  0
    2.4655   -0.7689    1.7787 C   0  0  0  0  0  0  0  0  0  0  0  0
    5.6269   -4.3595   -2.2947 C   0  0  0  0  0  0  0  0  0  0  0  0
    5.1439   -5.6192   -2.0106 C   0  0  0  0  0  0  0  0  0  0  0  0
    3.9310   -5.9209   -1.2525 C   0  0  0  0  0  0  0  0  0  0  0  0
    3.1479   -5.1365   -0.7529 O   0  0  0  0  0  0  0  0  0  0  0  0
    3.8458   -7.3997   -1.2037 C   0  0  0  0  0  0  0  0  0  0  0  0
    4.9386   -7.9538   -1.8937 C   0  0  0  0  0  0  0  0  0  0  0  0
    5.0832   -9.3269   -1.9910 C   0  0  0  0  0  0  0  0  0  0  0  0
    4.1232  -10.1296   -1.3903 C   0  0  0  0  0  0  0  0  0  0  0  0
    4.2440  -11.4564   -1.4728 F   0  0  0  0  0  0  0  0  0  0  0  0
    3.0361   -9.5956   -0.7025 C   0  0  0  0  0  0  0  0  0  0  0  0
    2.1341  -10.4024   -0.1377 F   0  0  0  0  0  0  0  0  0  0  0  0
    2.8959   -8.2091   -0.6079 C   0  0  0  0  0  0  0  0  0  0  0  0
    1.8578   -7.7000    0.0491 F   0  0  0  0  0  0  0  0  0  0  0  0
    5.7668   -6.8602   -2.4102 C   0  0  0  0  0  0  0  0  0  0  0  0
    6.9144   -7.0275   -3.1443 C   0  0  0  0  0  0  0  0  0  0  0  0
    7.7226   -5.9925   -3.6595 C   0  0  0  0  0  0  0  0  0  0  0  0
    8.4341   -5.2141   -4.1158 N   0  0  0  0  0  0  0  0  0  0  0  0
    7.4555   -8.2818   -3.4977 C   0  0  0  0  0  0  0  0  0  0  0  0
    7.9498   -9.2658   -3.8214 N   0  0  0  0  0  0  0  0  0  0  0  0
   -5.7201    6.3264    2.9210 H   0  0  0  0  0  0  0  0  0  0  0  0
  -10.6977    4.3762    4.2849 H   0  0  0  0  0  0  0  0  0  0  0  0
   -4.4449    7.8151    2.1859 H   0  0  0  0  0  0  0  0  0  0  0  0
   -2.7185    8.0226    1.8629 H   0  0  0  0  0  0  0  0  0  0  0  0
   -3.2913    8.7059    4.1770 H   0  0  0  0  0  0  0  0  0  0  0  0
   -3.8978    7.0872    4.5271 H   0  0  0  0  0  0  0  0  0  0  0  0
   -2.1815    7.3308    4.1857 H   0  0  0  0  0  0  0  0  0  0  0  0
    7.4811   -0.8471   -3.0226 H   0  0  0  0  0  0  0  0  0  0  0  0
    7.7342   -2.5939   -2.9099 H   0  0  0  0  0  0  0  0  0  0  0  0
    6.2660   -2.9163   -4.9212 H   0  0  0  0  0  0  0  0  0  0  0  0
    7.6481   -1.8792   -5.2698 H   0  0  0  0  0  0  0  0  0  0  0  0
    6.0497   -1.1656   -5.0260 H   0  0  0  0  0  0  0  0  0  0  0  0
   -1.9054    1.0339    0.7935 H   0  0  0  0  0  0  0  0  0  0  0  0
   -0.6504    0.5272   -0.3705 H   0  0  0  0  0  0  0  0  0  0  0  0
   -2.8055    2.6175   -0.9003 H   0  0  0  0  0  0  0  0  0  0  0  0
   -2.7220    0.9889   -1.5652 H   0  0  0  0  0  0  0  0  0  0  0  0
   -1.5015    2.1863   -2.0149 H   0  0  0  0  0  0  0  0  0  0  0  0
    0.5903    0.0255    1.1339 H   0  0  0  0  0  0  0  0  0  0  0  0
    1.1428   -1.3846    0.1877 H   0  0  0  0  0  0  0  0  0  0  0  0
    2.8145    0.1514    2.2427 H   0  0  0  0  0  0  0  0  0  0  0  0
    1.9924   -1.3856    2.5373 H   0  0  0  0  0  0  0  0  0  0  0  0
    3.3202   -1.3094    1.3828 H   0  0  0  0  0  0  0  0  0  0  0  0
    6.5547   -4.3310   -2.8493 H   0  0  0  0  0  0  0  0  0  0  0  0
    5.9017   -9.7989   -2.5083 H   0  0  0  0  0  0  0  0  0  0  0  0
  1  2  2  0  0  0  0
  2  3  1  0  0  0  0
  3  4  2  0  0  0  0
  3  5  1  0  0  0  0
  5  6  2  0  0  0  0
  6  7  1  0  0  0  0
  7  8  2  0  0  0  0
  8  9  1  0  0  0  0
  8 10  1  0  0  0  0
 10 11  1  0  0  0  0
 10 12  2  0  0  0  0
 12 13  1  0  0  0  0
  6 14  1  0  0  0  0
 14 15  2  0  0  0  0
 15 16  1  0  0  0  0
 16 17  3  0  0  0  0
 15 18  1  0  0  0  0
 18 19  3  0  0  0  0
  1 20  1  0  0  0  0
 20 21  2  0  0  0  0
 21 22  1  0  0  0  0
 22 23  1  0  0  0  0
 21 24  1  0  0  0  0
 24 25  1  0  0  0  0
 25 26  1  0  0  0  0
 26 27  1  0  0  0  0
 27 28  1  0  0  0  0
 28 29  1  0  0  0  0
 29 30  2  0  0  0  0
 30 31  1  0  0  0  0
 31 32  1  0  0  0  0
 29 33  1  0  0  0  0
 33 34  1  0  0  0  0
 34 35  1  0  0  0  0
 35 36  1  0  0  0  0
 36 37  1  0  0  0  0
 37 38  1  0  0  0  0
 38 39  1  0  0  0  0
 37 40  2  0  0  0  0
 40 41  1  0  0  0  0
 41 42  1  0  0  0  0
 42 43  1  0  0  0  0
 43 44  1  0  0  0  0
 44 45  1  0  0  0  0
 45 46  1  0  0  0  0
 46 47  1  0  0  0  0
 47 48  1  0  0  0  0
 48 49  1  0  0  0  0
 49 50  1  0  0  0  0
 47 51  1  0  0  0  0
 51 52  1  0  0  0  0
 44 53  1  0  0  0  0
 53 54  1  0  0  0  0
 40 55  1  0  0  0  0
 55 56  2  0  0  0  0
 56 57  1  0  0  0  0
 57 58  2  0  0  0  0
 57 59  1  0  0  0  0
 59 60  2  0  0  0  0
 60 61  1  0  0  0  0
 61 62  2  0  0  0  0
 62 63  1  0  0  0  0
 62 64  1  0  0  0  0
 64 65  1  0  0  0  0
 64 66  2  0  0  0  0
 66 67  1  0  0  0  0
 60 68  1  0  0  0  0
 68 69  2  0  0  0  0
 69 70  1  0  0  0  0
 70 71  3  0  0  0  0
 69 72  1  0  0  0  0
 72 73  3  0  0  0  0
 14  2  1  0  0  0  0
 50 20  1  0  0  0  0
 68 56  1  0  0  0  0
 12  5  1  0  0  0  0
 49 24  2  0  0  0  0
 66 59  1  0  0  0  0
 48 26  2  0  0  0  0
 46 27  2  0  0  0  0
 32 28  2  0  0  0  0
 45 33  2  0  0  0  0
 43 34  2  0  0  0  0
 42 36  2  0  0  0  0
  1 74  1  0  0  0  0
  7 75  1  0  0  0  0
 22 76  1  0  0  0  0
 22 77  1  0  0  0  0
 23 78  1  0  0  0  0
 23 79  1  0  0  0  0
 23 80  1  0  0  0  0
 38 81  1  0  0  0  0
 38 82  1  0  0  0  0
 39 83  1  0  0  0  0
 39 84  1  0  0  0  0
 39 85  1  0  0  0  0
 51 86  1  0  0  0  0
 51 87  1  0  0  0  0
 52 88  1  0  0  0  0
 52 89  1  0  0  0  0
 52 90  1  0  0  0  0
 53 91  1  0  0  0  0
 53 92  1  0  0  0  0
 54 93  1  0  0  0  0
 54 94  1  0  0  0  0
 54 95  1  0  0  0  0
 55 96  1  0  0  0  0
 61 97  1  0  0  0  0
M  END
