97

C          0.69080       -6.35820        4.00050
C         -0.14660       -6.08330        5.06280
C         -0.76670       -4.79290        5.35310
O         -0.66200       -3.75430        4.72900
C         -1.55840       -4.99600        6.58940
C         -1.42460       -6.32900        7.01560
C         -2.07540       -6.76890        8.15520
C         -2.85570       -5.85870        8.85510
F         -3.49220       -6.26320        9.95690
C         -2.99690       -4.53520        8.44570
F         -3.75730       -3.68990        9.14720
C         -2.33740       -4.09760        7.29500
F         -2.47290       -2.83300        6.90450
C         -0.54580       -7.03200        6.07590
C         -0.19990       -8.35720        6.17220
C         -0.64220       -9.22070        7.19630
N         -0.96410       -9.97780        7.99670
C          0.63460       -9.05910        5.27770
N          1.29820       -9.70650        4.59870
C          1.12220       -5.56170        2.94290
C          1.96650       -6.04160        1.91790
C          2.49460       -7.43340        1.80310
C          1.46660       -8.35070        1.13420
C          2.20680       -5.06610        0.96510
S          3.14320       -5.06350       -0.52020
C          2.67680       -3.41790       -0.77570
C          2.88040       -2.38660       -1.70160
C          3.71110       -2.30220       -2.84210
C          3.78290       -1.06190       -3.55940
N          4.63870       -1.11070       -4.56740
S          5.29450       -2.58990       -4.61470
N          4.51100       -3.22620       -3.34930
C          2.92140       -0.00530       -3.18530
C          2.63170        1.21470       -3.80840
S          3.14140        2.13740       -5.17970
C          1.87070        3.29680       -4.83160
C          1.46260        4.45680       -5.47440
C          2.16000        5.00610       -6.67530
C          3.17650        6.07790       -6.27150
C          0.36550        5.04690       -4.81880
S         -0.13460        4.12640       -3.39910
C          1.10810        2.97180       -3.69550
C          1.55780        1.78550       -3.11060
N          1.19640        0.97580       -2.06880
C          2.03050       -0.12250       -2.07640
C          2.11330       -1.27130       -1.24950
N          1.50830       -1.60540       -0.05170
C          1.84400       -2.90550        0.22860
C          1.57520       -3.83500        1.23230
S          0.66730       -3.87200        2.69260
C          1.12330       -0.75630        1.05700
C          2.32090       -0.46670        1.96090
C         -0.05860        1.19890       -1.38520
C          0.03720        2.33020       -0.36090
C         -0.24930        6.21770       -5.27030
C         -1.30760        6.93550       -4.76470
C         -2.05970        6.62020       -3.54780
O         -1.88560        5.67770       -2.79520
C         -3.07870        7.67660       -3.41170
C         -4.04620        7.85500       -2.43700
Cl        -4.19410        6.75890       -1.12520
C         -4.90580        8.94710       -2.53790
C         -4.78450        9.82980       -3.59570
C         -3.81660        9.66190       -4.58020
C         -2.96030        8.57890       -4.48620
C         -1.86120        8.13790       -5.34860
C         -1.46190        8.77050       -6.49860
C         -0.41040        8.35940       -7.34400
N          0.42900        8.09580       -8.08340
C         -2.05830        9.94180       -7.01160
N         -2.49000       10.89180       -7.49010
H          1.07840       -7.36690        3.96280
H         -2.00490       -7.77910        8.52230
H          3.39730       -7.40550        1.18970
H          2.75790       -7.83710        2.78160
H          1.22420       -7.98490        0.13930
H          0.55220       -8.39810        1.72070
H          1.87180       -9.35460        1.04930
H          1.44770        5.43190       -7.38360
H          2.68480        4.18600       -7.16940
H          3.91990        5.65920       -5.59720
H          3.68020        6.45770       -7.15550
H          2.68310        6.90870       -5.77260
H          0.71720        0.18030        0.69770
H          0.35280       -1.28630        1.62410
H          2.00870        0.16650        2.78640
H          3.10370        0.04300        1.40240
H          2.72800       -1.38810        2.36890
H         -0.79900        1.48160       -2.14150
H         -0.38890        0.26050       -0.93780
H         -0.86340        2.35350        0.24600
H          0.12720        3.28620       -0.86910
H          0.90110        2.21200        0.28980
H          0.19700        6.61170       -6.17290
H         -5.66320        9.09490       -1.78470
H         -5.45780       10.67080       -3.65980
H         -3.74920       10.36840       -5.39040
