
  xtb     02022201313D
 energy: -202.734628906215 gnorm: 0.000308005031 xtb: 6.4.1 (unknown)
112123  0     0  0            999 V2000
    3.4231   -6.2624   -3.6388 C   0  0  0  0  0  0  0  0  0  0  0  0
    2.9075   -6.3710   -4.9167 C   0  0  0  0  0  0  0  0  0  0  0  0
    1.7204   -5.6885   -5.4221 C   0  0  0  0  0  0  0  0  0  0  0  0
    0.9741   -4.9365   -4.8243 O   0  0  0  0  0  0  0  0  0  0  0  0
    1.5888   -6.1068   -6.8390 C   0  0  0  0  0  0  0  0  0  0  0  0
    2.6301   -6.9944   -7.1611 C   0  0  0  0  0  0  0  0  0  0  0  0
    2.7272   -7.5282   -8.4343 C   0  0  0  0  0  0  0  0  0  0  0  0
    1.7717   -7.1608   -9.3719 C   0  0  0  0  0  0  0  0  0  0  0  0
    1.8477   -7.6643  -10.6071 F   0  0  0  0  0  0  0  0  0  0  0  0
    0.7348   -6.2832   -9.0675 C   0  0  0  0  0  0  0  0  0  0  0  0
   -0.1658   -5.9538   -9.9990 F   0  0  0  0  0  0  0  0  0  0  0  0
    0.6421   -5.7487   -7.7804 C   0  0  0  0  0  0  0  0  0  0  0  0
   -0.3501   -4.9099   -7.4916 F   0  0  0  0  0  0  0  0  0  0  0  0
    3.4666   -7.1807   -5.9712 C   0  0  0  0  0  0  0  0  0  0  0  0
    4.5747   -7.9917   -5.9158 C   0  0  0  0  0  0  0  0  0  0  0  0
    5.0567   -8.7518   -7.0010 C   0  0  0  0  0  0  0  0  0  0  0  0
    5.5021   -9.3963   -7.8404 N   0  0  0  0  0  0  0  0  0  0  0  0
    5.3937   -8.1937   -4.7861 C   0  0  0  0  0  0  0  0  0  0  0  0
    6.1124   -8.4161   -3.9171 N   0  0  0  0  0  0  0  0  0  0  0  0
    3.0100   -5.5102   -2.5450 C   0  0  0  0  0  0  0  0  0  0  0  0
    3.6983   -5.5068   -1.3109 C   0  0  0  0  0  0  0  0  0  0  0  0
    4.9482   -6.2659   -1.0092 C   0  0  0  0  0  0  0  0  0  0  0  0
    6.1812   -5.4951   -1.4898 C   0  0  0  0  0  0  0  0  0  0  0  0
    3.1027   -4.6494   -0.4036 C   0  0  0  0  0  0  0  0  0  0  0  0
    3.4968   -4.2175    1.2521 S   0  0  0  0  0  0  0  0  0  0  0  0
    2.1298   -3.1594    1.2679 C   0  0  0  0  0  0  0  0  0  0  0  0
    1.4715   -2.2914    2.1464 C   0  0  0  0  0  0  0  0  0  0  0  0
    1.6934   -2.0127    3.5133 C   0  0  0  0  0  0  0  0  0  0  0  0
    0.7838   -1.1428    4.2001 C   0  0  0  0  0  0  0  0  0  0  0  0
    1.0813   -1.0101    5.4830 N   0  0  0  0  0  0  0  0  0  0  0  0
    2.3959   -1.9011    5.7991 S   0  0  0  0  0  0  0  0  0  0  0  0
    2.6356   -2.4908    4.3103 N   0  0  0  0  0  0  0  0  0  0  0  0
   -0.2343   -0.5023    3.4606 C   0  0  0  0  0  0  0  0  0  0  0  0
   -1.1350    0.5095    3.8248 C   0  0  0  0  0  0  0  0  0  0  0  0
   -1.5365    1.4682    5.2089 S   0  0  0  0  0  0  0  0  0  0  0  0
   -2.5838    2.4377    4.2019 C   0  0  0  0  0  0  0  0  0  0  0  0
   -3.3517    3.5955    4.4635 C   0  0  0  0  0  0  0  0  0  0  0  0
   -3.3574    4.2566    5.8047 C   0  0  0  0  0  0  0  0  0  0  0  0
   -2.0238    4.9660    6.0510 C   0  0  0  0  0  0  0  0  0  0  0  0
   -3.9903    4.0363    3.3386 C   0  0  0  0  0  0  0  0  0  0  0  0
   -3.6752    3.0226    1.9453 S   0  0  0  0  0  0  0  0  0  0  0  0
   -2.6316    2.0096    2.8793 C   0  0  0  0  0  0  0  0  0  0  0  0
   -1.8002    0.9005    2.6605 C   0  0  0  0  0  0  0  0  0  0  0  0
   -1.3665    0.1546    1.6022 N   0  0  0  0  0  0  0  0  0  0  0  0
   -0.4095   -0.7310    2.0651 C   0  0  0  0  0  0  0  0  0  0  0  0
    0.3763   -1.7242    1.4259 C   0  0  0  0  0  0  0  0  0  0  0  0
    0.3555   -2.2720    0.1562 N   0  0  0  0  0  0  0  0  0  0  0  0
    1.4151   -3.1393    0.0626 C   0  0  0  0  0  0  0  0  0  0  0  0
    1.9572   -3.9912   -0.8975 C   0  0  0  0  0  0  0  0  0  0  0  0
    1.6037   -4.4385   -2.5208 S   0  0  0  0  0  0  0  0  0  0  0  0
   -0.7515   -2.4656   -0.7566 C   0  0  0  0  0  0  0  0  0  0  0  0
   -1.7265   -3.5075   -0.2117 C   0  0  0  0  0  0  0  0  0  0  0  0
   -1.6933    0.5750    0.2613 C   0  0  0  0  0  0  0  0  0  0  0  0
   -3.0776    0.0931   -0.1691 C   0  0  0  0  0  0  0  0  0  0  0  0
   -4.8043    5.2957    3.2101 C   0  0  0  0  0  0  0  0  0  0  0  0
   -3.8918    6.4580    3.4820 C   0  0  0  0  0  0  0  0  0  0  0  0
   -2.9780    6.7512    2.5571 C   0  0  0  0  0  0  0  0  0  0  0  0
   -3.0047    6.0503    1.2904 C   0  0  0  0  0  0  0  0  0  0  0  0
   -1.8805    5.5303    0.7064 C   0  0  0  0  0  0  0  0  0  0  0  0
   -1.8794    5.0605   -0.6763 C   0  0  0  0  0  0  0  0  0  0  0  0
   -2.7355    5.3371   -1.4935 O   0  0  0  0  0  0  0  0  0  0  0  0
   -0.7895    4.2866   -1.0550 N   0  0  0  0  0  0  0  0  0  0  0  0
   -0.7269    3.9026   -2.4618 C   0  0  0  0  0  0  0  0  0  0  0  0
   -1.5186    2.6389   -2.7658 C   0  0  0  0  0  0  0  0  0  0  0  0
    0.1760    3.8601   -0.1881 C   0  0  0  0  0  0  0  0  0  0  0  0
    1.1951    2.6290   -0.6022 S   0  0  0  0  0  0  0  0  0  0  0  0
    0.2721    4.4833    1.0222 N   0  0  0  0  0  0  0  0  0  0  0  0
   -0.6772    5.3689    1.5243 C   0  0  0  0  0  0  0  0  0  0  0  0
   -0.5172    5.8756    2.6161 O   0  0  0  0  0  0  0  0  0  0  0  0
    1.3978    4.1745    1.8985 C   0  0  0  0  0  0  0  0  0  0  0  0
    1.0879    3.0005    2.8163 C   0  0  0  0  0  0  0  0  0  0  0  0
   -4.3802    5.8816    0.7281 C   0  0  0  0  0  0  0  0  0  0  0  0
   -5.4112    5.4986    1.8126 C   0  0  0  0  0  0  0  0  0  0  0  0
    4.3093   -6.8507   -3.4449 H   0  0  0  0  0  0  0  0  0  0  0  0
    3.5057   -8.2115   -8.7297 H   0  0  0  0  0  0  0  0  0  0  0  0
    4.9327   -7.2518   -1.4757 H   0  0  0  0  0  0  0  0  0  0  0  0
    5.0126   -6.3993    0.0725 H   0  0  0  0  0  0  0  0  0  0  0  0
    7.0802   -6.0561   -1.2518 H   0  0  0  0  0  0  0  0  0  0  0  0
    6.2338   -4.5246   -1.0020 H   0  0  0  0  0  0  0  0  0  0  0  0
    6.1455   -5.3424   -2.5658 H   0  0  0  0  0  0  0  0  0  0  0  0
   -4.1802    4.9687    5.8702 H   0  0  0  0  0  0  0  0  0  0  0  0
   -3.5029    3.4921    6.5719 H   0  0  0  0  0  0  0  0  0  0  0  0
   -1.7920    5.6432    5.2318 H   0  0  0  0  0  0  0  0  0  0  0  0
   -1.2205    4.2376    6.1279 H   0  0  0  0  0  0  0  0  0  0  0  0
   -2.0645    5.5322    6.9780 H   0  0  0  0  0  0  0  0  0  0  0  0
   -1.2713   -1.5347   -0.9526 H   0  0  0  0  0  0  0  0  0  0  0  0
   -0.3252   -2.8179   -1.6991 H   0  0  0  0  0  0  0  0  0  0  0  0
   -1.2198   -4.4581   -0.0635 H   0  0  0  0  0  0  0  0  0  0  0  0
   -2.1384   -3.1851    0.7430 H   0  0  0  0  0  0  0  0  0  0  0  0
   -2.5396   -3.6560   -0.9166 H   0  0  0  0  0  0  0  0  0  0  0  0
   -1.6925    1.6709    0.2562 H   0  0  0  0  0  0  0  0  0  0  0  0
   -0.8998    0.2491   -0.4120 H   0  0  0  0  0  0  0  0  0  0  0  0
   -3.8394    0.5894    0.4271 H   0  0  0  0  0  0  0  0  0  0  0  0
   -3.1866   -0.9793   -0.0318 H   0  0  0  0  0  0  0  0  0  0  0  0
   -3.2476    0.3356   -1.2144 H   0  0  0  0  0  0  0  0  0  0  0  0
   -5.6158    5.2612    3.9458 H   0  0  0  0  0  0  0  0  0  0  0  0
   -3.9498    6.9797    4.4228 H   0  0  0  0  0  0  0  0  0  0  0  0
   -2.2232    7.5057    2.7097 H   0  0  0  0  0  0  0  0  0  0  0  0
    0.3230    3.7654   -2.7249 H   0  0  0  0  0  0  0  0  0  0  0  0
   -1.1447    4.7403   -3.0244 H   0  0  0  0  0  0  0  0  0  0  0  0
   -1.5231    2.4705   -3.8386 H   0  0  0  0  0  0  0  0  0  0  0  0
   -1.0637    1.7802   -2.2811 H   0  0  0  0  0  0  0  0  0  0  0  0
   -2.5452    2.7502   -2.4258 H   0  0  0  0  0  0  0  0  0  0  0  0
    1.5854    5.0712    2.4918 H   0  0  0  0  0  0  0  0  0  0  0  0
    2.2646    3.9547    1.2737 H   0  0  0  0  0  0  0  0  0  0  0  0
    0.2111    3.2211    3.4201 H   0  0  0  0  0  0  0  0  0  0  0  0
    1.9297    2.8229    3.4787 H   0  0  0  0  0  0  0  0  0  0  0  0
    0.9091    2.0983    2.2362 H   0  0  0  0  0  0  0  0  0  0  0  0
   -4.3716    5.1427   -0.0710 H   0  0  0  0  0  0  0  0  0  0  0  0
   -4.6654    6.8307    0.2681 H   0  0  0  0  0  0  0  0  0  0  0  0
   -5.9157    4.5797    1.5115 H   0  0  0  0  0  0  0  0  0  0  0  0
   -6.1668    6.2808    1.8935 H   0  0  0  0  0  0  0  0  0  0  0  0
  1  2  2  0  0  0  0
  2  3  1  0  0  0  0
  3  4  2  0  0  0  0
  3  5  1  0  0  0  0
  5  6  2  0  0  0  0
  6  7  1  0  0  0  0
  7  8  2  0  0  0  0
  8  9  1  0  0  0  0
  8 10  1  0  0  0  0
 10 11  1  0  0  0  0
 10 12  2  0  0  0  0
 12 13  1  0  0  0  0
  6 14  1  0  0  0  0
 14 15  2  0  0  0  0
 15 16  1  0  0  0  0
 16 17  3  0  0  0  0
 15 18  1  0  0  0  0
 18 19  3  0  0  0  0
  1 20  1  0  0  0  0
 20 21  2  0  0  0  0
 21 22  1  0  0  0  0
 22 23  1  0  0  0  0
 21 24  1  0  0  0  0
 24 25  1  0  0  0  0
 25 26  1  0  0  0  0
 26 27  1  0  0  0  0
 27 28  1  0  0  0  0
 28 29  1  0  0  0  0
 29 30  2  0  0  0  0
 30 31  1  0  0  0  0
 31 32  1  0  0  0  0
 29 33  1  0  0  0  0
 33 34  1  0  0  0  0
 34 35  1  0  0  0  0
 35 36  1  0  0  0  0
 36 37  1  0  0  0  0
 37 38  1  0  0  0  0
 38 39  1  0  0  0  0
 37 40  2  0  0  0  0
 40 41  1  0  0  0  0
 41 42  1  0  0  0  0
 42 43  1  0  0  0  0
 43 44  1  0  0  0  0
 44 45  1  0  0  0  0
 45 46  1  0  0  0  0
 46 47  1  0  0  0  0
 47 48  1  0  0  0  0
 48 49  1  0  0  0  0
 49 50  1  0  0  0  0
 47 51  1  0  0  0  0
 51 52  1  0  0  0  0
 44 53  1  0  0  0  0
 53 54  1  0  0  0  0
 40 55  1  0  0  0  0
 55 56  1  0  0  0  0
 56 57  2  0  0  0  0
 57 58  1  0  0  0  0
 58 59  2  0  0  0  0
 59 60  1  0  0  0  0
 60 61  2  0  0  0  0
 60 62  1  0  0  0  0
 62 63  1  0  0  0  0
 63 64  1  0  0  0  0
 62 65  1  0  0  0  0
 65 66  2  0  0  0  0
 65 67  1  0  0  0  0
 67 68  1  0  0  0  0
 68 69  2  0  0  0  0
 67 70  1  0  0  0  0
 70 71  1  0  0  0  0
 58 72  1  0  0  0  0
 72 73  1  0  0  0  0
 14  2  1  0  0  0  0
 50 20  1  0  0  0  0
 73 55  1  0  0  0  0
 12  5  1  0  0  0  0
 49 24  2  0  0  0  0
 68 59  1  0  0  0  0
 48 26  2  0  0  0  0
 46 27  2  0  0  0  0
 32 28  2  0  0  0  0
 45 33  2  0  0  0  0
 43 34  2  0  0  0  0
 42 36  2  0  0  0  0
  1 74  1  0  0  0  0
  7 75  1  0  0  0  0
 22 76  1  0  0  0  0
 22 77  1  0  0  0  0
 23 78  1  0  0  0  0
 23 79  1  0  0  0  0
 23 80  1  0  0  0  0
 38 81  1  0  0  0  0
 38 82  1  0  0  0  0
 39 83  1  0  0  0  0
 39 84  1  0  0  0  0
 39 85  1  0  0  0  0
 51 86  1  0  0  0  0
 51 87  1  0  0  0  0
 52 88  1  0  0  0  0
 52 89  1  0  0  0  0
 52 90  1  0  0  0  0
 53 91  1  0  0  0  0
 53 92  1  0  0  0  0
 54 93  1  0  0  0  0
 54 94  1  0  0  0  0
 54 95  1  0  0  0  0
 55 96  1  0  0  0  0
 56 97  1  0  0  0  0
 57 98  1  0  0  0  0
 63 99  1  0  0  0  0
 63100  1  0  0  0  0
 64101  1  0  0  0  0
 64102  1  0  0  0  0
 64103  1  0  0  0  0
 70104  1  0  0  0  0
 70105  1  0  0  0  0
 71106  1  0  0  0  0
 71107  1  0  0  0  0
 71108  1  0  0  0  0
 72109  1  0  0  0  0
 72110  1  0  0  0  0
 73111  1  0  0  0  0
 73112  1  0  0  0  0
M  END
