127

C         -0.01340       -6.98230        6.90930
C         -1.09880       -7.81070        6.89270
C         -1.08570       -9.04310        7.72060
O         -0.30550       -9.32120        8.59660
C         -2.20710       -9.86290        7.19180
C         -2.91510       -9.12570        6.22430
C         -3.98780       -9.68380        5.55220
C         -4.34510      -10.98770        5.86500
F         -5.36850      -11.55290        5.22080
C         -3.66580      -11.72840        6.82990
F         -4.04570      -12.97790        7.10800
C         -2.58170      -11.15830        7.50230
F         -1.93550      -11.87160        8.41810
C         -2.32990       -7.78570        6.13860
C         -2.99160       -6.67450        5.68330
C         -4.25120       -6.71270        5.05280
N         -5.26890       -6.69260        4.52250
C         -2.54460       -5.35190        5.89190
N         -2.25610       -4.25990        6.09570
C          0.36960       -6.01400        5.96100
C          1.23520       -4.95390        6.18570
C          1.36860       -4.14400        5.06720
S          2.17400       -2.63200        4.75730
C          1.51530       -2.62720        3.15810
C          1.48200       -1.69810        2.07300
C          2.08090       -0.44930        1.92280
C          1.81590        0.23950        0.76350
C          2.29850        1.62870        0.35270
C          3.80990        1.65220        0.18620
C          4.41950        0.57940       -0.45640
C          5.78440        0.57000       -0.67450
C          6.56300        1.63750       -0.25970
C          5.96420        2.71190        0.37260
C          4.59650        2.72230        0.59310
C          1.75440        2.60790        1.37690
C          2.36210        2.72890        2.62270
C          1.84250        3.57940        3.58120
C          0.69990        4.31510        3.31650
C          0.07570        4.18370        2.08940
C          0.59630        3.33320        1.12830
C          1.65000        1.76620       -1.00900
C          0.90840        0.62980       -1.29700
C          0.98200       -0.31770       -0.23210
C          0.39050       -1.56980       -0.08900
C          0.63870       -2.25050        1.07890
C          0.12560       -3.61770        1.49730
C         -1.37400       -3.69850        1.72530
C         -2.13000       -2.56160        1.97030
C         -3.47320       -2.67390        2.28630
C         -4.07040       -3.91940        2.36630
C         -3.31870       -5.05640        2.12410
C         -1.97600       -4.94840        1.81320
C          0.61740       -4.63430        0.48480
C         -0.11350       -4.86140       -0.67510
C          0.34740       -5.75020       -1.62900
C          1.54500       -6.41850       -1.43740
C          2.28040       -6.19020       -0.28780
C          1.82170       -5.29940        0.66710
C          0.75130       -3.74510        2.85860
C          0.65060       -4.60390        3.94490
S         -0.19480       -6.05870        4.29100
S          0.08310        0.64260       -2.81710
C          0.72670        2.22550       -3.10180
C          0.66840        3.22920       -4.05960
C          1.47120        4.29620       -3.57050
N          2.01790        3.94950       -2.36180
C          2.89440        4.80090       -1.59660
C          2.12850        5.88800       -0.84770
C          1.56220        2.69870       -2.04970
C          1.49770        5.40560       -4.39870
C          0.71830        5.21880       -5.53590
S         -0.03340        3.60820       -5.57650
C          0.44180        6.04840       -6.62940
C          0.68470        7.38720       -6.83390
C          1.13540        8.39330       -5.85460
O          1.57620        8.23690       -4.73360
C          0.91600        9.70580       -6.50660
C          1.10880       10.96400       -5.97480
C          0.81080       12.05620       -6.78290
C          0.96360       13.45080       -6.24120
F         -0.20100       13.92890       -5.75940
F          1.36850       14.32660       -7.17340
F          1.84490       13.52640       -5.23500
C          0.32950       11.88330       -8.07650
C          0.14370       10.61380       -8.60500
C          0.44020        9.51510       -7.81300
C          0.35210        8.07600       -8.06610
C          0.08410        7.50960       -9.28510
C          0.11430        6.12790       -9.57460
N          0.14330        5.02830       -9.90420
C         -0.21460        8.24780      -10.45000
N         -0.46730        8.78750      -11.43100
H          0.67560       -7.13930        7.73400
H         -4.54530       -9.15580        4.79640
H          1.68880       -4.76300        7.14100
H          2.71860       -0.05590        2.69800
H          3.81880       -0.25610       -0.78600
H          6.24040       -0.27360       -1.17070
H          7.62910        1.63150       -0.42880
H          6.56070        3.55100        0.69870
H          4.15240        3.56710        1.10000
H          3.25340        2.16150        2.84530
H          2.33170        3.66470        4.54020
H          0.29540        4.98000        4.06430
H         -0.82300        4.74310        1.87520
H          0.08710        3.23160        0.18100
H         -0.24310       -1.97150       -0.86410
H         -1.66830       -1.58600        1.91960
H         -4.05160       -1.78250        2.47750
H         -5.11470       -4.00960        2.62230
H         -3.78000       -6.03070        2.18410
H         -1.39050       -5.83880        1.63140
H         -1.05430       -4.35170       -0.82340
H         -0.23150       -5.92170       -2.52430
H          1.90320       -7.11410       -2.18140
H          3.21620       -6.70600       -0.13120
H          2.40560       -5.12370        1.55920
H          3.60440        5.26190       -2.29020
H          3.44890        4.17150       -0.90010
H          1.44000        5.44600       -0.13140
H          2.82830        6.52190       -0.31050
H          1.56680        6.50530       -1.54440
H          2.03170        6.31740       -4.21080
H         -0.09170        5.54020       -7.42460
H          1.47940       11.08640       -4.96870
H          0.10160       12.75060       -8.67720
H         -0.23250       10.50580       -9.60860
