103

C          1.43050       -8.82490       -1.40230
C          2.76720       -8.80100       -1.69950
C          3.30420       -9.80080       -2.65230
O          2.76090      -10.80780       -3.03520
C          4.62140       -9.25000       -3.07060
C          4.90310       -8.08750       -2.32900
C          6.05820       -7.36160       -2.55550
C          6.92810       -7.81470       -3.53750
F          8.04220       -7.12260       -3.78860
C          6.67260       -8.96850       -4.27480
F          7.53800       -9.37410       -5.20800
C          5.50400       -9.69730       -4.03730
F          5.26630      -10.79570       -4.74650
C          3.82340       -7.88390       -1.36110
C          3.93110       -7.16740       -0.19570
C          5.00680       -6.31280        0.11080
N          5.84280       -5.57680        0.38910
C          3.00550       -7.29600        0.86150
N          2.30440       -7.42800        1.76060
C          0.58520       -7.79610       -0.96190
C         -0.76030       -7.93750       -0.61480
C         -1.50020       -9.23130       -0.53730
C         -2.17070       -9.54760       -1.87760
C         -1.35810       -6.70310       -0.37010
S         -2.99250       -6.25360        0.06380
C         -2.50990       -4.59570        0.05050
C         -3.07430       -3.32860        0.23620
C         -4.41980       -2.93790        0.41920
C         -4.73650       -1.54130        0.42940
N         -6.03630       -1.31860        0.54230
S         -6.79560       -2.74460        0.63370
N         -5.49460       -3.70240        0.52970
C         -3.68070       -0.60340        0.38560
C         -3.69080        0.78970        0.51850
S         -4.83220        2.07870        0.67230
C         -3.49190        3.19850        0.83270
C         -3.44470        4.57220        1.02500
C         -4.67120        5.41590        1.14570
C         -5.05220        5.61820        2.61500
C         -2.11940        5.02570        1.14950
S         -0.94890        3.71440        0.99440
C         -2.22920        2.58340        0.76670
C         -2.35360        1.20450        0.56970
N         -1.52350        0.12620        0.42700
C         -2.31280       -1.00310        0.29950
C         -2.02000       -2.37780        0.09540
N         -0.85830       -3.06270       -0.21740
C         -1.15550       -4.39790       -0.25520
C         -0.49920       -5.60070       -0.51570
S          1.08110       -6.10010       -0.98360
C          0.38330       -2.58740       -0.78640
C          0.15050       -1.84460       -2.09930
C         -0.12220        0.25600        0.76340
C          0.21030       -0.46450        2.06710
C         -1.79610        6.36640        1.37770
C         -0.58750        6.97380        1.61800
C          0.70940        6.30320        1.73720
O          0.96090        5.12720        1.53830
C          1.67000        7.34350        2.15420
C          3.00860        7.20850        2.45390
C          3.70760        8.34980        2.84770
C          5.14880        8.29920        3.21130
O          5.79650        9.26130        3.54070
O          5.65000        7.06040        3.13990
C          7.02100        6.92700        3.48560
C          3.05790        9.58170        2.92080
C          1.71200        9.71400        2.61600
C          1.00740        8.58270        2.23220
C         -0.39800        8.38780        1.87310
C         -1.33490        9.38510        1.78140
C         -2.68490        9.21350        1.40970
N         -3.79360        9.15650        1.11290
C         -1.07230       10.74800        2.03660
N         -0.93480       11.87100        2.23000
H          0.93480       -9.75370       -1.66650
H          6.30080       -6.46270       -2.01290
H         -2.26870       -9.14230        0.23290
H         -0.82500      -10.03980       -0.25800
H         -2.72000      -10.48200       -1.80400
H         -1.42940       -9.64230       -2.66760
H         -2.86640       -8.75680       -2.14760
H         -4.52710        6.38720        0.67020
H         -5.48840        4.90330        0.63460
H         -4.25370        6.12150        3.15540
H         -5.24290        4.65940        3.09150
H         -5.95020        6.22560        2.68150
H          0.99580       -3.47220       -0.97670
H          0.92520       -1.97380       -0.06660
H         -0.30350       -2.51140       -2.82880
H         -0.51180       -0.99350       -1.95980
H          1.09800       -1.49160       -2.49660
H          0.50410       -0.08900       -0.05970
H          0.06950        1.32470        0.88550
H         -0.35980       -0.03140        2.88550
H          1.26810       -0.35490        2.28880
H         -0.02970       -1.52380        2.01010
H         -2.66060        7.01590        1.39020
H          3.49510        6.24840        2.38940
H          7.18530        7.25390        4.51450
H          7.26110        5.87290        3.37550
H          7.64020        7.53470        2.82260
H          3.63410       10.44140        3.22870
H          1.23890       10.67950        2.68730
