
  xtb     02012220273D
 energy: -164.633386572197 gnorm: 0.000534193898 xtb: 6.4.1 (unknown)
 85 95  0     0  0            999 V2000
   -0.9563   -2.5430    5.9901 C   0  0  0  0  0  0  0  0  0  0  0  0
   -0.6001   -2.3209    7.2954 C   0  0  0  0  0  0  0  0  0  0  0  0
   -1.0395   -3.2888    8.3296 C   0  0  0  0  0  0  0  0  0  0  0  0
   -1.5750   -4.3543    8.1455 O   0  0  0  0  0  0  0  0  0  0  0  0
   -0.7149   -2.6361    9.6253 C   0  0  0  0  0  0  0  0  0  0  0  0
   -0.0358   -1.4278    9.3842 C   0  0  0  0  0  0  0  0  0  0  0  0
    0.3519   -0.6112   10.4314 C   0  0  0  0  0  0  0  0  0  0  0  0
    0.0551   -1.0239   11.7230 C   0  0  0  0  0  0  0  0  0  0  0  0
    0.4084   -0.2476   12.7501 F   0  0  0  0  0  0  0  0  0  0  0  0
   -0.6035   -2.2234   11.9819 C   0  0  0  0  0  0  0  0  0  0  0  0
   -0.8640   -2.5891   13.2398 F   0  0  0  0  0  0  0  0  0  0  0  0
   -0.9942   -3.0411   10.9180 C   0  0  0  0  0  0  0  0  0  0  0  0
   -1.6250   -4.1829   11.1718 F   0  0  0  0  0  0  0  0  0  0  0  0
    0.1568   -1.2804    7.9387 C   0  0  0  0  0  0  0  0  0  0  0  0
    1.0855   -0.4552    7.3521 C   0  0  0  0  0  0  0  0  0  0  0  0
    1.8460    0.5036    8.0502 C   0  0  0  0  0  0  0  0  0  0  0  0
    2.4722    1.3178    8.5626 N   0  0  0  0  0  0  0  0  0  0  0  0
    1.4565   -0.5383    5.9961 C   0  0  0  0  0  0  0  0  0  0  0  0
    1.8293   -0.5955    4.9118 N   0  0  0  0  0  0  0  0  0  0  0  0
   -0.9920   -1.6675    4.8921 C   0  0  0  0  0  0  0  0  0  0  0  0
   -1.1915   -0.2872    4.8104 C   0  0  0  0  0  0  0  0  0  0  0  0
   -1.5528    0.5863    5.9670 C   0  0  0  0  0  0  0  0  0  0  0  0
   -2.8060    1.4185    5.6961 C   0  0  0  0  0  0  0  0  0  0  0  0
   -1.1197    0.1538    3.4865 C   0  0  0  0  0  0  0  0  0  0  0  0
   -1.1892    1.7457    2.7614 S   0  0  0  0  0  0  0  0  0  0  0  0
   -0.8572    1.0396    1.2215 C   0  0  0  0  0  0  0  0  0  0  0  0
   -0.6081    1.4423   -0.0965 C   0  0  0  0  0  0  0  0  0  0  0  0
   -0.4700    2.7292   -0.6612 C   0  0  0  0  0  0  0  0  0  0  0  0
   -0.0306    2.8425   -2.0210 C   0  0  0  0  0  0  0  0  0  0  0  0
    0.1202    4.1020   -2.4001 N   0  0  0  0  0  0  0  0  0  0  0  0
   -0.2633    5.0620   -1.1551 S   0  0  0  0  0  0  0  0  0  0  0  0
   -0.6355    3.9081   -0.0825 N   0  0  0  0  0  0  0  0  0  0  0  0
    0.1282    1.6666   -2.7869 C   0  0  0  0  0  0  0  0  0  0  0  0
    0.4311    1.4876   -4.1453 C   0  0  0  0  0  0  0  0  0  0  0  0
    0.8445    2.4371   -5.5306 S   0  0  0  0  0  0  0  0  0  0  0  0
    0.8664    0.9768   -6.4908 C   0  0  0  0  0  0  0  0  0  0  0  0
    1.1232    0.7545   -7.8567 C   0  0  0  0  0  0  0  0  0  0  0  0
    1.4490    1.8780   -8.7865 C   0  0  0  0  0  0  0  0  0  0  0  0
    2.9415    2.2123   -8.7353 C   0  0  0  0  0  0  0  0  0  0  0  0
    1.0254   -0.5862   -8.1673 C   0  0  0  0  0  0  0  0  0  0  0  0
    0.5931   -1.5695   -6.7707 S   0  0  0  0  0  0  0  0  0  0  0  0
    0.5648   -0.1720   -5.7587 C   0  0  0  0  0  0  0  0  0  0  0  0
    0.3221    0.1206   -4.4101 C   0  0  0  0  0  0  0  0  0  0  0  0
   -0.0009   -0.5615   -3.2659 N   0  0  0  0  0  0  0  0  0  0  0  0
   -0.1160    0.3734   -2.2442 C   0  0  0  0  0  0  0  0  0  0  0  0
   -0.3650    0.2568   -0.8521 C   0  0  0  0  0  0  0  0  0  0  0  0
   -0.4230   -0.8238    0.0055 N   0  0  0  0  0  0  0  0  0  0  0  0
   -0.7255   -0.3541    1.2565 C   0  0  0  0  0  0  0  0  0  0  0  0
   -0.8703   -0.8625    2.5477 C   0  0  0  0  0  0  0  0  0  0  0  0
   -0.7987   -2.4055    3.3021 S   0  0  0  0  0  0  0  0  0  0  0  0
    0.0746   -2.1723   -0.1465 C   0  0  0  0  0  0  0  0  0  0  0  0
   -1.0553   -3.2004   -0.1755 C   0  0  0  0  0  0  0  0  0  0  0  0
   -0.6511   -1.8478   -3.4027 C   0  0  0  0  0  0  0  0  0  0  0  0
   -2.1672   -1.6857   -3.4915 C   0  0  0  0  0  0  0  0  0  0  0  0
    1.2018   -1.2592   -9.4154 C   0  0  0  0  0  0  0  0  0  0  0  0
    1.8938   -0.8671  -10.5412 C   0  0  0  0  0  0  0  0  0  0  0  0
    1.8487   -1.8060  -11.5756 C   0  0  0  0  0  0  0  0  0  0  0  0
    1.1264   -2.9296  -11.2510 C   0  0  0  0  0  0  0  0  0  0  0  0
    0.8958   -4.0484  -12.0505 C   0  0  0  0  0  0  0  0  0  0  0  0
    0.7090   -4.9662  -12.7151 N   0  0  0  0  0  0  0  0  0  0  0  0
    0.4846   -2.8296   -9.6400 S   0  0  0  0  0  0  0  0  0  0  0  0
   -1.2877   -3.5586    5.7891 H   0  0  0  0  0  0  0  0  0  0  0  0
    0.8628    0.3264   10.2868 H   0  0  0  0  0  0  0  0  0  0  0  0
   -0.7160    1.2597    6.1823 H   0  0  0  0  0  0  0  0  0  0  0  0
   -1.7254   -0.0332    6.8485 H   0  0  0  0  0  0  0  0  0  0  0  0
   -2.6435    2.1237    4.8866 H   0  0  0  0  0  0  0  0  0  0  0  0
   -3.6399    0.7713    5.4339 H   0  0  0  0  0  0  0  0  0  0  0  0
   -3.0703    1.9779    6.5898 H   0  0  0  0  0  0  0  0  0  0  0  0
    1.1480    1.6244   -9.8035 H   0  0  0  0  0  0  0  0  0  0  0  0
    0.8816    2.7562   -8.4697 H   0  0  0  0  0  0  0  0  0  0  0  0
    3.1698    3.0171   -9.4293 H   0  0  0  0  0  0  0  0  0  0  0  0
    3.2175    2.5310   -7.7332 H   0  0  0  0  0  0  0  0  0  0  0  0
    3.5437    1.3440   -8.9945 H   0  0  0  0  0  0  0  0  0  0  0  0
    0.7019   -2.2186   -1.0373 H   0  0  0  0  0  0  0  0  0  0  0  0
    0.7169   -2.3839    0.7157 H   0  0  0  0  0  0  0  0  0  0  0  0
   -1.5595   -3.2231    0.7871 H   0  0  0  0  0  0  0  0  0  0  0  0
   -1.7919   -2.9632   -0.9382 H   0  0  0  0  0  0  0  0  0  0  0  0
   -0.6491   -4.1889   -0.3705 H   0  0  0  0  0  0  0  0  0  0  0  0
   -0.2734   -2.2925   -4.3270 H   0  0  0  0  0  0  0  0  0  0  0  0
   -0.3910   -2.5128   -2.5851 H   0  0  0  0  0  0  0  0  0  0  0  0
   -2.6380   -2.6577   -3.6105 H   0  0  0  0  0  0  0  0  0  0  0  0
   -2.4308   -1.0661   -4.3457 H   0  0  0  0  0  0  0  0  0  0  0  0
   -2.5547   -1.2111   -2.5921 H   0  0  0  0  0  0  0  0  0  0  0  0
    2.4453    0.0502  -10.6141 H   0  0  0  0  0  0  0  0  0  0  0  0
    2.3315   -1.6789  -12.5282 H   0  0  0  0  0  0  0  0  0  0  0  0
  1  2  2  0  0  0  0
  2  3  1  0  0  0  0
  3  4  2  0  0  0  0
  3  5  1  0  0  0  0
  5  6  2  0  0  0  0
  6  7  1  0  0  0  0
  7  8  2  0  0  0  0
  8  9  1  0  0  0  0
  8 10  1  0  0  0  0
 10 11  1  0  0  0  0
 10 12  2  0  0  0  0
 12 13  1  0  0  0  0
  6 14  1  0  0  0  0
 14 15  2  0  0  0  0
 15 16  1  0  0  0  0
 16 17  3  0  0  0  0
 15 18  1  0  0  0  0
 18 19  3  0  0  0  0
  1 20  1  0  0  0  0
 20 21  2  0  0  0  0
 21 22  1  0  0  0  0
 22 23  1  0  0  0  0
 21 24  1  0  0  0  0
 24 25  1  0  0  0  0
 25 26  1  0  0  0  0
 26 27  1  0  0  0  0
 27 28  1  0  0  0  0
 28 29  1  0  0  0  0
 29 30  2  0  0  0  0
 30 31  1  0  0  0  0
 31 32  1  0  0  0  0
 29 33  1  0  0  0  0
 33 34  1  0  0  0  0
 34 35  1  0  0  0  0
 35 36  1  0  0  0  0
 36 37  1  0  0  0  0
 37 38  1  0  0  0  0
 38 39  1  0  0  0  0
 37 40  2  0  0  0  0
 40 41  1  0  0  0  0
 41 42  1  0  0  0  0
 42 43  1  0  0  0  0
 43 44  1  0  0  0  0
 44 45  1  0  0  0  0
 45 46  1  0  0  0  0
 46 47  1  0  0  0  0
 47 48  1  0  0  0  0
 48 49  1  0  0  0  0
 49 50  1  0  0  0  0
 47 51  1  0  0  0  0
 51 52  1  0  0  0  0
 44 53  1  0  0  0  0
 53 54  1  0  0  0  0
 40 55  1  0  0  0  0
 55 56  2  0  0  0  0
 56 57  1  0  0  0  0
 57 58  2  0  0  0  0
 58 59  1  0  0  0  0
 59 60  3  0  0  0  0
 58 61  1  0  0  0  0
 14  2  1  0  0  0  0
 50 20  1  0  0  0  0
 61 55  1  0  0  0  0
 12  5  1  0  0  0  0
 49 24  2  0  0  0  0
 48 26  2  0  0  0  0
 46 27  2  0  0  0  0
 32 28  2  0  0  0  0
 45 33  2  0  0  0  0
 43 34  2  0  0  0  0
 42 36  2  0  0  0  0
  1 62  1  0  0  0  0
  7 63  1  0  0  0  0
 22 64  1  0  0  0  0
 22 65  1  0  0  0  0
 23 66  1  0  0  0  0
 23 67  1  0  0  0  0
 23 68  1  0  0  0  0
 38 69  1  0  0  0  0
 38 70  1  0  0  0  0
 39 71  1  0  0  0  0
 39 72  1  0  0  0  0
 39 73  1  0  0  0  0
 51 74  1  0  0  0  0
 51 75  1  0  0  0  0
 52 76  1  0  0  0  0
 52 77  1  0  0  0  0
 52 78  1  0  0  0  0
 53 79  1  0  0  0  0
 53 80  1  0  0  0  0
 54 81  1  0  0  0  0
 54 82  1  0  0  0  0
 54 83  1  0  0  0  0
 56 84  1  0  0  0  0
 57 85  1  0  0  0  0
M  END
