103

C          4.97990       -6.60210        3.01150
C          3.98730       -7.24000        3.70510
C          4.30650       -7.92830        4.97740
O          5.40230       -8.18830        5.41010
C          2.98380       -8.17290        5.61360
C          1.95750       -7.77520        4.73650
C          0.62790       -7.87490        5.10470
C          0.33890       -8.37790        6.36530
F         -0.93600       -8.47080        6.75150
C          1.33950       -8.78720        7.24370
F          1.01950       -9.27290        8.44590
C          2.68020       -8.68440        6.86260
F          3.62860       -9.07630        7.70670
C          2.56710       -7.32720        3.48360
C          1.93320       -7.28520        2.26690
C          0.54220       -7.41080        2.09180
N         -0.58790       -7.46570        1.89680
C          2.63560       -7.19770        1.04660
N          3.18210       -7.18930        0.03700
C          4.87500       -5.56370        2.07230
C          5.86080       -5.16430        1.17000
C          7.15290       -5.87690        0.96220
C          6.93800       -7.13890        0.12240
C          5.43850       -4.08120        0.40040
S          6.19760       -3.20200       -0.90690
C          4.79050       -2.20820       -1.01700
C          4.28580       -1.17760       -1.81700
C          4.83220       -0.57070       -2.96930
C          4.03990        0.37950       -3.68740
N          4.65030        0.83170       -4.77140
S          6.10080        0.12210       -4.87590
N          6.00550       -0.78950       -3.54180
C          2.78200        0.74950       -3.16250
C          1.87360        1.72060       -3.59530
S          1.69060        2.85440       -4.88700
C          0.22060        3.43170       -4.12350
C         -0.68080        4.42550       -4.47440
C         -0.51260        5.27910       -5.68800
C          0.20050        6.58820       -5.33760
C         -1.70510        4.54920       -3.51640
S         -1.52360        3.39340       -2.19470
C         -0.09650        2.76300       -2.92660
C          0.84980        1.77480       -2.64110
N          1.08730        0.85910       -1.65340
C          2.25990        0.19290       -1.95300
C          2.98390       -0.85800       -1.32350
N          2.70690       -1.71360       -0.27210
C          3.79340       -2.52400       -0.08410
C          4.15720       -3.60290        0.72150
S          3.44830       -4.52670        1.99230
C          1.48570       -2.01360        0.44040
C          1.52850       -1.51590        1.88490
C          0.24320        0.86370       -0.48080
C         -1.09280        0.16510       -0.73410
C         -2.73000        5.49110       -3.62460
C         -3.77240        5.79460       -2.77950
C         -4.04570        5.16430       -1.48810
O         -3.44470        4.23850       -0.96770
C         -5.20800        5.87240       -0.92190
C         -5.82870        5.67520        0.27690
C         -6.92910        6.49190        0.62130
C         -7.60300        6.33710        1.84780
C         -8.66150        7.14450        2.15770
F         -9.30030        6.99690        3.32660
C         -9.09170        8.13840        1.25660
F        -10.13120        8.91590        1.58760
C         -8.45820        8.31170        0.05800
C         -7.36320        7.49620       -0.29100
C         -6.70070        7.67220       -1.52800
C         -5.63520        6.87090       -1.84110
C         -4.76390        6.82420       -3.01440
C         -4.89860        7.61840       -4.12570
C         -4.07850        7.58160       -5.27190
N         -3.45660        7.61450       -6.23800
C         -5.90260        8.59730       -4.27840
N         -6.69770        9.40290       -4.47080
H          5.98920       -6.88720        3.29310
H         -0.18210       -7.57200        4.46170
H          7.59140       -6.14990        1.92430
H          7.84040       -5.20690        0.44260
H          6.50730       -6.88130       -0.84160
H          6.25930       -7.82220        0.62700
H          7.88710       -7.64180       -0.04140
H          0.09190        4.72780       -6.41080
H         -1.47590        5.50310       -6.14850
H         -0.37620        7.16030       -4.61460
H          0.32390        7.19000       -6.23310
H          1.18170        6.38310       -4.91580
H          1.37430       -3.10380        0.45110
H          0.63940       -1.60340       -0.10220
H          2.28140       -2.06050        2.44850
H          0.56350       -1.67860        2.35600
H          1.77250       -0.45700        1.93810
H          0.04120        1.91040       -0.22940
H          0.78190        0.42120        0.35210
H         -0.95430       -0.82330       -1.16800
H         -1.69650        0.75190       -1.42060
H         -1.63830        0.06780        0.20010
H         -2.66890        6.08420       -4.52640
H         -5.48350        4.90960        0.95480
H         -7.28590        5.58090        2.54870
H         -8.80040        9.07730       -0.62070
H         -7.05460        8.44180       -2.19420
