97

C         -7.73350        1.61490       -0.90510
C         -7.90500        1.19290       -2.19680
C         -8.92960        1.84680       -3.04370
O         -9.80230        2.59760       -2.68170
C         -8.60530        1.41410       -4.42960
C         -7.55060        0.48300       -4.39730
C         -7.04010       -0.05380       -5.56540
C         -7.60000        0.35460       -6.76770
F         -7.11610       -0.13820       -7.91070
C         -8.65140        1.26670       -6.82000
F         -9.16790        1.62910       -7.99740
C         -9.16150        1.80340       -5.63480
F        -10.16390        2.67410       -5.69340
C         -7.20050        0.22640       -2.99880
C         -6.55880       -0.89950       -2.54590
C         -5.91600       -1.83630       -3.37720
N         -5.34280       -2.61210       -3.99960
C         -6.54080       -1.28810       -1.19000
N         -6.54260       -1.67500       -0.10880
C         -6.60880        1.48080       -0.07540
C         -6.56960        1.65980        1.30810
C         -7.74070        2.01040        2.16390
C         -7.85870        3.53100        2.30560
C         -5.28300        1.46910        1.80900
S         -4.62870        1.48680        3.43170
C         -3.07870        1.07750        2.78920
C         -1.78440        0.77710        3.24380
C         -1.23250        0.58750        4.53240
C          0.11630        0.09850        4.65340
N          0.46400       -0.10590        5.91380
S         -0.78260        0.28760        6.86580
N         -1.82130        0.73350        5.70830
C          0.91020       -0.03230        3.49020
C          2.26540       -0.33780        3.27950
S          3.64890       -0.84390        4.18270
C          4.60380       -0.79260        2.71820
C          5.95540       -1.06770        2.45700
C          6.94010       -1.36700        3.54100
C          6.59830       -2.64940        4.29940
C          6.25300       -0.85700        1.11890
S          4.86280       -0.27990        0.19950
C          3.86730       -0.38090        1.60050
C          2.52820       -0.13680        1.91710
N          1.38390        0.25300        1.26760
C          0.37670        0.28810        2.21370
C         -1.00650        0.52480        2.08170
N         -1.80760        0.60230        0.95790
C         -3.06440        0.94900        1.39050
C         -4.31940        1.17060        0.83150
S         -5.00810        1.14520       -0.74520
C         -1.65500       -0.16930       -0.26200
C         -2.43090       -1.48430       -0.18800
C          1.45720        1.05690        0.06340
C          2.23410        2.34990        0.30930
C          7.49170       -0.90160        0.42790
C          8.46360       -1.84760        0.56180
C          8.22260       -3.22120        1.09270
O          7.18410       -3.66440        1.53520
C          9.46500       -3.94780        0.82520
C         10.39970       -3.08450        0.16480
C         11.57300       -3.70550       -0.12890
S         11.54690       -5.34950        0.39780
C          9.92170       -5.21400        1.02450
C          9.23250       -6.35260        1.67150
C          9.80140       -1.77730        0.00140
C         10.43370       -0.67760       -0.51870
C         11.75450       -0.75680       -1.00440
N         12.82760       -0.81580       -1.40700
C          9.87620        0.61220       -0.60430
N          9.47750        1.68660       -0.68170
H         -8.55320        2.20580       -0.50910
H         -6.22770       -0.76160       -5.57900
H         -8.65790        1.60370        1.73860
H         -7.59230        1.56930        3.15130
H         -6.95660        3.93980        2.75450
H         -8.00490        3.99850        1.33460
H         -8.70470        3.77880        2.94060
H          7.94300       -1.44040        3.11920
H          6.92620       -0.52660        4.24270
H          6.55970       -3.48840        3.61110
H          5.63510       -2.55750        4.79380
H          7.35820       -2.84430        5.05180
H         -0.60250       -0.40080       -0.41230
H         -2.02030        0.43440       -1.09870
H         -2.28470       -2.04330       -1.10800
H         -2.07360       -2.08450        0.64590
H         -3.49610       -1.31270       -0.05830
H          1.94900        0.47000       -0.71840
H          0.44930        1.31750       -0.25390
H          3.26510        2.14210        0.58030
H          2.23130        2.95150       -0.59510
H          1.76950        2.92060        1.11070
H          7.63820       -0.11370       -0.30290
H         12.44620       -3.32410       -0.61930
H          9.23870       -7.22650        1.02170
H          9.73190       -6.62540        2.60130
H          8.20470       -6.07100        1.88940
