97

C          0.80190        7.02000       -3.13120
C          0.54900        7.83190       -2.04500
C          0.16130        7.38110       -0.71040
O         -0.02980        6.24130       -0.33240
C          0.03910        8.61090        0.10850
C          0.32540        9.73300       -0.68900
C          0.28360       11.00660       -0.14880
C         -0.04650       11.13700        1.19320
F         -0.08970       12.35670        1.73470
C         -0.33370       10.03550        1.99540
F         -0.64660       10.20310        3.28320
C         -0.29090        8.75300        1.44370
F         -0.56520        7.70200        2.21140
C          0.63970        9.27310       -2.04490
C          0.95750       10.09700       -3.09640
C          1.02450       11.50350       -3.01120
N          1.09750       12.64900       -3.01340
C          1.26210        9.67950       -4.40870
N          1.52010        9.42610       -5.49950
C          0.78140        5.63420       -3.26790
C          1.12110        4.98370       -4.47360
C          1.57340        5.65340       -5.72910
C          3.07150        5.96600       -5.66730
C          1.05140        3.60760       -4.33940
S          1.37850        2.29430       -5.45560
C          0.98760        1.17150       -4.20130
C          0.91960       -0.21520       -4.00650
C          1.03800       -1.31980       -4.88270
C          0.76720       -2.64220       -4.38460
N          0.84250       -3.56110       -5.33340
S          1.22810       -2.83600       -6.72750
N          1.31180       -1.31640       -6.17700
C          0.53980       -2.82430       -3.00000
C          0.40680       -3.96580       -2.19570
S          0.30020       -5.68300       -2.37030
C          0.22090       -5.82550       -0.62350
C          0.11960       -6.92030        0.22210
C          0.02030       -8.32410       -0.27820
C         -1.44210       -8.76620       -0.38250
C          0.07210       -6.52070        1.57170
S          0.17560       -4.76750        1.75400
C          0.27530       -4.58900        0.04460
C          0.38170       -3.53150       -0.86100
N          0.47620       -2.16360       -0.80970
C          0.53820       -1.71270       -2.11220
C          0.55960       -0.40520       -2.64310
N          0.33980        0.82000       -2.04890
C          0.61890        1.78050       -2.99000
C          0.65040        3.17290       -3.06020
S          0.36140        4.48860       -1.98870
C         -0.56520        1.10550       -0.95180
C         -1.91170        1.61480       -1.46400
C          1.01710       -1.51070        0.36700
C          2.41290       -2.03700        0.69830
C         -0.05210       -7.43140        2.62390
C         -0.15480       -7.23760        3.98140
C         -0.15340       -5.94320        4.66850
O         -0.02380       -4.84080        4.16960
C         -0.33600       -6.24790        6.10170
C         -0.42470       -5.40630        7.19500
F         -0.34240       -4.07960        7.05160
C         -0.60420       -5.93700        8.46670
C         -0.69250       -7.30840        8.62720
C         -0.60450       -8.17440        7.54330
C         -0.42520       -7.64150        6.27790
C         -0.30140       -8.28560        4.96760
C         -0.31600       -9.64070        4.75330
C         -0.45660      -10.60720        5.77140
N         -0.56850      -11.44980        6.54330
C         -0.18720      -10.28030        3.50270
N         -0.08920      -10.87900        2.52670
H          1.07830        7.53420       -4.04110
H          0.49550       11.89610       -0.71830
H          1.01790        6.57520       -5.90700
H          1.38670        4.97470       -6.56360
H          3.64330        5.05110       -5.53130
H          3.29170        6.63970       -4.84270
H          3.38540        6.44080       -6.59220
H          0.47480       -8.36450       -1.27010
H          0.56080       -9.01240        0.37310
H         -1.92620       -8.73160        0.59060
H         -1.98590       -8.11720       -1.06480
H         -1.49120       -9.78530       -0.75480
H         -0.10760        1.86030       -0.30500
H         -0.73910        0.19150       -0.38730
H         -2.35530        0.89080       -2.14450
H         -1.80150        2.56300       -1.98170
H         -2.58280        1.76070       -0.62260
H          0.34410       -1.69450        1.20990
H          1.09170       -0.44150        0.18090
H          2.80820       -1.49180        1.55050
H          2.38400       -3.09260        0.95140
H          3.08080       -1.89580       -0.14900
H         -0.08380       -8.46050        2.29400
H         -0.67250       -5.26890        9.31060
H         -0.83310       -7.71620        9.61620
H         -0.67840       -9.23690        7.70230
