
  xtb     02012219593D
 energy: -195.245589911995 gnorm: 0.000366036047 xtb: 6.4.1 (unknown)
 97108  0     0  0            999 V2000
    1.4704   -2.2897    7.3986 C   0  0  0  0  0  0  0  0  0  0  0  0
    2.6358   -2.5987    8.0574 C   0  0  0  0  0  0  0  0  0  0  0  0
    3.9791   -2.2331    7.5648 C   0  0  0  0  0  0  0  0  0  0  0  0
    4.2621   -1.5110    6.6363 O   0  0  0  0  0  0  0  0  0  0  0  0
    4.9191   -3.0487    8.3768 C   0  0  0  0  0  0  0  0  0  0  0  0
    4.2006   -3.8355    9.2942 C   0  0  0  0  0  0  0  0  0  0  0  0
    4.8590   -4.7036   10.1480 C   0  0  0  0  0  0  0  0  0  0  0  0
    6.2431   -4.7692   10.0705 C   0  0  0  0  0  0  0  0  0  0  0  0
    6.9001   -5.6026   10.8803 F   0  0  0  0  0  0  0  0  0  0  0  0
    6.9709   -3.9934    9.1710 C   0  0  0  0  0  0  0  0  0  0  0  0
    8.3027   -4.0824    9.1301 F   0  0  0  0  0  0  0  0  0  0  0  0
    6.2985   -3.1230    8.3097 C   0  0  0  0  0  0  0  0  0  0  0  0
    6.9968   -2.3842    7.4527 F   0  0  0  0  0  0  0  0  0  0  0  0
    2.7753   -3.5470    9.1358 C   0  0  0  0  0  0  0  0  0  0  0  0
    1.7657   -4.0243    9.9313 C   0  0  0  0  0  0  0  0  0  0  0  0
    0.4142   -3.6359    9.8119 C   0  0  0  0  0  0  0  0  0  0  0  0
   -0.6956   -3.3437    9.7831 N   0  0  0  0  0  0  0  0  0  0  0  0
    1.9541   -4.9333   10.9926 C   0  0  0  0  0  0  0  0  0  0  0  0
    2.0500   -5.6766   11.8618 N   0  0  0  0  0  0  0  0  0  0  0  0
    1.2925   -1.2691    6.4493 C   0  0  0  0  0  0  0  0  0  0  0  0
    1.8452    0.0092    6.3574 C   0  0  0  0  0  0  0  0  0  0  0  0
    2.6880    0.6410    7.4116 C   0  0  0  0  0  0  0  0  0  0  0  0
    2.2036    2.0376    7.7960 C   0  0  0  0  0  0  0  0  0  0  0  0
    1.4067    0.6595    5.1984 C   0  0  0  0  0  0  0  0  0  0  0  0
    1.8039    2.2044    4.4757 S   0  0  0  0  0  0  0  0  0  0  0  0
    0.8226    1.8043    3.1131 C   0  0  0  0  0  0  0  0  0  0  0  0
    0.4558    2.3442    1.8708 C   0  0  0  0  0  0  0  0  0  0  0  0
    0.7043    3.6005    1.2735 C   0  0  0  0  0  0  0  0  0  0  0  0
    0.1665    3.8690   -0.0302 C   0  0  0  0  0  0  0  0  0  0  0  0
    0.4385    5.0960   -0.4448 N   0  0  0  0  0  0  0  0  0  0  0  0
    1.2974    5.8484    0.7015 S   0  0  0  0  0  0  0  0  0  0  0  0
    1.3593    4.6369    1.7719 N   0  0  0  0  0  0  0  0  0  0  0  0
   -0.4763    2.8242   -0.7330 C   0  0  0  0  0  0  0  0  0  0  0  0
   -0.8522    2.7080   -2.0783 C   0  0  0  0  0  0  0  0  0  0  0  0
   -0.8549    3.6610   -3.5172 S   0  0  0  0  0  0  0  0  0  0  0  0
   -1.3391    2.2508   -4.4374 C   0  0  0  0  0  0  0  0  0  0  0  0
   -1.5881    2.0373   -5.8001 C   0  0  0  0  0  0  0  0  0  0  0  0
   -1.3580    3.0374   -6.8796 C   0  0  0  0  0  0  0  0  0  0  0  0
   -0.1495    3.9373   -6.6411 C   0  0  0  0  0  0  0  0  0  0  0  0
   -1.9613    0.7122   -6.0356 C   0  0  0  0  0  0  0  0  0  0  0  0
   -1.9306   -0.2652   -4.5663 S   0  0  0  0  0  0  0  0  0  0  0  0
   -1.4997    1.1117   -3.6305 C   0  0  0  0  0  0  0  0  0  0  0  0
   -1.2320    1.3754   -2.2851 C   0  0  0  0  0  0  0  0  0  0  0  0
   -1.1410    0.6773   -1.1101 N   0  0  0  0  0  0  0  0  0  0  0  0
   -0.6871    1.5470   -0.1387 C   0  0  0  0  0  0  0  0  0  0  0  0
   -0.3440    1.3609    1.2230 C   0  0  0  0  0  0  0  0  0  0  0  0
   -0.5261    0.2913    2.0826 N   0  0  0  0  0  0  0  0  0  0  0  0
    0.2007    0.5532    3.2172 C   0  0  0  0  0  0  0  0  0  0  0  0
    0.5228   -0.0959    4.4089 C   0  0  0  0  0  0  0  0  0  0  0  0
    0.1559   -1.6088    5.1393 S   0  0  0  0  0  0  0  0  0  0  0  0
   -1.6616   -0.6045    2.1564 C   0  0  0  0  0  0  0  0  0  0  0  0
   -2.6769   -0.1269    3.1946 C   0  0  0  0  0  0  0  0  0  0  0  0
   -1.1971   -0.7680   -1.1137 C   0  0  0  0  0  0  0  0  0  0  0  0
   -2.6288   -1.2874   -1.2421 C   0  0  0  0  0  0  0  0  0  0  0  0
   -2.2357    0.0109   -7.2227 C   0  0  0  0  0  0  0  0  0  0  0  0
   -2.8061    0.4838   -8.3776 C   0  0  0  0  0  0  0  0  0  0  0  0
   -3.6749    1.6725   -8.4717 C   0  0  0  0  0  0  0  0  0  0  0  0
   -3.9763    2.4493   -7.5896 O   0  0  0  0  0  0  0  0  0  0  0  0
   -4.2213    1.6518   -9.8487 C   0  0  0  0  0  0  0  0  0  0  0  0
   -5.0828    2.5537  -10.4383 C   0  0  0  0  0  0  0  0  0  0  0  0
   -5.4748    2.3283  -11.7528 C   0  0  0  0  0  0  0  0  0  0  0  0
   -6.5375    3.4194  -12.5514 Cl  0  0  0  0  0  0  0  0  0  0  0  0
   -4.9968    1.2021  -12.4265 C   0  0  0  0  0  0  0  0  0  0  0  0
   -5.3826    0.9886  -13.6901 F   0  0  0  0  0  0  0  0  0  0  0  0
   -4.1359    0.2886  -11.8383 C   0  0  0  0  0  0  0  0  0  0  0  0
   -3.7423    0.5198  -10.5296 C   0  0  0  0  0  0  0  0  0  0  0  0
   -2.8541   -0.2238   -9.6406 C   0  0  0  0  0  0  0  0  0  0  0  0
   -2.1353   -1.3406   -9.9794 C   0  0  0  0  0  0  0  0  0  0  0  0
   -1.2045   -1.9889   -9.1401 C   0  0  0  0  0  0  0  0  0  0  0  0
   -0.4181   -2.5574   -8.5259 N   0  0  0  0  0  0  0  0  0  0  0  0
   -2.2148   -1.9804  -11.2343 C   0  0  0  0  0  0  0  0  0  0  0  0
   -2.2407   -2.5484  -12.2312 N   0  0  0  0  0  0  0  0  0  0  0  0
    0.6154   -2.9392    7.5487 H   0  0  0  0  0  0  0  0  0  0  0  0
    4.3466   -5.3299   10.8594 H   0  0  0  0  0  0  0  0  0  0  0  0
    3.7161    0.6962    7.0412 H   0  0  0  0  0  0  0  0  0  0  0  0
    2.6909    0.0020    8.2968 H   0  0  0  0  0  0  0  0  0  0  0  0
    2.3009    2.7323    6.9669 H   0  0  0  0  0  0  0  0  0  0  0  0
    2.7990    2.4114    8.6249 H   0  0  0  0  0  0  0  0  0  0  0  0
    1.1613    2.0074    8.1064 H   0  0  0  0  0  0  0  0  0  0  0  0
   -1.2349    2.5037   -7.8256 H   0  0  0  0  0  0  0  0  0  0  0  0
   -2.2609    3.6501   -6.9759 H   0  0  0  0  0  0  0  0  0  0  0  0
    0.0460    4.5219   -7.5364 H   0  0  0  0  0  0  0  0  0  0  0  0
   -0.3232    4.6259   -5.8195 H   0  0  0  0  0  0  0  0  0  0  0  0
    0.7342    3.3436   -6.4181 H   0  0  0  0  0  0  0  0  0  0  0  0
   -1.3006   -1.6031    2.4220 H   0  0  0  0  0  0  0  0  0  0  0  0
   -2.1512   -0.6392    1.1897 H   0  0  0  0  0  0  0  0  0  0  0  0
   -3.5381   -0.7891    3.1896 H   0  0  0  0  0  0  0  0  0  0  0  0
   -3.0098    0.8820    2.9596 H   0  0  0  0  0  0  0  0  0  0  0  0
   -2.2490   -0.1291    4.1929 H   0  0  0  0  0  0  0  0  0  0  0  0
   -0.7066   -1.1450   -0.2161 H   0  0  0  0  0  0  0  0  0  0  0  0
   -0.6228   -1.1196   -1.9782 H   0  0  0  0  0  0  0  0  0  0  0  0
   -3.2839   -0.8604   -0.4858 H   0  0  0  0  0  0  0  0  0  0  0  0
   -3.0341   -1.0308   -2.2169 H   0  0  0  0  0  0  0  0  0  0  0  0
   -2.6357   -2.3688   -1.1419 H   0  0  0  0  0  0  0  0  0  0  0  0
   -1.9940   -1.0455   -7.1841 H   0  0  0  0  0  0  0  0  0  0  0  0
   -5.4383    3.4127   -9.8922 H   0  0  0  0  0  0  0  0  0  0  0  0
   -3.8081   -0.5635  -12.4112 H   0  0  0  0  0  0  0  0  0  0  0  0
  1  2  2  0  0  0  0
  2  3  1  0  0  0  0
  3  4  2  0  0  0  0
  3  5  1  0  0  0  0
  5  6  2  0  0  0  0
  6  7  1  0  0  0  0
  7  8  2  0  0  0  0
  8  9  1  0  0  0  0
  8 10  1  0  0  0  0
 10 11  1  0  0  0  0
 10 12  2  0  0  0  0
 12 13  1  0  0  0  0
  6 14  1  0  0  0  0
 14 15  2  0  0  0  0
 15 16  1  0  0  0  0
 16 17  3  0  0  0  0
 15 18  1  0  0  0  0
 18 19  3  0  0  0  0
  1 20  1  0  0  0  0
 20 21  2  0  0  0  0
 21 22  1  0  0  0  0
 22 23  1  0  0  0  0
 21 24  1  0  0  0  0
 24 25  1  0  0  0  0
 25 26  1  0  0  0  0
 26 27  1  0  0  0  0
 27 28  1  0  0  0  0
 28 29  1  0  0  0  0
 29 30  2  0  0  0  0
 30 31  1  0  0  0  0
 31 32  1  0  0  0  0
 29 33  1  0  0  0  0
 33 34  1  0  0  0  0
 34 35  1  0  0  0  0
 35 36  1  0  0  0  0
 36 37  1  0  0  0  0
 37 38  1  0  0  0  0
 38 39  1  0  0  0  0
 37 40  2  0  0  0  0
 40 41  1  0  0  0  0
 41 42  1  0  0  0  0
 42 43  1  0  0  0  0
 43 44  1  0  0  0  0
 44 45  1  0  0  0  0
 45 46  1  0  0  0  0
 46 47  1  0  0  0  0
 47 48  1  0  0  0  0
 48 49  1  0  0  0  0
 49 50  1  0  0  0  0
 47 51  1  0  0  0  0
 51 52  1  0  0  0  0
 44 53  1  0  0  0  0
 53 54  1  0  0  0  0
 40 55  1  0  0  0  0
 55 56  2  0  0  0  0
 56 57  1  0  0  0  0
 57 58  2  0  0  0  0
 57 59  1  0  0  0  0
 59 60  2  0  0  0  0
 60 61  1  0  0  0  0
 61 62  1  0  0  0  0
 61 63  2  0  0  0  0
 63 64  1  0  0  0  0
 63 65  1  0  0  0  0
 65 66  2  0  0  0  0
 66 67  1  0  0  0  0
 67 68  2  0  0  0  0
 68 69  1  0  0  0  0
 69 70  3  0  0  0  0
 68 71  1  0  0  0  0
 71 72  3  0  0  0  0
 14  2  1  0  0  0  0
 50 20  1  0  0  0  0
 67 56  1  0  0  0  0
 12  5  1  0  0  0  0
 49 24  2  0  0  0  0
 66 59  1  0  0  0  0
 48 26  2  0  0  0  0
 46 27  2  0  0  0  0
 32 28  2  0  0  0  0
 45 33  2  0  0  0  0
 43 34  2  0  0  0  0
 42 36  2  0  0  0  0
  1 73  1  0  0  0  0
  7 74  1  0  0  0  0
 22 75  1  0  0  0  0
 22 76  1  0  0  0  0
 23 77  1  0  0  0  0
 23 78  1  0  0  0  0
 23 79  1  0  0  0  0
 38 80  1  0  0  0  0
 38 81  1  0  0  0  0
 39 82  1  0  0  0  0
 39 83  1  0  0  0  0
 39 84  1  0  0  0  0
 51 85  1  0  0  0  0
 51 86  1  0  0  0  0
 52 87  1  0  0  0  0
 52 88  1  0  0  0  0
 52 89  1  0  0  0  0
 53 90  1  0  0  0  0
 53 91  1  0  0  0  0
 54 92  1  0  0  0  0
 54 93  1  0  0  0  0
 54 94  1  0  0  0  0
 55 95  1  0  0  0  0
 60 96  1  0  0  0  0
 65 97  1  0  0  0  0
M  END
