98

C         -4.88470        2.42340       -4.61490
C         -5.29930        3.59790       -4.02040
C         -4.64540        4.26780       -2.89890
O         -3.65960        3.90890       -2.28420
C         -5.43300        5.49980       -2.65320
C         -6.50370        5.55830       -3.56240
C         -7.38920        6.62170       -3.53580
C         -7.18560        7.61840       -2.59150
F         -8.02720        8.65440       -2.55020
C         -6.12970        7.57470       -1.68460
F         -5.96710        8.55500       -0.79150
C         -5.24050        6.49810       -1.71610
F         -4.23220        6.45800       -0.84900
C         -6.44780        4.37380       -4.42430
C         -7.35520        4.08250       -5.41310
C         -7.32990        2.94460       -6.24600
N         -7.38440        2.04680       -6.96140
C         -8.46530        4.89080       -5.73560
N         -9.38470        5.50070       -6.05240
C         -3.83130        1.56420       -4.31510
C         -3.56140        0.39710       -5.06270
C         -4.28850       -0.03530       -6.29300
C         -3.76530        0.70800       -7.52550
C         -2.48390       -0.29700       -4.54010
S         -1.69630       -1.79180       -5.01350
C         -0.62760       -1.62240       -3.66530
C          0.44350       -2.30430       -3.06980
C          1.21100       -3.42890       -3.45420
C          2.35310       -3.80380       -2.66210
N          3.01400       -4.82330       -3.18580
S          2.26710       -5.28150       -4.54550
N          1.06980       -4.19290       -4.52500
C          2.59290       -3.13720       -1.43750
C          3.48820       -3.36950       -0.37980
S          4.79270       -4.42910        0.02480
C          4.86060       -3.70500        1.61490
C          5.64130       -3.97230        2.74510
C          6.70820       -5.01650        2.77480
C          8.03580       -4.43820        2.27740
C          5.28460       -3.15600        3.80990
S          4.01680       -2.00890        3.37540
C          3.92200       -2.68160        1.79350
C          3.13570       -2.49260        0.65640
N          2.07230       -1.71170        0.27970
C          1.74680       -2.07780       -1.01400
C          0.78540       -1.56010       -1.90620
N          0.00790       -0.42370       -1.83870
C         -0.86410       -0.46870       -2.89860
C         -1.91780        0.29730       -3.39420
S         -2.71080        1.76200       -2.96210
C          0.37560        0.84250       -1.23520
C          0.91840        1.81530       -2.28110
C          1.16060       -1.21130        1.29240
C          0.53850       -2.35580        2.09230
C          5.87490       -3.13710        5.09490
C          5.38130       -2.62260        6.25320
C          6.31850       -2.28690        7.36660
O          7.46730       -2.64740        7.46020
C          5.54380       -1.39920        8.25310
C          5.95930       -0.68980        9.37870
O          7.22860       -0.78530        9.80080
C          5.01040        0.10760       10.02810
C          3.71110        0.19430        9.56590
C          3.28970       -0.51620        8.44860
C          4.21280       -1.31600        7.80030
C          4.05800       -2.20150        6.64740
C          2.87370       -2.74440        6.22070
C          2.79610       -3.82740        5.32030
N          2.68320       -4.73910        4.63120
C          1.60380       -2.34280        6.67810
N          0.53990       -2.03760        6.98450
H         -5.47190        2.09980       -5.46310
H         -8.22370        6.71120       -4.21100
H         -4.12410       -1.10620       -6.42720
H         -5.36160        0.13590       -6.19570
H         -2.70550        0.50860       -7.66580
H         -3.90570        1.78090       -7.41810
H         -4.30320        0.37690       -8.40900
H          6.40690       -5.83660        2.12020
H          6.82720       -5.40810        3.78480
H          8.36660       -3.62660        2.92140
H          8.79900       -5.21140        2.27410
H          7.92570       -4.05500        1.26570
H          1.15310        0.66790       -0.49360
H         -0.50740        1.27400       -0.75400
H          1.24200        2.72800       -1.78910
H          0.15520        2.07250       -3.00950
H          1.76820        1.37640       -2.80000
H          0.35950       -0.65130        0.81520
H          1.72140       -0.54980        1.96000
H         -0.14460       -1.95030        2.83330
H          1.29580       -2.93930        2.60910
H         -0.01600       -3.01820        1.43100
H          6.89240       -3.51010        5.15720
H          7.37090       -0.25000       10.59210
H          5.30710        0.66510       10.90670
H          3.00780        0.82620       10.08650
H          2.27370       -0.43050        8.10090
