
  xtb     02012222413D
 energy: -185.144838717430 gnorm: 0.000316322526 xtb: 6.4.1 (unknown)
 96106  0     0  0            999 V2000
    2.8951   -3.4672    6.2638 C   0  0  0  0  0  0  0  0  0  0  0  0
    3.6667   -4.5067    5.7864 C   0  0  0  0  0  0  0  0  0  0  0  0
    3.8086   -4.8951    4.3852 C   0  0  0  0  0  0  0  0  0  0  0  0
    3.3096   -4.3695    3.4086 O   0  0  0  0  0  0  0  0  0  0  0  0
    4.7023   -6.0777    4.3848 C   0  0  0  0  0  0  0  0  0  0  0  0
    5.0862   -6.3731    5.7047 C   0  0  0  0  0  0  0  0  0  0  0  0
    5.9249   -7.4422    5.9683 C   0  0  0  0  0  0  0  0  0  0  0  0
    6.3692   -8.2044    4.8966 C   0  0  0  0  0  0  0  0  0  0  0  0
    7.1780   -9.2409    5.1295 F   0  0  0  0  0  0  0  0  0  0  0  0
    5.9981   -7.9239    3.5840 C   0  0  0  0  0  0  0  0  0  0  0  0
    6.4469   -8.6820    2.5798 F   0  0  0  0  0  0  0  0  0  0  0  0
    5.1517   -6.8435    3.3248 C   0  0  0  0  0  0  0  0  0  0  0  0
    4.7971   -6.5772    2.0705 F   0  0  0  0  0  0  0  0  0  0  0  0
    4.4579   -5.3984    6.6016 C   0  0  0  0  0  0  0  0  0  0  0  0
    4.6266   -5.3673    7.9639 C   0  0  0  0  0  0  0  0  0  0  0  0
    5.4294   -6.2755    8.6854 C   0  0  0  0  0  0  0  0  0  0  0  0
    6.0636   -6.9797    9.3331 N   0  0  0  0  0  0  0  0  0  0  0  0
    4.0402   -4.4362    8.8461 C   0  0  0  0  0  0  0  0  0  0  0  0
    3.6036   -3.7188    9.6307 N   0  0  0  0  0  0  0  0  0  0  0  0
    2.0918   -2.5407    5.6040 C   0  0  0  0  0  0  0  0  0  0  0  0
    1.3458   -1.5550    6.2860 C   0  0  0  0  0  0  0  0  0  0  0  0
    1.2695   -1.3914    7.7682 C   0  0  0  0  0  0  0  0  0  0  0  0
    0.2474   -2.3588    8.3723 C   0  0  0  0  0  0  0  0  0  0  0  0
    0.6270   -0.7674    5.4029 C   0  0  0  0  0  0  0  0  0  0  0  0
   -0.4720    0.5797    5.6418 S   0  0  0  0  0  0  0  0  0  0  0  0
   -0.6819    0.6750    3.9285 C   0  0  0  0  0  0  0  0  0  0  0  0
   -1.3807    1.4454    2.9869 C   0  0  0  0  0  0  0  0  0  0  0  0
   -2.1622    2.6203    3.0874 C   0  0  0  0  0  0  0  0  0  0  0  0
   -2.6238    3.2612    1.8843 C   0  0  0  0  0  0  0  0  0  0  0  0
   -3.2749    4.3861    2.1328 N   0  0  0  0  0  0  0  0  0  0  0  0
   -3.3142    4.6190    3.7331 S   0  0  0  0  0  0  0  0  0  0  0  0
   -2.4989    3.2933    4.1757 N   0  0  0  0  0  0  0  0  0  0  0  0
   -2.4149    2.6236    0.6392 C   0  0  0  0  0  0  0  0  0  0  0  0
   -2.8528    2.9030   -0.6665 C   0  0  0  0  0  0  0  0  0  0  0  0
   -3.7090    4.1369   -1.5226 S   0  0  0  0  0  0  0  0  0  0  0  0
   -3.5649    3.1919   -2.9867 C   0  0  0  0  0  0  0  0  0  0  0  0
   -3.9823    3.4312   -4.3073 C   0  0  0  0  0  0  0  0  0  0  0  0
   -4.8729    4.5813   -4.6447 C   0  0  0  0  0  0  0  0  0  0  0  0
   -6.2538    4.3888   -4.0125 C   0  0  0  0  0  0  0  0  0  0  0  0
   -3.6022    2.3957   -5.1448 C   0  0  0  0  0  0  0  0  0  0  0  0
   -2.7867    1.0922   -4.2672 S   0  0  0  0  0  0  0  0  0  0  0  0
   -2.8928    1.9803   -2.7955 C   0  0  0  0  0  0  0  0  0  0  0  0
   -2.4810    1.8162   -1.4690 C   0  0  0  0  0  0  0  0  0  0  0  0
   -1.8085    0.8834   -0.7198 N   0  0  0  0  0  0  0  0  0  0  0  0
   -1.7315    1.3813    0.5682 C   0  0  0  0  0  0  0  0  0  0  0  0
   -1.0762    0.8855    1.7150 C   0  0  0  0  0  0  0  0  0  0  0  0
   -0.1687   -0.1421    1.8671 N   0  0  0  0  0  0  0  0  0  0  0  0
    0.0586   -0.2814    3.2148 C   0  0  0  0  0  0  0  0  0  0  0  0
    0.8100   -1.1089    4.0480 C   0  0  0  0  0  0  0  0  0  0  0  0
    1.8769   -2.4446    3.8519 S   0  0  0  0  0  0  0  0  0  0  0  0
    0.8360   -0.5620    0.9089 C   0  0  0  0  0  0  0  0  0  0  0  0
    2.1796    0.1106    1.1871 C   0  0  0  0  0  0  0  0  0  0  0  0
   -1.8264   -0.5149   -1.1034 C   0  0  0  0  0  0  0  0  0  0  0  0
   -3.2577   -1.0356   -1.2296 C   0  0  0  0  0  0  0  0  0  0  0  0
   -3.7120    2.1745   -6.5419 C   0  0  0  0  0  0  0  0  0  0  0  0
   -3.6958    3.0345   -7.5884 C   0  0  0  0  0  0  0  0  0  0  0  0
   -3.4633    4.7698   -7.5958 S   0  0  0  0  0  0  0  0  0  0  0  0
   -3.4378    4.8011   -9.3498 C   0  0  0  0  0  0  0  0  0  0  0  0
   -3.2733    5.9954  -10.0027 C   0  0  0  0  0  0  0  0  0  0  0  0
   -3.2304    6.1947  -11.3934 C   0  0  0  0  0  0  0  0  0  0  0  0
   -3.1809    6.4280  -12.5168 N   0  0  0  0  0  0  0  0  0  0  0  0
   -3.1235    7.1768   -9.2454 C   0  0  0  0  0  0  0  0  0  0  0  0
   -3.0040    8.1383   -8.6318 N   0  0  0  0  0  0  0  0  0  0  0  0
   -3.6164    3.5621   -9.8749 N   0  0  0  0  0  0  0  0  0  0  0  0
   -3.6032    3.2481  -11.2925 C   0  0  0  0  0  0  0  0  0  0  0  0
   -2.1813    3.1136  -11.8236 C   0  0  0  0  0  0  0  0  0  0  0  0
   -3.7615    2.5278   -8.9605 C   0  0  0  0  0  0  0  0  0  0  0  0
   -3.9212    1.3731   -9.2831 O   0  0  0  0  0  0  0  0  0  0  0  0
    2.8990   -3.3410    7.3375 H   0  0  0  0  0  0  0  0  0  0  0  0
    6.2463   -7.7090    6.9611 H   0  0  0  0  0  0  0  0  0  0  0  0
    2.2428   -1.5569    8.2325 H   0  0  0  0  0  0  0  0  0  0  0  0
    0.9583   -0.3671    7.9824 H   0  0  0  0  0  0  0  0  0  0  0  0
   -0.7402   -2.1741    7.9564 H   0  0  0  0  0  0  0  0  0  0  0  0
    0.2050   -2.2216    9.4488 H   0  0  0  0  0  0  0  0  0  0  0  0
    0.5236   -3.3904    8.1674 H   0  0  0  0  0  0  0  0  0  0  0  0
   -4.9922    4.6753   -5.7206 H   0  0  0  0  0  0  0  0  0  0  0  0
   -4.4251    5.5004   -4.2609 H   0  0  0  0  0  0  0  0  0  0  0  0
   -6.8929    5.2305   -4.2645 H   0  0  0  0  0  0  0  0  0  0  0  0
   -6.1782    4.3249   -2.9301 H   0  0  0  0  0  0  0  0  0  0  0  0
   -6.7171    3.4773   -4.3843 H   0  0  0  0  0  0  0  0  0  0  0  0
    0.9474   -1.6488    0.9710 H   0  0  0  0  0  0  0  0  0  0  0  0
    0.5141   -0.2800   -0.0917 H   0  0  0  0  0  0  0  0  0  0  0  0
    2.8904   -0.1745    0.4169 H   0  0  0  0  0  0  0  0  0  0  0  0
    2.5781   -0.1942    2.1501 H   0  0  0  0  0  0  0  0  0  0  0  0
    2.0686    1.1931    1.1783 H   0  0  0  0  0  0  0  0  0  0  0  0
   -1.3060   -0.6209   -2.0605 H   0  0  0  0  0  0  0  0  0  0  0  0
   -1.3158   -1.1017   -0.3428 H   0  0  0  0  0  0  0  0  0  0  0  0
   -3.7964   -0.5165   -2.0171 H   0  0  0  0  0  0  0  0  0  0  0  0
   -3.7912   -0.8985   -0.2914 H   0  0  0  0  0  0  0  0  0  0  0  0
   -3.2367   -2.0951   -1.4678 H   0  0  0  0  0  0  0  0  0  0  0  0
   -3.7263    1.1307   -6.8447 H   0  0  0  0  0  0  0  0  0  0  0  0
   -4.1527    4.0178  -11.8367 H   0  0  0  0  0  0  0  0  0  0  0  0
   -4.1253    2.2921  -11.3884 H   0  0  0  0  0  0  0  0  0  0  0  0
   -1.6529    2.3289  -11.2868 H   0  0  0  0  0  0  0  0  0  0  0  0
   -1.6335    4.0474  -11.7209 H   0  0  0  0  0  0  0  0  0  0  0  0
   -2.2163    2.8540  -12.8773 H   0  0  0  0  0  0  0  0  0  0  0  0
  1  2  2  0  0  0  0
  2  3  1  0  0  0  0
  3  4  2  0  0  0  0
  3  5  1  0  0  0  0
  5  6  2  0  0  0  0
  6  7  1  0  0  0  0
  7  8  2  0  0  0  0
  8  9  1  0  0  0  0
  8 10  1  0  0  0  0
 10 11  1  0  0  0  0
 10 12  2  0  0  0  0
 12 13  1  0  0  0  0
  6 14  1  0  0  0  0
 14 15  2  0  0  0  0
 15 16  1  0  0  0  0
 16 17  3  0  0  0  0
 15 18  1  0  0  0  0
 18 19  3  0  0  0  0
  1 20  1  0  0  0  0
 20 21  2  0  0  0  0
 21 22  1  0  0  0  0
 22 23  1  0  0  0  0
 21 24  1  0  0  0  0
 24 25  1  0  0  0  0
 25 26  1  0  0  0  0
 26 27  1  0  0  0  0
 27 28  1  0  0  0  0
 28 29  1  0  0  0  0
 29 30  2  0  0  0  0
 30 31  1  0  0  0  0
 31 32  1  0  0  0  0
 29 33  1  0  0  0  0
 33 34  1  0  0  0  0
 34 35  1  0  0  0  0
 35 36  1  0  0  0  0
 36 37  1  0  0  0  0
 37 38  1  0  0  0  0
 38 39  1  0  0  0  0
 37 40  2  0  0  0  0
 40 41  1  0  0  0  0
 41 42  1  0  0  0  0
 42 43  1  0  0  0  0
 43 44  1  0  0  0  0
 44 45  1  0  0  0  0
 45 46  1  0  0  0  0
 46 47  1  0  0  0  0
 47 48  1  0  0  0  0
 48 49  1  0  0  0  0
 49 50  1  0  0  0  0
 47 51  1  0  0  0  0
 51 52  1  0  0  0  0
 44 53  1  0  0  0  0
 53 54  1  0  0  0  0
 40 55  1  0  0  0  0
 55 56  2  0  0  0  0
 56 57  1  0  0  0  0
 57 58  1  0  0  0  0
 58 59  2  0  0  0  0
 59 60  1  0  0  0  0
 60 61  3  0  0  0  0
 59 62  1  0  0  0  0
 62 63  3  0  0  0  0
 58 64  1  0  0  0  0
 64 65  1  0  0  0  0
 65 66  1  0  0  0  0
 64 67  1  0  0  0  0
 67 68  2  0  0  0  0
 14  2  1  0  0  0  0
 50 20  1  0  0  0  0
 67 56  1  0  0  0  0
 12  5  1  0  0  0  0
 49 24  2  0  0  0  0
 48 26  2  0  0  0  0
 46 27  2  0  0  0  0
 32 28  2  0  0  0  0
 45 33  2  0  0  0  0
 43 34  2  0  0  0  0
 42 36  2  0  0  0  0
  1 69  1  0  0  0  0
  7 70  1  0  0  0  0
 22 71  1  0  0  0  0
 22 72  1  0  0  0  0
 23 73  1  0  0  0  0
 23 74  1  0  0  0  0
 23 75  1  0  0  0  0
 38 76  1  0  0  0  0
 38 77  1  0  0  0  0
 39 78  1  0  0  0  0
 39 79  1  0  0  0  0
 39 80  1  0  0  0  0
 51 81  1  0  0  0  0
 51 82  1  0  0  0  0
 52 83  1  0  0  0  0
 52 84  1  0  0  0  0
 52 85  1  0  0  0  0
 53 86  1  0  0  0  0
 53 87  1  0  0  0  0
 54 88  1  0  0  0  0
 54 89  1  0  0  0  0
 54 90  1  0  0  0  0
 55 91  1  0  0  0  0
 65 92  1  0  0  0  0
 65 93  1  0  0  0  0
 66 94  1  0  0  0  0
 66 95  1  0  0  0  0
 66 96  1  0  0  0  0
M  END
