
  xtb     02012219483D
 energy: -191.203696625105 gnorm: 0.000491583696 xtb: 6.4.1 (unknown)
 97108  0     0  0            999 V2000
   -5.4924    0.7703   -4.8804 C   0  0  0  0  0  0  0  0  0  0  0  0
   -6.2142    1.7093   -5.5613 C   0  0  0  0  0  0  0  0  0  0  0  0
   -7.5407    1.3455   -6.1188 C   0  0  0  0  0  0  0  0  0  0  0  0
   -8.1570    0.3284   -5.9190 O   0  0  0  0  0  0  0  0  0  0  0  0
   -7.9055    2.4842   -7.0021 C   0  0  0  0  0  0  0  0  0  0  0  0
   -6.9380    3.4993   -6.8863 C   0  0  0  0  0  0  0  0  0  0  0  0
   -7.0331    4.6605   -7.6321 C   0  0  0  0  0  0  0  0  0  0  0  0
   -8.1135    4.7935   -8.4929 C   0  0  0  0  0  0  0  0  0  0  0  0
   -8.2225    5.8990   -9.2325 F   0  0  0  0  0  0  0  0  0  0  0  0
   -9.0883    3.8052   -8.6126 C   0  0  0  0  0  0  0  0  0  0  0  0
  -10.1161    3.9742   -9.4477 F   0  0  0  0  0  0  0  0  0  0  0  0
   -8.9830    2.6343   -7.8571 C   0  0  0  0  0  0  0  0  0  0  0  0
   -9.9136    1.6943   -7.9791 F   0  0  0  0  0  0  0  0  0  0  0  0
   -5.9456    3.0866   -5.8919 C   0  0  0  0  0  0  0  0  0  0  0  0
   -5.1088    3.9367   -5.2165 C   0  0  0  0  0  0  0  0  0  0  0  0
   -4.9660    5.3072   -5.5159 C   0  0  0  0  0  0  0  0  0  0  0  0
   -4.7968    6.4220   -5.7291 N   0  0  0  0  0  0  0  0  0  0  0  0
   -4.3530    3.5587   -4.0880 C   0  0  0  0  0  0  0  0  0  0  0  0
   -3.7444    3.3247   -3.1435 N   0  0  0  0  0  0  0  0  0  0  0  0
   -4.1134    0.7236   -4.5816 C   0  0  0  0  0  0  0  0  0  0  0  0
   -2.9986    1.1468   -5.3022 C   0  0  0  0  0  0  0  0  0  0  0  0
   -3.0200    1.7165   -6.6862 C   0  0  0  0  0  0  0  0  0  0  0  0
   -2.2633    3.0408   -6.7977 C   0  0  0  0  0  0  0  0  0  0  0  0
   -1.8148    0.8228   -4.6297 C   0  0  0  0  0  0  0  0  0  0  0  0
   -0.1249    1.0749   -5.0081 S   0  0  0  0  0  0  0  0  0  0  0  0
    0.3057    0.3716   -3.4899 C   0  0  0  0  0  0  0  0  0  0  0  0
    1.4565    0.0871   -2.7364 C   0  0  0  0  0  0  0  0  0  0  0  0
    2.8425    0.1414   -3.0151 C   0  0  0  0  0  0  0  0  0  0  0  0
    3.7768   -0.3523   -2.0363 C   0  0  0  0  0  0  0  0  0  0  0  0
    5.0263   -0.3085   -2.4692 N   0  0  0  0  0  0  0  0  0  0  0  0
    5.0355    0.3064   -3.9651 S   0  0  0  0  0  0  0  0  0  0  0  0
    3.4427    0.5382   -4.1256 N   0  0  0  0  0  0  0  0  0  0  0  0
    3.3032   -0.7316   -0.7580 C   0  0  0  0  0  0  0  0  0  0  0  0
    3.9468   -1.0590    0.4480 C   0  0  0  0  0  0  0  0  0  0  0  0
    5.5455   -1.2980    1.0603 S   0  0  0  0  0  0  0  0  0  0  0  0
    4.8818   -1.4845    2.6679 C   0  0  0  0  0  0  0  0  0  0  0  0
    5.4708   -1.6709    3.9216 C   0  0  0  0  0  0  0  0  0  0  0  0
    6.9421   -1.8191    4.1255 C   0  0  0  0  0  0  0  0  0  0  0  0
    7.3510   -3.2904    4.0111 C   0  0  0  0  0  0  0  0  0  0  0  0
    4.5156   -1.6869    4.9323 C   0  0  0  0  0  0  0  0  0  0  0  0
    2.8738   -1.5411    4.2997 S   0  0  0  0  0  0  0  0  0  0  0  0
    3.4842   -1.3828    2.6989 C   0  0  0  0  0  0  0  0  0  0  0  0
    2.9517   -1.1419    1.4338 C   0  0  0  0  0  0  0  0  0  0  0  0
    1.7152   -0.9073    0.8865 N   0  0  0  0  0  0  0  0  0  0  0  0
    1.9151   -0.6793   -0.4622 C   0  0  0  0  0  0  0  0  0  0  0  0
    0.9933   -0.4395   -1.5011 C   0  0  0  0  0  0  0  0  0  0  0  0
   -0.3816   -0.5571   -1.5312 N   0  0  0  0  0  0  0  0  0  0  0  0
   -0.7996   -0.0495   -2.7353 C   0  0  0  0  0  0  0  0  0  0  0  0
   -2.0067    0.1846   -3.3943 C   0  0  0  0  0  0  0  0  0  0  0  0
   -3.6722   -0.1061   -3.0901 S   0  0  0  0  0  0  0  0  0  0  0  0
   -1.1740   -1.5397   -0.8195 C   0  0  0  0  0  0  0  0  0  0  0  0
   -1.4725   -2.7509   -1.7027 C   0  0  0  0  0  0  0  0  0  0  0  0
    0.6687   -0.3329    1.7126 C   0  0  0  0  0  0  0  0  0  0  0  0
    1.0879    1.0277    2.2689 C   0  0  0  0  0  0  0  0  0  0  0  0
    4.7449   -1.8645    6.3127 C   0  0  0  0  0  0  0  0  0  0  0  0
    3.9217   -1.5588    7.3568 C   0  0  0  0  0  0  0  0  0  0  0  0
    4.1037   -2.2392    8.6632 C   0  0  0  0  0  0  0  0  0  0  0  0
    5.0516   -2.9029    9.0144 O   0  0  0  0  0  0  0  0  0  0  0  0
    2.8496   -1.9778    9.4081 C   0  0  0  0  0  0  0  0  0  0  0  0
    2.4530   -2.4772   10.6319 C   0  0  0  0  0  0  0  0  0  0  0  0
    1.2052   -2.0842   11.0936 C   0  0  0  0  0  0  0  0  0  0  0  0
    0.7764   -2.5463   12.2796 F   0  0  0  0  0  0  0  0  0  0  0  0
    0.3780   -1.2328   10.3757 C   0  0  0  0  0  0  0  0  0  0  0  0
    0.7911   -0.7306    9.1511 C   0  0  0  0  0  0  0  0  0  0  0  0
    2.0346   -1.1040    8.6645 C   0  0  0  0  0  0  0  0  0  0  0  0
    2.7519   -0.7140    7.4525 C   0  0  0  0  0  0  0  0  0  0  0  0
    2.5079    0.4190    6.7201 C   0  0  0  0  0  0  0  0  0  0  0  0
    3.4075    0.9349    5.7638 C   0  0  0  0  0  0  0  0  0  0  0  0
    4.1322    1.4171    5.0150 N   0  0  0  0  0  0  0  0  0  0  0  0
    1.3722    1.2362    6.8809 C   0  0  0  0  0  0  0  0  0  0  0  0
    0.4496    1.9172    6.9393 N   0  0  0  0  0  0  0  0  0  0  0  0
   -6.0719   -0.0871   -4.5477 H   0  0  0  0  0  0  0  0  0  0  0  0
   -6.3058    5.4539   -7.5785 H   0  0  0  0  0  0  0  0  0  0  0  0
   -4.0502    1.8401   -7.0214 H   0  0  0  0  0  0  0  0  0  0  0  0
   -2.5400    0.9908   -7.3505 H   0  0  0  0  0  0  0  0  0  0  0  0
   -1.2029    2.8906   -6.6156 H   0  0  0  0  0  0  0  0  0  0  0  0
   -2.6268    3.7694   -6.0780 H   0  0  0  0  0  0  0  0  0  0  0  0
   -2.3861    3.4510   -7.7968 H   0  0  0  0  0  0  0  0  0  0  0  0
    7.2302   -1.4270    5.1007 H   0  0  0  0  0  0  0  0  0  0  0  0
    7.4580   -1.2425    3.3555 H   0  0  0  0  0  0  0  0  0  0  0  0
    6.8495   -3.8894    4.7678 H   0  0  0  0  0  0  0  0  0  0  0  0
    8.4245   -3.3882    4.1468 H   0  0  0  0  0  0  0  0  0  0  0  0
    7.0882   -3.6806    3.0307 H   0  0  0  0  0  0  0  0  0  0  0  0
   -2.1108   -1.0727   -0.4997 H   0  0  0  0  0  0  0  0  0  0  0  0
   -0.6164   -1.8798    0.0516 H   0  0  0  0  0  0  0  0  0  0  0  0
   -2.0766   -2.4708   -2.5608 H   0  0  0  0  0  0  0  0  0  0  0  0
   -0.5448   -3.1955   -2.0569 H   0  0  0  0  0  0  0  0  0  0  0  0
   -2.0175   -3.4932   -1.1266 H   0  0  0  0  0  0  0  0  0  0  0  0
   -0.2324   -0.1983    1.1186 H   0  0  0  0  0  0  0  0  0  0  0  0
    0.4646   -1.0274    2.5332 H   0  0  0  0  0  0  0  0  0  0  0  0
    0.2850    1.4343    2.8772 H   0  0  0  0  0  0  0  0  0  0  0  0
    1.2933    1.7189    1.4545 H   0  0  0  0  0  0  0  0  0  0  0  0
    1.9786    0.9479    2.8866 H   0  0  0  0  0  0  0  0  0  0  0  0
    5.6577   -2.3850    6.5845 H   0  0  0  0  0  0  0  0  0  0  0  0
    3.0827   -3.1394   11.2042 H   0  0  0  0  0  0  0  0  0  0  0  0
   -0.5848   -0.9684   10.7838 H   0  0  0  0  0  0  0  0  0  0  0  0
    0.1433   -0.0729    8.5945 H   0  0  0  0  0  0  0  0  0  0  0  0
  1  2  2  0  0  0  0
  2  3  1  0  0  0  0
  3  4  2  0  0  0  0
  3  5  1  0  0  0  0
  5  6  2  0  0  0  0
  6  7  1  0  0  0  0
  7  8  2  0  0  0  0
  8  9  1  0  0  0  0
  8 10  1  0  0  0  0
 10 11  1  0  0  0  0
 10 12  2  0  0  0  0
 12 13  1  0  0  0  0
  6 14  1  0  0  0  0
 14 15  2  0  0  0  0
 15 16  1  0  0  0  0
 16 17  3  0  0  0  0
 15 18  1  0  0  0  0
 18 19  3  0  0  0  0
  1 20  1  0  0  0  0
 20 21  2  0  0  0  0
 21 22  1  0  0  0  0
 22 23  1  0  0  0  0
 21 24  1  0  0  0  0
 24 25  1  0  0  0  0
 25 26  1  0  0  0  0
 26 27  1  0  0  0  0
 27 28  1  0  0  0  0
 28 29  1  0  0  0  0
 29 30  2  0  0  0  0
 30 31  1  0  0  0  0
 31 32  1  0  0  0  0
 29 33  1  0  0  0  0
 33 34  1  0  0  0  0
 34 35  1  0  0  0  0
 35 36  1  0  0  0  0
 36 37  1  0  0  0  0
 37 38  1  0  0  0  0
 38 39  1  0  0  0  0
 37 40  2  0  0  0  0
 40 41  1  0  0  0  0
 41 42  1  0  0  0  0
 42 43  1  0  0  0  0
 43 44  1  0  0  0  0
 44 45  1  0  0  0  0
 45 46  1  0  0  0  0
 46 47  1  0  0  0  0
 47 48  1  0  0  0  0
 48 49  1  0  0  0  0
 49 50  1  0  0  0  0
 47 51  1  0  0  0  0
 51 52  1  0  0  0  0
 44 53  1  0  0  0  0
 53 54  1  0  0  0  0
 40 55  1  0  0  0  0
 55 56  2  0  0  0  0
 56 57  1  0  0  0  0
 57 58  2  0  0  0  0
 57 59  1  0  0  0  0
 59 60  2  0  0  0  0
 60 61  1  0  0  0  0
 61 62  1  0  0  0  0
 61 63  2  0  0  0  0
 63 64  1  0  0  0  0
 64 65  2  0  0  0  0
 65 66  1  0  0  0  0
 66 67  2  0  0  0  0
 67 68  1  0  0  0  0
 68 69  3  0  0  0  0
 67 70  1  0  0  0  0
 70 71  3  0  0  0  0
 14  2  1  0  0  0  0
 50 20  1  0  0  0  0
 66 56  1  0  0  0  0
 12  5  1  0  0  0  0
 49 24  2  0  0  0  0
 65 59  1  0  0  0  0
 48 26  2  0  0  0  0
 46 27  2  0  0  0  0
 32 28  2  0  0  0  0
 45 33  2  0  0  0  0
 43 34  2  0  0  0  0
 42 36  2  0  0  0  0
  1 72  1  0  0  0  0
  7 73  1  0  0  0  0
 22 74  1  0  0  0  0
 22 75  1  0  0  0  0
 23 76  1  0  0  0  0
 23 77  1  0  0  0  0
 23 78  1  0  0  0  0
 38 79  1  0  0  0  0
 38 80  1  0  0  0  0
 39 81  1  0  0  0  0
 39 82  1  0  0  0  0
 39 83  1  0  0  0  0
 51 84  1  0  0  0  0
 51 85  1  0  0  0  0
 52 86  1  0  0  0  0
 52 87  1  0  0  0  0
 52 88  1  0  0  0  0
 53 89  1  0  0  0  0
 53 90  1  0  0  0  0
 54 91  1  0  0  0  0
 54 92  1  0  0  0  0
 54 93  1  0  0  0  0
 55 94  1  0  0  0  0
 60 95  1  0  0  0  0
 63 96  1  0  0  0  0
 64 97  1  0  0  0  0
M  END
