
  xtb     02022200563D
 energy: -266.780231054172 gnorm: 0.000546164250 xtb: 6.4.1 (unknown)
142156  0     0  0            999 V2000
   -0.2176   -4.6477   -6.5679 C   0  0  0  0  0  0  0  0  0  0  0  0
    0.1875   -4.1614   -7.7914 C   0  0  0  0  0  0  0  0  0  0  0  0
    0.4932   -2.7616   -8.0975 C   0  0  0  0  0  0  0  0  0  0  0  0
    0.2858   -1.7772   -7.4171 O   0  0  0  0  0  0  0  0  0  0  0  0
    1.1190   -2.7748   -9.4410 C   0  0  0  0  0  0  0  0  0  0  0  0
    1.1120   -4.0847   -9.9500 C   0  0  0  0  0  0  0  0  0  0  0  0
    1.6435   -4.3530  -11.1999 C   0  0  0  0  0  0  0  0  0  0  0  0
    2.1821   -3.2966  -11.9216 C   0  0  0  0  0  0  0  0  0  0  0  0
    2.7046   -3.5342  -13.1265 F   0  0  0  0  0  0  0  0  0  0  0  0
    2.2023   -1.9942  -11.4269 C   0  0  0  0  0  0  0  0  0  0  0  0
    2.7381   -1.0063  -12.1489 F   0  0  0  0  0  0  0  0  0  0  0  0
    1.6612   -1.7306  -10.1673 C   0  0  0  0  0  0  0  0  0  0  0  0
    1.6891   -0.4883   -9.6877 F   0  0  0  0  0  0  0  0  0  0  0  0
    0.5027   -4.9672   -8.9508 C   0  0  0  0  0  0  0  0  0  0  0  0
    0.2664   -6.3060   -9.1296 C   0  0  0  0  0  0  0  0  0  0  0  0
   -0.3509   -7.1636   -8.1941 C   0  0  0  0  0  0  0  0  0  0  0  0
   -0.8500   -7.9263   -7.4955 N   0  0  0  0  0  0  0  0  0  0  0  0
    0.5961   -7.0199  -10.3013 C   0  0  0  0  0  0  0  0  0  0  0  0
    0.8395   -7.6611  -11.2216 N   0  0  0  0  0  0  0  0  0  0  0  0
   -0.4810   -3.9780   -5.3695 C   0  0  0  0  0  0  0  0  0  0  0  0
   -0.6768   -4.6628   -4.1615 C   0  0  0  0  0  0  0  0  0  0  0  0
   -0.8226   -3.8048   -3.0932 C   0  0  0  0  0  0  0  0  0  0  0  0
   -0.9327   -4.0221   -1.3631 S   0  0  0  0  0  0  0  0  0  0  0  0
   -0.8891   -2.3009   -1.1675 C   0  0  0  0  0  0  0  0  0  0  0  0
   -0.7470   -1.4059   -0.0624 C   0  0  0  0  0  0  0  0  0  0  0  0
   -0.6814   -1.6490    1.3076 C   0  0  0  0  0  0  0  0  0  0  0  0
   -0.4202   -0.5744    2.1244 C   0  0  0  0  0  0  0  0  0  0  0  0
   -0.2397   -0.5645    3.6324 C   0  0  0  0  0  0  0  0  0  0  0  0
   -1.5426   -0.7385    4.3982 C   0  0  0  0  0  0  0  0  0  0  0  0
   -1.4940   -0.9408    5.7750 C   0  0  0  0  0  0  0  0  0  0  0  0
   -2.6521   -1.0482    6.5097 C   0  0  0  0  0  0  0  0  0  0  0  0
   -3.9003   -0.9486    5.8885 C   0  0  0  0  0  0  0  0  0  0  0  0
   -4.9772   -1.0728    6.7014 O   0  0  0  0  0  0  0  0  0  0  0  0
   -6.2751   -0.9557    6.1505 C   0  0  0  0  0  0  0  0  0  0  0  0
   -7.2740   -1.1207    7.2847 C   0  0  0  0  0  0  0  0  0  0  0  0
   -3.9504   -0.7348    4.5155 C   0  0  0  0  0  0  0  0  0  0  0  0
   -2.7783   -0.6263    3.7846 C   0  0  0  0  0  0  0  0  0  0  0  0
    0.7874   -1.6058    4.0284 C   0  0  0  0  0  0  0  0  0  0  0  0
    0.3912   -2.9205    4.2565 C   0  0  0  0  0  0  0  0  0  0  0  0
    1.3167   -3.8877    4.5758 C   0  0  0  0  0  0  0  0  0  0  0  0
    2.6734   -3.5694    4.6772 C   0  0  0  0  0  0  0  0  0  0  0  0
    3.4983   -4.5943    5.0026 O   0  0  0  0  0  0  0  0  0  0  0  0
    4.8850   -4.3482    5.1382 C   0  0  0  0  0  0  0  0  0  0  0  0
    5.5508   -5.6618    5.5156 C   0  0  0  0  0  0  0  0  0  0  0  0
    3.0736   -2.2588    4.4415 C   0  0  0  0  0  0  0  0  0  0  0  0
    2.1341   -1.2952    4.1143 C   0  0  0  0  0  0  0  0  0  0  0  0
    0.2038    0.8565    3.8513 C   0  0  0  0  0  0  0  0  0  0  0  0
    0.1560    1.5710    2.6639 C   0  0  0  0  0  0  0  0  0  0  0  0
   -0.2168    0.7177    1.5810 C   0  0  0  0  0  0  0  0  0  0  0  0
   -0.3314    0.9709    0.2162 C   0  0  0  0  0  0  0  0  0  0  0  0
   -0.5913   -0.1032   -0.6010 C   0  0  0  0  0  0  0  0  0  0  0  0
   -0.7673   -0.1181   -2.1080 C   0  0  0  0  0  0  0  0  0  0  0  0
   -2.0702    0.6149   -2.3943 C   0  0  0  0  0  0  0  0  0  0  0  0
   -3.2875   -0.0538   -2.4335 C   0  0  0  0  0  0  0  0  0  0  0  0
   -4.4604    0.6360   -2.6504 C   0  0  0  0  0  0  0  0  0  0  0  0
   -4.4540    2.0209   -2.8277 C   0  0  0  0  0  0  0  0  0  0  0  0
   -5.6726    2.5902   -3.0149 O   0  0  0  0  0  0  0  0  0  0  0  0
   -5.7722    3.9693   -3.3124 C   0  0  0  0  0  0  0  0  0  0  0  0
   -5.4025    4.2853   -4.7585 C   0  0  0  0  0  0  0  0  0  0  0  0
   -3.2368    2.6935   -2.7768 C   0  0  0  0  0  0  0  0  0  0  0  0
   -2.0651    1.9918   -2.5568 C   0  0  0  0  0  0  0  0  0  0  0  0
    0.3770    0.4189   -2.9412 C   0  0  0  0  0  0  0  0  0  0  0  0
    0.1580    0.6463   -4.2932 C   0  0  0  0  0  0  0  0  0  0  0  0
    1.1871    1.0135   -5.1383 C   0  0  0  0  0  0  0  0  0  0  0  0
    2.4763    1.1631   -4.6358 C   0  0  0  0  0  0  0  0  0  0  0  0
    3.5759    1.4848   -5.3634 O   0  0  0  0  0  0  0  0  0  0  0  0
    3.4522    1.7266   -6.7537 C   0  0  0  0  0  0  0  0  0  0  0  0
    2.9137    3.1201   -7.0629 C   0  0  0  0  0  0  0  0  0  0  0  0
    2.6945    0.9492   -3.2725 C   0  0  0  0  0  0  0  0  0  0  0  0
    1.6623    0.5706   -2.4393 C   0  0  0  0  0  0  0  0  0  0  0  0
   -0.8581   -1.5972   -2.3615 C   0  0  0  0  0  0  0  0  0  0  0  0
   -0.7955   -2.4395   -3.4659 C   0  0  0  0  0  0  0  0  0  0  0  0
   -0.5404   -2.2305   -5.1486 S   0  0  0  0  0  0  0  0  0  0  0  0
    0.6350    3.2269    2.8097 S   0  0  0  0  0  0  0  0  0  0  0  0
    0.9275    2.9698    4.5060 C   0  0  0  0  0  0  0  0  0  0  0  0
    1.4075    3.7772    5.5228 C   0  0  0  0  0  0  0  0  0  0  0  0
    1.5066    3.0945    6.7302 C   0  0  0  0  0  0  0  0  0  0  0  0
    0.9849    1.4173    6.5736 S   0  0  0  0  0  0  0  0  0  0  0  0
    0.6361    1.6481    4.9098 C   0  0  0  0  0  0  0  0  0  0  0  0
    2.0466    3.5065    7.9588 C   0  0  0  0  0  0  0  0  0  0  0  0
    2.3880    4.7560    8.4035 C   0  0  0  0  0  0  0  0  0  0  0  0
    3.3827    4.8588    9.5019 C   0  0  0  0  0  0  0  0  0  0  0  0
    3.7817    3.9644   10.2053 O   0  0  0  0  0  0  0  0  0  0  0  0
    3.8047    6.2835    9.4993 C   0  0  0  0  0  0  0  0  0  0  0  0
    3.0297    7.0008    8.5698 C   0  0  0  0  0  0  0  0  0  0  0  0
    3.2533    8.3483    8.3504 C   0  0  0  0  0  0  0  0  0  0  0  0
    4.2625    8.9670    9.0751 C   0  0  0  0  0  0  0  0  0  0  0  0
    4.5076   10.2631    8.8708 F   0  0  0  0  0  0  0  0  0  0  0  0
    5.0334    8.2756   10.0069 C   0  0  0  0  0  0  0  0  0  0  0  0
    5.9931    8.9083   10.6864 F   0  0  0  0  0  0  0  0  0  0  0  0
    4.8007    6.9147   10.2227 C   0  0  0  0  0  0  0  0  0  0  0  0
    5.5425    6.2594   11.1089 F   0  0  0  0  0  0  0  0  0  0  0  0
    2.0465    6.0883    7.9787 C   0  0  0  0  0  0  0  0  0  0  0  0
    0.8870    6.4815    7.3585 C   0  0  0  0  0  0  0  0  0  0  0  0
    0.5706    7.8192    7.0476 C   0  0  0  0  0  0  0  0  0  0  0  0
    0.2799    8.8898    6.7536 N   0  0  0  0  0  0  0  0  0  0  0  0
   -0.1580    5.5920    7.0385 C   0  0  0  0  0  0  0  0  0  0  0  0
   -1.0415    4.9051    6.7842 N   0  0  0  0  0  0  0  0  0  0  0  0
   -0.2981   -5.7248   -6.4814 H   0  0  0  0  0  0  0  0  0  0  0  0
    1.6630   -5.3389  -11.6334 H   0  0  0  0  0  0  0  0  0  0  0  0
   -0.6720   -5.7360   -4.0966 H   0  0  0  0  0  0  0  0  0  0  0  0
   -0.8100   -2.6452    1.7011 H   0  0  0  0  0  0  0  0  0  0  0  0
   -0.5373   -1.0213    6.2699 H   0  0  0  0  0  0  0  0  0  0  0  0
   -2.6214   -1.2075    7.5755 H   0  0  0  0  0  0  0  0  0  0  0  0
   -6.4331   -1.7328    5.3895 H   0  0  0  0  0  0  0  0  0  0  0  0
   -6.3956    0.0291    5.6783 H   0  0  0  0  0  0  0  0  0  0  0  0
   -7.1493   -2.0944    7.7503 H   0  0  0  0  0  0  0  0  0  0  0  0
   -7.1101   -0.3541    8.0369 H   0  0  0  0  0  0  0  0  0  0  0  0
   -8.2866   -1.0347    6.9012 H   0  0  0  0  0  0  0  0  0  0  0  0
   -4.8931   -0.6463    3.9993 H   0  0  0  0  0  0  0  0  0  0  0  0
   -2.8423   -0.4536    2.7202 H   0  0  0  0  0  0  0  0  0  0  0  0
   -0.6548   -3.1823    4.1967 H   0  0  0  0  0  0  0  0  0  0  0  0
    1.0158   -4.9072    4.7570 H   0  0  0  0  0  0  0  0  0  0  0  0
    5.0589   -3.5958    5.9199 H   0  0  0  0  0  0  0  0  0  0  0  0
    5.2954   -3.9728    4.1903 H   0  0  0  0  0  0  0  0  0  0  0  0
    6.6206   -5.5145    5.6317 H   0  0  0  0  0  0  0  0  0  0  0  0
    5.1373   -6.0317    6.4496 H   0  0  0  0  0  0  0  0  0  0  0  0
    5.3737   -6.4031    4.7412 H   0  0  0  0  0  0  0  0  0  0  0  0
    4.1113   -1.9728    4.5068 H   0  0  0  0  0  0  0  0  0  0  0  0
    2.4699   -0.2858    3.9259 H   0  0  0  0  0  0  0  0  0  0  0  0
   -0.1903    1.9657   -0.1765 H   0  0  0  0  0  0  0  0  0  0  0  0
   -3.3235   -1.1247   -2.2985 H   0  0  0  0  0  0  0  0  0  0  0  0
   -5.4073    0.1211   -2.6863 H   0  0  0  0  0  0  0  0  0  0  0  0
   -5.1679    4.5615   -2.6143 H   0  0  0  0  0  0  0  0  0  0  0  0
   -6.8257    4.2060   -3.1392 H   0  0  0  0  0  0  0  0  0  0  0  0
   -4.3642    4.0329   -4.9597 H   0  0  0  0  0  0  0  0  0  0  0  0
   -6.0319    3.7098   -5.4327 H   0  0  0  0  0  0  0  0  0  0  0  0
   -5.5531    5.3437   -4.9521 H   0  0  0  0  0  0  0  0  0  0  0  0
   -3.1814    3.7633   -2.9014 H   0  0  0  0  0  0  0  0  0  0  0  0
   -1.1290    2.5298   -2.5283 H   0  0  0  0  0  0  0  0  0  0  0  0
   -0.8367    0.5361   -4.6989 H   0  0  0  0  0  0  0  0  0  0  0  0
    0.9674    1.1515   -6.1837 H   0  0  0  0  0  0  0  0  0  0  0  0
    2.8337    0.9555   -7.2272 H   0  0  0  0  0  0  0  0  0  0  0  0
    4.4731    1.6332   -7.1349 H   0  0  0  0  0  0  0  0  0  0  0  0
    1.9094    3.2467   -6.6664 H   0  0  0  0  0  0  0  0  0  0  0  0
    3.5576    3.8734   -6.6155 H   0  0  0  0  0  0  0  0  0  0  0  0
    2.8888    3.2685   -8.1387 H   0  0  0  0  0  0  0  0  0  0  0  0
    3.6961    1.0695   -2.8907 H   0  0  0  0  0  0  0  0  0  0  0  0
    1.8606    0.3873   -1.3932 H   0  0  0  0  0  0  0  0  0  0  0  0
    1.7309    4.7922    5.3825 H   0  0  0  0  0  0  0  0  0  0  0  0
    2.3314    2.7047    8.6343 H   0  0  0  0  0  0  0  0  0  0  0  0
    2.6891    8.9298    7.6400 H   0  0  0  0  0  0  0  0  0  0  0  0
  1  2  2  0  0  0  0
  2  3  1  0  0  0  0
  3  4  2  0  0  0  0
  3  5  1  0  0  0  0
  5  6  2  0  0  0  0
  6  7  1  0  0  0  0
  7  8  2  0  0  0  0
  8  9  1  0  0  0  0
  8 10  1  0  0  0  0
 10 11  1  0  0  0  0
 10 12  2  0  0  0  0
 12 13  1  0  0  0  0
  6 14  1  0  0  0  0
 14 15  2  0  0  0  0
 15 16  1  0  0  0  0
 16 17  3  0  0  0  0
 15 18  1  0  0  0  0
 18 19  3  0  0  0  0
  1 20  1  0  0  0  0
 20 21  2  0  0  0  0
 21 22  1  0  0  0  0
 22 23  1  0  0  0  0
 23 24  1  0  0  0  0
 24 25  1  0  0  0  0
 25 26  2  0  0  0  0
 26 27  1  0  0  0  0
 27 28  1  0  0  0  0
 28 29  1  0  0  0  0
 29 30  2  0  0  0  0
 30 31  1  0  0  0  0
 31 32  2  0  0  0  0
 32 33  1  0  0  0  0
 33 34  1  0  0  0  0
 34 35  1  0  0  0  0
 32 36  1  0  0  0  0
 36 37  2  0  0  0  0
 28 38  1  0  0  0  0
 38 39  2  0  0  0  0
 39 40  1  0  0  0  0
 40 41  2  0  0  0  0
 41 42  1  0  0  0  0
 42 43  1  0  0  0  0
 43 44  1  0  0  0  0
 41 45  1  0  0  0  0
 45 46  2  0  0  0  0
 28 47  1  0  0  0  0
 47 48  2  0  0  0  0
 48 49  1  0  0  0  0
 49 50  1  0  0  0  0
 50 51  2  0  0  0  0
 51 52  1  0  0  0  0
 52 53  1  0  0  0  0
 53 54  2  0  0  0  0
 54 55  1  0  0  0  0
 55 56  2  0  0  0  0
 56 57  1  0  0  0  0
 57 58  1  0  0  0  0
 58 59  1  0  0  0  0
 56 60  1  0  0  0  0
 60 61  2  0  0  0  0
 52 62  1  0  0  0  0
 62 63  2  0  0  0  0
 63 64  1  0  0  0  0
 64 65  2  0  0  0  0
 65 66  1  0  0  0  0
 66 67  1  0  0  0  0
 67 68  1  0  0  0  0
 65 69  1  0  0  0  0
 69 70  2  0  0  0  0
 52 71  1  0  0  0  0
 71 72  1  0  0  0  0
 72 73  1  0  0  0  0
 48 74  1  0  0  0  0
 74 75  1  0  0  0  0
 75 76  1  0  0  0  0
 76 77  2  0  0  0  0
 77 78  1  0  0  0  0
 78 79  1  0  0  0  0
 77 80  1  0  0  0  0
 80 81  2  0  0  0  0
 81 82  1  0  0  0  0
 82 83  2  0  0  0  0
 82 84  1  0  0  0  0
 84 85  2  0  0  0  0
 85 86  1  0  0  0  0
 86 87  2  0  0  0  0
 87 88  1  0  0  0  0
 87 89  1  0  0  0  0
 89 90  1  0  0  0  0
 89 91  2  0  0  0  0
 91 92  1  0  0  0  0
 85 93  1  0  0  0  0
 93 94  2  0  0  0  0
 94 95  1  0  0  0  0
 95 96  3  0  0  0  0
 94 97  1  0  0  0  0
 97 98  3  0  0  0  0
 14  2  1  0  0  0  0
 73 20  1  0  0  0  0
 79 75  2  0  0  0  0
 93 81  1  0  0  0  0
 12  5  1  0  0  0  0
 72 22  2  0  0  0  0
 91 84  1  0  0  0  0
 71 24  2  0  0  0  0
 51 25  1  0  0  0  0
 61 53  1  0  0  0  0
 70 62  1  0  0  0  0
 49 27  2  0  0  0  0
 37 29  1  0  0  0  0
 46 38  1  0  0  0  0
 79 47  1  0  0  0  0
  1 99  1  0  0  0  0
  7100  1  0  0  0  0
 21101  1  0  0  0  0
 26102  1  0  0  0  0
 30103  1  0  0  0  0
 31104  1  0  0  0  0
 34105  1  0  0  0  0
 34106  1  0  0  0  0
 35107  1  0  0  0  0
 35108  1  0  0  0  0
 35109  1  0  0  0  0
 36110  1  0  0  0  0
 37111  1  0  0  0  0
 39112  1  0  0  0  0
 40113  1  0  0  0  0
 43114  1  0  0  0  0
 43115  1  0  0  0  0
 44116  1  0  0  0  0
 44117  1  0  0  0  0
 44118  1  0  0  0  0
 45119  1  0  0  0  0
 46120  1  0  0  0  0
 50121  1  0  0  0  0
 54122  1  0  0  0  0
 55123  1  0  0  0  0
 58124  1  0  0  0  0
 58125  1  0  0  0  0
 59126  1  0  0  0  0
 59127  1  0  0  0  0
 59128  1  0  0  0  0
 60129  1  0  0  0  0
 61130  1  0  0  0  0
 63131  1  0  0  0  0
 64132  1  0  0  0  0
 67133  1  0  0  0  0
 67134  1  0  0  0  0
 68135  1  0  0  0  0
 68136  1  0  0  0  0
 68137  1  0  0  0  0
 69138  1  0  0  0  0
 70139  1  0  0  0  0
 76140  1  0  0  0  0
 80141  1  0  0  0  0
 86142  1  0  0  0  0
M  END
