92

C          1.25270       -4.11250        6.45730
C          2.61050       -3.96290        6.54840
C          3.42700       -5.03170        7.16810
O          3.03040       -5.97020        7.81450
C          4.82520       -4.71400        6.76950
C          4.85160       -3.48850        6.07770
C          6.03600       -2.97960        5.57630
C          7.19530       -3.71600        5.77500
F          8.35010       -3.25430        5.28890
C          7.19170       -4.92630        6.46450
F          8.33030       -5.60230        6.64000
C          5.99060       -5.43170        6.96970
F          5.99590       -6.58780        7.62550
C          3.49540       -2.93840        6.05810
C          3.18140       -1.61410        5.87960
C          1.92000       -1.07810        6.21320
N          0.92570       -0.60140        6.53300
C          4.08990       -0.63610        5.43300
N          4.77900        0.19220        5.03680
C          0.35610       -3.50010        5.56770
C         -1.03100       -3.44120        5.70070
C         -1.78100       -3.90530        6.90180
C         -1.65670       -2.88650        8.03790
C         -1.62040       -2.79430        4.61530
S         -3.28150       -2.38950        4.24460
C         -2.74970       -1.68190        2.76230
C         -3.28420       -0.99780        1.66390
C         -4.60320       -0.56240        1.40890
C         -4.85610        0.22110        0.23780
N         -6.12100        0.60130        0.14650
S         -6.92450        0.01890        1.42460
N         -5.68960       -0.74110        2.14390
C         -3.79910        0.44580       -0.67130
C         -3.79730        1.06100       -1.92930
S         -4.89250        1.88550       -2.98340
C         -3.61410        2.00260       -4.17280
C         -3.57880        2.53800       -5.46300
C         -4.73960        3.23480       -6.09350
C         -4.64310        4.74750       -5.88000
C         -2.32280        2.37900       -6.04130
S         -1.19220        1.55720       -4.96890
C         -2.40640        1.43050       -3.74970
C         -2.51320        0.89790       -2.46000
N         -1.71690        0.23780       -1.56590
C         -2.48110       -0.05290       -0.44700
C         -2.19910       -0.70030        0.78600
N         -1.03240       -1.17260        1.36630
C         -1.36520       -1.75760        2.55900
C         -0.71650       -2.38780        3.62030
S          0.90360       -2.79630        4.04290
C          0.34860       -0.81590        1.12150
C          0.57460        0.68540        1.27750
C         -0.44910       -0.29960       -2.00660
C         -0.50890       -1.81680       -2.16460
C         -1.93580        2.79030       -7.33000
C         -0.72430        2.65020       -7.92680
S          0.71630        1.92400       -7.25850
C          1.62050        2.23930       -8.74070
S          3.18750        1.83840       -8.94260
N          0.83380        2.85820       -9.65330
C          1.31390        3.20780      -10.97630
C          1.24590        2.01470      -11.92110
C         -0.47660        3.12310       -9.28700
O         -1.27700        3.67520      -10.00900
H          0.83210       -4.87440        7.10710
H          6.09110       -2.04890        5.03590
H         -2.83220       -4.02410        6.63240
H         -1.39470       -4.87080        7.23540
H         -0.61510       -2.75600        8.32130
H         -2.04740       -1.92220        7.72410
H         -2.21770       -3.22650        8.90420
H         -5.65650        2.86440       -5.63090
H         -4.77900        3.01650       -7.16160
H         -5.50150        5.24170       -6.32690
H         -3.73790        5.14190       -6.33580
H         -4.62480        4.97780       -4.81750
H          0.67230       -1.17540        0.14530
H          0.94240       -1.34690        1.86960
H          0.33850        0.99260        2.29380
H         -0.05530        1.25250        0.59590
H          1.61550        0.92560        1.07910
H         -0.24110        0.15350       -2.97890
H          0.35160        0.00780       -1.33410
H         -1.24180       -2.08150       -2.92310
H         -0.79520       -2.30120       -1.23380
H          0.46100       -2.19480       -2.47600
H         -2.68910        3.27940       -7.93580
H          0.67020        4.01510      -11.33370
H          2.34340        3.56130      -10.88130
H          1.88050        1.20920      -11.55940
H          0.22280        1.65430      -12.00090
H          1.58960        2.31280      -12.90710
