
  xtb     02022200463D
 energy: -242.433402499706 gnorm: 0.000489170935 xtb: 6.4.1 (unknown)
127142  0     0  0            999 V2000
   -0.0134   -6.9823    6.9093 C   0  0  0  0  0  0  0  0  0  0  0  0
   -1.0988   -7.8107    6.8927 C   0  0  0  0  0  0  0  0  0  0  0  0
   -1.0857   -9.0431    7.7206 C   0  0  0  0  0  0  0  0  0  0  0  0
   -0.3055   -9.3212    8.5966 O   0  0  0  0  0  0  0  0  0  0  0  0
   -2.2071   -9.8629    7.1918 C   0  0  0  0  0  0  0  0  0  0  0  0
   -2.9151   -9.1257    6.2243 C   0  0  0  0  0  0  0  0  0  0  0  0
   -3.9878   -9.6838    5.5522 C   0  0  0  0  0  0  0  0  0  0  0  0
   -4.3451  -10.9877    5.8650 C   0  0  0  0  0  0  0  0  0  0  0  0
   -5.3685  -11.5529    5.2208 F   0  0  0  0  0  0  0  0  0  0  0  0
   -3.6658  -11.7284    6.8299 C   0  0  0  0  0  0  0  0  0  0  0  0
   -4.0457  -12.9779    7.1080 F   0  0  0  0  0  0  0  0  0  0  0  0
   -2.5817  -11.1583    7.5023 C   0  0  0  0  0  0  0  0  0  0  0  0
   -1.9355  -11.8716    8.4181 F   0  0  0  0  0  0  0  0  0  0  0  0
   -2.3299   -7.7857    6.1386 C   0  0  0  0  0  0  0  0  0  0  0  0
   -2.9916   -6.6745    5.6833 C   0  0  0  0  0  0  0  0  0  0  0  0
   -4.2512   -6.7127    5.0528 C   0  0  0  0  0  0  0  0  0  0  0  0
   -5.2689   -6.6926    4.5225 N   0  0  0  0  0  0  0  0  0  0  0  0
   -2.5446   -5.3519    5.8919 C   0  0  0  0  0  0  0  0  0  0  0  0
   -2.2561   -4.2599    6.0957 N   0  0  0  0  0  0  0  0  0  0  0  0
    0.3696   -6.0140    5.9610 C   0  0  0  0  0  0  0  0  0  0  0  0
    1.2352   -4.9539    6.1857 C   0  0  0  0  0  0  0  0  0  0  0  0
    1.3686   -4.1440    5.0672 C   0  0  0  0  0  0  0  0  0  0  0  0
    2.1740   -2.6320    4.7573 S   0  0  0  0  0  0  0  0  0  0  0  0
    1.5153   -2.6272    3.1581 C   0  0  0  0  0  0  0  0  0  0  0  0
    1.4820   -1.6981    2.0730 C   0  0  0  0  0  0  0  0  0  0  0  0
    2.0809   -0.4493    1.9228 C   0  0  0  0  0  0  0  0  0  0  0  0
    1.8159    0.2395    0.7635 C   0  0  0  0  0  0  0  0  0  0  0  0
    2.2985    1.6287    0.3527 C   0  0  0  0  0  0  0  0  0  0  0  0
    3.8099    1.6522    0.1862 C   0  0  0  0  0  0  0  0  0  0  0  0
    4.4195    0.5794   -0.4564 C   0  0  0  0  0  0  0  0  0  0  0  0
    5.7844    0.5700   -0.6745 C   0  0  0  0  0  0  0  0  0  0  0  0
    6.5630    1.6375   -0.2597 C   0  0  0  0  0  0  0  0  0  0  0  0
    5.9642    2.7119    0.3726 C   0  0  0  0  0  0  0  0  0  0  0  0
    4.5965    2.7223    0.5931 C   0  0  0  0  0  0  0  0  0  0  0  0
    1.7544    2.6079    1.3769 C   0  0  0  0  0  0  0  0  0  0  0  0
    2.3621    2.7289    2.6227 C   0  0  0  0  0  0  0  0  0  0  0  0
    1.8425    3.5794    3.5812 C   0  0  0  0  0  0  0  0  0  0  0  0
    0.6999    4.3151    3.3165 C   0  0  0  0  0  0  0  0  0  0  0  0
    0.0757    4.1837    2.0894 C   0  0  0  0  0  0  0  0  0  0  0  0
    0.5963    3.3332    1.1283 C   0  0  0  0  0  0  0  0  0  0  0  0
    1.6500    1.7662   -1.0090 C   0  0  0  0  0  0  0  0  0  0  0  0
    0.9084    0.6298   -1.2970 C   0  0  0  0  0  0  0  0  0  0  0  0
    0.9820   -0.3177   -0.2321 C   0  0  0  0  0  0  0  0  0  0  0  0
    0.3905   -1.5698   -0.0890 C   0  0  0  0  0  0  0  0  0  0  0  0
    0.6387   -2.2505    1.0789 C   0  0  0  0  0  0  0  0  0  0  0  0
    0.1256   -3.6177    1.4973 C   0  0  0  0  0  0  0  0  0  0  0  0
   -1.3740   -3.6985    1.7253 C   0  0  0  0  0  0  0  0  0  0  0  0
   -2.1300   -2.5616    1.9703 C   0  0  0  0  0  0  0  0  0  0  0  0
   -3.4732   -2.6739    2.2863 C   0  0  0  0  0  0  0  0  0  0  0  0
   -4.0704   -3.9194    2.3663 C   0  0  0  0  0  0  0  0  0  0  0  0
   -3.3187   -5.0564    2.1241 C   0  0  0  0  0  0  0  0  0  0  0  0
   -1.9760   -4.9484    1.8132 C   0  0  0  0  0  0  0  0  0  0  0  0
    0.6174   -4.6343    0.4848 C   0  0  0  0  0  0  0  0  0  0  0  0
   -0.1135   -4.8614   -0.6751 C   0  0  0  0  0  0  0  0  0  0  0  0
    0.3474   -5.7502   -1.6290 C   0  0  0  0  0  0  0  0  0  0  0  0
    1.5450   -6.4185   -1.4374 C   0  0  0  0  0  0  0  0  0  0  0  0
    2.2804   -6.1902   -0.2878 C   0  0  0  0  0  0  0  0  0  0  0  0
    1.8217   -5.2994    0.6671 C   0  0  0  0  0  0  0  0  0  0  0  0
    0.7513   -3.7451    2.8586 C   0  0  0  0  0  0  0  0  0  0  0  0
    0.6506   -4.6039    3.9449 C   0  0  0  0  0  0  0  0  0  0  0  0
   -0.1948   -6.0587    4.2910 S   0  0  0  0  0  0  0  0  0  0  0  0
    0.0831    0.6426   -2.8171 S   0  0  0  0  0  0  0  0  0  0  0  0
    0.7267    2.2255   -3.1018 C   0  0  0  0  0  0  0  0  0  0  0  0
    0.6684    3.2292   -4.0596 C   0  0  0  0  0  0  0  0  0  0  0  0
    1.4712    4.2962   -3.5705 C   0  0  0  0  0  0  0  0  0  0  0  0
    2.0179    3.9495   -2.3618 N   0  0  0  0  0  0  0  0  0  0  0  0
    2.8944    4.8009   -1.5966 C   0  0  0  0  0  0  0  0  0  0  0  0
    2.1285    5.8880   -0.8477 C   0  0  0  0  0  0  0  0  0  0  0  0
    1.5622    2.6987   -2.0497 C   0  0  0  0  0  0  0  0  0  0  0  0
    1.4977    5.4056   -4.3987 C   0  0  0  0  0  0  0  0  0  0  0  0
    0.7183    5.2188   -5.5359 C   0  0  0  0  0  0  0  0  0  0  0  0
   -0.0334    3.6082   -5.5765 S   0  0  0  0  0  0  0  0  0  0  0  0
    0.4418    6.0484   -6.6294 C   0  0  0  0  0  0  0  0  0  0  0  0
    0.6847    7.3872   -6.8339 C   0  0  0  0  0  0  0  0  0  0  0  0
    1.1354    8.3933   -5.8546 C   0  0  0  0  0  0  0  0  0  0  0  0
    1.5762    8.2369   -4.7336 O   0  0  0  0  0  0  0  0  0  0  0  0
    0.9160    9.7058   -6.5066 C   0  0  0  0  0  0  0  0  0  0  0  0
    1.1088   10.9640   -5.9748 C   0  0  0  0  0  0  0  0  0  0  0  0
    0.8108   12.0562   -6.7829 C   0  0  0  0  0  0  0  0  0  0  0  0
    0.9636   13.4508   -6.2412 C   0  0  0  0  0  0  0  0  0  0  0  0
   -0.2010   13.9289   -5.7594 F   0  0  0  0  0  0  0  0  0  0  0  0
    1.3685   14.3266   -7.1734 F   0  0  0  0  0  0  0  0  0  0  0  0
    1.8449   13.5264   -5.2350 F   0  0  0  0  0  0  0  0  0  0  0  0
    0.3295   11.8833   -8.0765 C   0  0  0  0  0  0  0  0  0  0  0  0
    0.1437   10.6138   -8.6050 C   0  0  0  0  0  0  0  0  0  0  0  0
    0.4402    9.5151   -7.8130 C   0  0  0  0  0  0  0  0  0  0  0  0
    0.3521    8.0760   -8.0661 C   0  0  0  0  0  0  0  0  0  0  0  0
    0.0841    7.5096   -9.2851 C   0  0  0  0  0  0  0  0  0  0  0  0
    0.1143    6.1279   -9.5746 C   0  0  0  0  0  0  0  0  0  0  0  0
    0.1433    5.0283   -9.9042 N   0  0  0  0  0  0  0  0  0  0  0  0
   -0.2146    8.2478  -10.4500 C   0  0  0  0  0  0  0  0  0  0  0  0
   -0.4673    8.7875  -11.4310 N   0  0  0  0  0  0  0  0  0  0  0  0
    0.6756   -7.1393    7.7340 H   0  0  0  0  0  0  0  0  0  0  0  0
   -4.5453   -9.1558    4.7964 H   0  0  0  0  0  0  0  0  0  0  0  0
    1.6888   -4.7630    7.1410 H   0  0  0  0  0  0  0  0  0  0  0  0
    2.7186   -0.0559    2.6980 H   0  0  0  0  0  0  0  0  0  0  0  0
    3.8188   -0.2561   -0.7860 H   0  0  0  0  0  0  0  0  0  0  0  0
    6.2404   -0.2736   -1.1707 H   0  0  0  0  0  0  0  0  0  0  0  0
    7.6291    1.6315   -0.4288 H   0  0  0  0  0  0  0  0  0  0  0  0
    6.5607    3.5510    0.6987 H   0  0  0  0  0  0  0  0  0  0  0  0
    4.1524    3.5671    1.1000 H   0  0  0  0  0  0  0  0  0  0  0  0
    3.2534    2.1615    2.8453 H   0  0  0  0  0  0  0  0  0  0  0  0
    2.3317    3.6647    4.5402 H   0  0  0  0  0  0  0  0  0  0  0  0
    0.2954    4.9800    4.0643 H   0  0  0  0  0  0  0  0  0  0  0  0
   -0.8230    4.7431    1.8752 H   0  0  0  0  0  0  0  0  0  0  0  0
    0.0871    3.2316    0.1810 H   0  0  0  0  0  0  0  0  0  0  0  0
   -0.2431   -1.9715   -0.8641 H   0  0  0  0  0  0  0  0  0  0  0  0
   -1.6683   -1.5860    1.9196 H   0  0  0  0  0  0  0  0  0  0  0  0
   -4.0516   -1.7825    2.4775 H   0  0  0  0  0  0  0  0  0  0  0  0
   -5.1147   -4.0096    2.6223 H   0  0  0  0  0  0  0  0  0  0  0  0
   -3.7800   -6.0307    2.1841 H   0  0  0  0  0  0  0  0  0  0  0  0
   -1.3905   -5.8388    1.6314 H   0  0  0  0  0  0  0  0  0  0  0  0
   -1.0543   -4.3517   -0.8234 H   0  0  0  0  0  0  0  0  0  0  0  0
   -0.2315   -5.9217   -2.5243 H   0  0  0  0  0  0  0  0  0  0  0  0
    1.9032   -7.1141   -2.1814 H   0  0  0  0  0  0  0  0  0  0  0  0
    3.2162   -6.7060   -0.1312 H   0  0  0  0  0  0  0  0  0  0  0  0
    2.4056   -5.1237    1.5592 H   0  0  0  0  0  0  0  0  0  0  0  0
    3.6044    5.2619   -2.2902 H   0  0  0  0  0  0  0  0  0  0  0  0
    3.4489    4.1715   -0.9001 H   0  0  0  0  0  0  0  0  0  0  0  0
    1.4400    5.4460   -0.1314 H   0  0  0  0  0  0  0  0  0  0  0  0
    2.8283    6.5219   -0.3105 H   0  0  0  0  0  0  0  0  0  0  0  0
    1.5668    6.5053   -1.5444 H   0  0  0  0  0  0  0  0  0  0  0  0
    2.0317    6.3174   -4.2108 H   0  0  0  0  0  0  0  0  0  0  0  0
   -0.0917    5.5402   -7.4246 H   0  0  0  0  0  0  0  0  0  0  0  0
    1.4794   11.0864   -4.9687 H   0  0  0  0  0  0  0  0  0  0  0  0
    0.1016   12.7506   -8.6772 H   0  0  0  0  0  0  0  0  0  0  0  0
   -0.2325   10.5058   -9.6086 H   0  0  0  0  0  0  0  0  0  0  0  0
  1  2  2  0  0  0  0
  2  3  1  0  0  0  0
  3  4  2  0  0  0  0
  3  5  1  0  0  0  0
  5  6  2  0  0  0  0
  6  7  1  0  0  0  0
  7  8  2  0  0  0  0
  8  9  1  0  0  0  0
  8 10  1  0  0  0  0
 10 11  1  0  0  0  0
 10 12  2  0  0  0  0
 12 13  1  0  0  0  0
  6 14  1  0  0  0  0
 14 15  2  0  0  0  0
 15 16  1  0  0  0  0
 16 17  3  0  0  0  0
 15 18  1  0  0  0  0
 18 19  3  0  0  0  0
  1 20  1  0  0  0  0
 20 21  2  0  0  0  0
 21 22  1  0  0  0  0
 22 23  1  0  0  0  0
 23 24  1  0  0  0  0
 24 25  1  0  0  0  0
 25 26  2  0  0  0  0
 26 27  1  0  0  0  0
 27 28  1  0  0  0  0
 28 29  1  0  0  0  0
 29 30  2  0  0  0  0
 30 31  1  0  0  0  0
 31 32  2  0  0  0  0
 32 33  1  0  0  0  0
 33 34  2  0  0  0  0
 28 35  1  0  0  0  0
 35 36  2  0  0  0  0
 36 37  1  0  0  0  0
 37 38  2  0  0  0  0
 38 39  1  0  0  0  0
 39 40  2  0  0  0  0
 28 41  1  0  0  0  0
 41 42  2  0  0  0  0
 42 43  1  0  0  0  0
 43 44  1  0  0  0  0
 44 45  2  0  0  0  0
 45 46  1  0  0  0  0
 46 47  1  0  0  0  0
 47 48  2  0  0  0  0
 48 49  1  0  0  0  0
 49 50  2  0  0  0  0
 50 51  1  0  0  0  0
 51 52  2  0  0  0  0
 46 53  1  0  0  0  0
 53 54  2  0  0  0  0
 54 55  1  0  0  0  0
 55 56  2  0  0  0  0
 56 57  1  0  0  0  0
 57 58  2  0  0  0  0
 46 59  1  0  0  0  0
 59 60  1  0  0  0  0
 60 61  1  0  0  0  0
 42 62  1  0  0  0  0
 62 63  1  0  0  0  0
 63 64  1  0  0  0  0
 64 65  2  0  0  0  0
 65 66  1  0  0  0  0
 66 67  1  0  0  0  0
 67 68  1  0  0  0  0
 66 69  1  0  0  0  0
 65 70  1  0  0  0  0
 70 71  2  0  0  0  0
 71 72  1  0  0  0  0
 71 73  1  0  0  0  0
 73 74  2  0  0  0  0
 74 75  1  0  0  0  0
 75 76  2  0  0  0  0
 75 77  1  0  0  0  0
 77 78  2  0  0  0  0
 78 79  1  0  0  0  0
 79 80  1  0  0  0  0
 80 81  1  0  0  0  0
 80 82  1  0  0  0  0
 80 83  1  0  0  0  0
 79 84  2  0  0  0  0
 84 85  1  0  0  0  0
 85 86  2  0  0  0  0
 86 87  1  0  0  0  0
 87 88  2  0  0  0  0
 88 89  1  0  0  0  0
 89 90  3  0  0  0  0
 88 91  1  0  0  0  0
 91 92  3  0  0  0  0
 14  2  1  0  0  0  0
 61 20  1  0  0  0  0
 69 63  2  0  0  0  0
 87 74  1  0  0  0  0
 12  5  1  0  0  0  0
 60 22  2  0  0  0  0
 72 64  1  0  0  0  0
 86 77  1  0  0  0  0
 59 24  2  0  0  0  0
 45 25  1  0  0  0  0
 52 47  1  0  0  0  0
 58 53  1  0  0  0  0
 43 27  2  0  0  0  0
 34 29  1  0  0  0  0
 40 35  1  0  0  0  0
 69 41  1  0  0  0  0
  1 93  1  0  0  0  0
  7 94  1  0  0  0  0
 21 95  1  0  0  0  0
 26 96  1  0  0  0  0
 30 97  1  0  0  0  0
 31 98  1  0  0  0  0
 32 99  1  0  0  0  0
 33100  1  0  0  0  0
 34101  1  0  0  0  0
 36102  1  0  0  0  0
 37103  1  0  0  0  0
 38104  1  0  0  0  0
 39105  1  0  0  0  0
 40106  1  0  0  0  0
 44107  1  0  0  0  0
 48108  1  0  0  0  0
 49109  1  0  0  0  0
 50110  1  0  0  0  0
 51111  1  0  0  0  0
 52112  1  0  0  0  0
 54113  1  0  0  0  0
 55114  1  0  0  0  0
 56115  1  0  0  0  0
 57116  1  0  0  0  0
 58117  1  0  0  0  0
 67118  1  0  0  0  0
 67119  1  0  0  0  0
 68120  1  0  0  0  0
 68121  1  0  0  0  0
 68122  1  0  0  0  0
 70123  1  0  0  0  0
 73124  1  0  0  0  0
 78125  1  0  0  0  0
 84126  1  0  0  0  0
 85127  1  0  0  0  0
M  END
