97

C         -5.56360        5.28110        2.69350
C         -6.64600        4.45690        2.91720
C         -6.68070        3.01130        2.70380
O         -5.79050        2.29640        2.28610
C         -8.04130        2.57940        3.10200
C         -8.78220        3.69800        3.52280
C        -10.09000        3.55160        3.95170
C        -10.63940        2.27680        3.95110
F        -11.89870        2.11380        4.36280
C         -9.91910        1.15980        3.53460
F        -10.48460       -0.04990        3.54800
C         -8.59960        1.31420        3.10320
F         -7.91240        0.24740        2.70570
C         -7.93470        4.88840        3.40800
C         -8.33500        6.16610        3.71000
C         -9.62220        6.50530        4.17790
N        -10.64870        6.85060        4.55780
C         -7.54110        7.32680        3.59900
N         -6.96620        8.31970        3.53480
C         -4.28130        5.00760        2.22120
C         -3.29730        6.00700        2.06730
C         -3.44880        7.44630        2.43420
C         -3.18780        7.65370        3.92910
C         -2.11530        5.47760        1.57610
S         -0.56990        6.20650        1.17920
C          0.00570        4.64990        0.69600
C          1.16520        4.06870        0.16360
C          2.37210        4.61130       -0.33800
C          3.31150        3.74200       -0.99480
N          4.34830        4.40150       -1.48480
S          4.16990        5.97330       -1.14510
N          2.75780        5.87650       -0.36110
C          3.08280        2.34560       -0.98380
C          3.85050        1.24780       -1.39820
S          5.32450        0.93090       -2.24340
C          5.04750       -0.78670       -2.01950
C          5.76700       -1.90540       -2.40610
C          7.02410       -1.82130       -3.20730
C          6.72460       -1.95480       -4.70340
C          5.12330       -3.09360       -2.00060
S          3.62510       -2.77260       -1.11960
C          3.86380       -1.07930       -1.31410
C          3.18390        0.08860       -0.96730
N          2.02180        0.42850       -0.32030
C          1.92610        1.80430       -0.35670
C          0.89570        2.67570        0.05680
N         -0.40550        2.42690        0.44090
C         -0.94380        3.62460        0.84080
C         -2.16160        4.08990        1.33800
S         -3.69220        3.41260        1.73860
C         -1.26500        1.35850       -0.03210
C         -2.12910        1.82380       -1.20320
C          1.45260       -0.45680        0.67800
C          2.46550       -0.76890        1.77870
C          5.62690       -4.35950       -2.29470
C          5.14390       -5.61920       -2.01060
C          3.93100       -5.92090       -1.25250
O          3.14790       -5.13650       -0.75290
C          3.84580       -7.39970       -1.20370
C          4.93860       -7.95380       -1.89370
C          5.08320       -9.32690       -1.99100
C          4.12320      -10.12960       -1.39030
F          4.24400      -11.45640       -1.47280
C          3.03610       -9.59560       -0.70250
F          2.13410      -10.40240       -0.13770
C          2.89590       -8.20910       -0.60790
F          1.85780       -7.70000        0.04910
C          5.76680       -6.86020       -2.41020
C          6.91440       -7.02750       -3.14430
C          7.72260       -5.99250       -3.65950
N          8.43410       -5.21410       -4.11580
C          7.45550       -8.28180       -3.49770
N          7.94980       -9.26580       -3.82140
H         -5.72010        6.32640        2.92100
H        -10.69770        4.37620        4.28490
H         -4.44490        7.81510        2.18590
H         -2.71850        8.02260        1.86290
H         -3.29130        8.70590        4.17700
H         -3.89780        7.08720        4.52710
H         -2.18150        7.33080        4.18570
H          7.48110       -0.84710       -3.02260
H          7.73420       -2.59390       -2.90990
H          6.26600       -2.91630       -4.92120
H          7.64810       -1.87920       -5.26980
H          6.04970       -1.16560       -5.02600
H         -1.90540        1.03390        0.79350
H         -0.65040        0.52720       -0.37050
H         -2.80550        2.61750       -0.90030
H         -2.72200        0.98890       -1.56520
H         -1.50150        2.18630       -2.01490
H          0.59030        0.02550        1.13390
H          1.14280       -1.38460        0.18770
H          2.81450        0.15140        2.24270
H          1.99240       -1.38560        2.53730
H          3.32020       -1.30940        1.38280
H          6.55470       -4.33100       -2.84930
H          5.90170       -9.79890       -2.50830
