
  xtb     02012222393D
 energy: -200.822304450130 gnorm: 0.000414221723 xtb: 6.4.1 (unknown)
103115  0     0  0            999 V2000
    2.8576   -4.0715    6.4287 C   0  0  0  0  0  0  0  0  0  0  0  0
    1.8064   -3.9621    7.3166 C   0  0  0  0  0  0  0  0  0  0  0  0
    0.5758   -3.2060    7.0985 C   0  0  0  0  0  0  0  0  0  0  0  0
    0.2604   -2.5537    6.1214 O   0  0  0  0  0  0  0  0  0  0  0  0
   -0.2296   -3.3844    8.3298 C   0  0  0  0  0  0  0  0  0  0  0  0
    0.4738   -4.2000    9.2334 C   0  0  0  0  0  0  0  0  0  0  0  0
   -0.0748   -4.5181   10.4637 C   0  0  0  0  0  0  0  0  0  0  0  0
   -1.3287   -4.0084   10.7719 C   0  0  0  0  0  0  0  0  0  0  0  0
   -1.8760   -4.3036   11.9535 F   0  0  0  0  0  0  0  0  0  0  0  0
   -2.0363   -3.1975    9.8881 C   0  0  0  0  0  0  0  0  0  0  0  0
   -3.2405   -2.7257   10.2229 F   0  0  0  0  0  0  0  0  0  0  0  0
   -1.4775   -2.8810    8.6479 C   0  0  0  0  0  0  0  0  0  0  0  0
   -2.1547   -2.1069    7.8040 F   0  0  0  0  0  0  0  0  0  0  0  0
    1.7537   -4.5738    8.6237 C   0  0  0  0  0  0  0  0  0  0  0  0
    2.7013   -5.3679    9.2213 C   0  0  0  0  0  0  0  0  0  0  0  0
    3.9363   -5.7464    8.6550 C   0  0  0  0  0  0  0  0  0  0  0  0
    4.9578   -6.1026    8.2676 N   0  0  0  0  0  0  0  0  0  0  0  0
    2.5697   -5.9284   10.5091 C   0  0  0  0  0  0  0  0  0  0  0  0
    2.5289   -6.4138   11.5485 N   0  0  0  0  0  0  0  0  0  0  0  0
    3.0315   -3.5605    5.1453 C   0  0  0  0  0  0  0  0  0  0  0  0
    4.1889   -3.7998    4.3736 C   0  0  0  0  0  0  0  0  0  0  0  0
    5.3543   -4.6370    4.7861 C   0  0  0  0  0  0  0  0  0  0  0  0
    5.0867   -6.1179    4.5019 C   0  0  0  0  0  0  0  0  0  0  0  0
    4.0949   -3.2058    3.1265 C   0  0  0  0  0  0  0  0  0  0  0  0
    5.1807   -3.1796    1.7485 S   0  0  0  0  0  0  0  0  0  0  0  0
    4.0190   -2.2280    0.8923 C   0  0  0  0  0  0  0  0  0  0  0  0
    3.8291   -1.6947   -0.3875 C   0  0  0  0  0  0  0  0  0  0  0  0
    4.5688   -1.8436   -1.5838 C   0  0  0  0  0  0  0  0  0  0  0  0
    3.9999   -1.3738   -2.8150 C   0  0  0  0  0  0  0  0  0  0  0  0
    4.7596   -1.6563   -3.8610 N   0  0  0  0  0  0  0  0  0  0  0  0
    6.0798   -2.4360   -3.3442 S   0  0  0  0  0  0  0  0  0  0  0  0
    5.7310   -2.4497   -1.7631 N   0  0  0  0  0  0  0  0  0  0  0  0
    2.7855   -0.6511   -2.7777 C   0  0  0  0  0  0  0  0  0  0  0  0
    2.0462   -0.0112   -3.7825 C   0  0  0  0  0  0  0  0  0  0  0  0
    2.0563    0.1798   -5.5019 S   0  0  0  0  0  0  0  0  0  0  0  0
    0.6304    1.1947   -5.3672 C   0  0  0  0  0  0  0  0  0  0  0  0
   -0.1436    1.8548   -6.3113 C   0  0  0  0  0  0  0  0  0  0  0  0
    0.1129    1.7565   -7.7793 C   0  0  0  0  0  0  0  0  0  0  0  0
   -0.7376    0.6471   -8.4050 C   0  0  0  0  0  0  0  0  0  0  0  0
   -1.2077    2.5494   -5.7055 C   0  0  0  0  0  0  0  0  0  0  0  0
   -1.2077    2.3719   -3.9488 S   0  0  0  0  0  0  0  0  0  0  0  0
    0.1887    1.3697   -4.0441 C   0  0  0  0  0  0  0  0  0  0  0  0
    0.9984    0.6690   -3.1479 C   0  0  0  0  0  0  0  0  0  0  0  0
    1.0475    0.4574   -1.7947 N   0  0  0  0  0  0  0  0  0  0  0  0
    2.1205   -0.3783   -1.5461 C   0  0  0  0  0  0  0  0  0  0  0  0
    2.5675   -1.0287   -0.3695 C   0  0  0  0  0  0  0  0  0  0  0  0
    1.9938   -1.2043    0.8718 N   0  0  0  0  0  0  0  0  0  0  0  0
    2.8680   -1.9290    1.6385 C   0  0  0  0  0  0  0  0  0  0  0  0
    2.8960   -2.4957    2.9130 C   0  0  0  0  0  0  0  0  0  0  0  0
    1.8533   -2.5683    4.2805 S   0  0  0  0  0  0  0  0  0  0  0  0
    0.6152   -1.0517    1.2858 C   0  0  0  0  0  0  0  0  0  0  0  0
    0.4471    0.0160    2.3670 C   0  0  0  0  0  0  0  0  0  0  0  0
    0.4318    1.4353   -0.9221 C   0  0  0  0  0  0  0  0  0  0  0  0
    1.1289    2.7902   -1.0417 C   0  0  0  0  0  0  0  0  0  0  0  0
   -2.1528    3.2739   -6.4372 C   0  0  0  0  0  0  0  0  0  0  0  0
   -3.2585    3.9828   -6.0302 C   0  0  0  0  0  0  0  0  0  0  0  0
   -3.7028    4.1682   -4.6474 C   0  0  0  0  0  0  0  0  0  0  0  0
   -3.1720    3.7479   -3.6317 O   0  0  0  0  0  0  0  0  0  0  0  0
   -4.9297    4.9776   -4.7126 C   0  0  0  0  0  0  0  0  0  0  0  0
   -5.7214    5.4137   -3.6905 C   0  0  0  0  0  0  0  0  0  0  0  0
   -6.8700    6.1797   -3.9897 C   0  0  0  0  0  0  0  0  0  0  0  0
   -7.7238    6.6571   -2.9748 C   0  0  0  0  0  0  0  0  0  0  0  0
   -8.8349    7.3940   -3.2782 C   0  0  0  0  0  0  0  0  0  0  0  0
   -9.1180    7.6708   -4.6224 C   0  0  0  0  0  0  0  0  0  0  0  0
  -10.2167    8.3953   -4.9018 F   0  0  0  0  0  0  0  0  0  0  0  0
   -8.3224    7.2333   -5.6448 C   0  0  0  0  0  0  0  0  0  0  0  0
   -7.1731    6.4746   -5.3505 C   0  0  0  0  0  0  0  0  0  0  0  0
   -6.3295    6.0109   -6.3878 C   0  0  0  0  0  0  0  0  0  0  0  0
   -5.2197    5.2731   -6.0744 C   0  0  0  0  0  0  0  0  0  0  0  0
   -4.1821    4.6707   -6.9099 C   0  0  0  0  0  0  0  0  0  0  0  0
   -4.1229    4.7628   -8.2782 C   0  0  0  0  0  0  0  0  0  0  0  0
   -5.0665    5.4563   -9.0645 C   0  0  0  0  0  0  0  0  0  0  0  0
   -5.7968    5.9989   -9.7650 N   0  0  0  0  0  0  0  0  0  0  0  0
   -3.1305    4.1961   -9.1035 C   0  0  0  0  0  0  0  0  0  0  0  0
   -2.3627    3.7681   -9.8442 N   0  0  0  0  0  0  0  0  0  0  0  0
    3.6976   -4.6590    6.7725 H   0  0  0  0  0  0  0  0  0  0  0  0
    0.4232   -5.1394   11.1891 H   0  0  0  0  0  0  0  0  0  0  0  0
    6.2247   -4.3167    4.2101 H   0  0  0  0  0  0  0  0  0  0  0  0
    5.5780   -4.5064    5.8456 H   0  0  0  0  0  0  0  0  0  0  0  0
    4.2214   -6.4677    5.0600 H   0  0  0  0  0  0  0  0  0  0  0  0
    5.9481   -6.7093    4.7981 H   0  0  0  0  0  0  0  0  0  0  0  0
    4.9035   -6.2724    3.4413 H   0  0  0  0  0  0  0  0  0  0  0  0
   -0.0988    2.7014   -8.2814 H   0  0  0  0  0  0  0  0  0  0  0  0
    1.1688    1.5201   -7.9257 H   0  0  0  0  0  0  0  0  0  0  0  0
   -0.5100   -0.3107   -7.9427 H   0  0  0  0  0  0  0  0  0  0  0  0
   -1.7973    0.8534   -8.2742 H   0  0  0  0  0  0  0  0  0  0  0  0
   -0.5296    0.5807   -9.4688 H   0  0  0  0  0  0  0  0  0  0  0  0
    0.0061   -0.8429    0.4054 H   0  0  0  0  0  0  0  0  0  0  0  0
    0.2848   -2.0122    1.6963 H   0  0  0  0  0  0  0  0  0  0  0  0
   -0.6092    0.2190    2.5181 H   0  0  0  0  0  0  0  0  0  0  0  0
    0.9511    0.9428    2.1009 H   0  0  0  0  0  0  0  0  0  0  0  0
    0.8616   -0.3333    3.3081 H   0  0  0  0  0  0  0  0  0  0  0  0
    0.4903    1.1033    0.1070 H   0  0  0  0  0  0  0  0  0  0  0  0
   -0.6176    1.5338   -1.2150 H   0  0  0  0  0  0  0  0  0  0  0  0
    0.6634    3.4982   -0.3620 H   0  0  0  0  0  0  0  0  0  0  0  0
    2.1827    2.6981   -0.7860 H   0  0  0  0  0  0  0  0  0  0  0  0
    1.0474    3.1807   -2.0522 H   0  0  0  0  0  0  0  0  0  0  0  0
   -1.9734    3.2531   -7.5033 H   0  0  0  0  0  0  0  0  0  0  0  0
   -5.4755    5.1762   -2.6663 H   0  0  0  0  0  0  0  0  0  0  0  0
   -7.4849    6.4301   -1.9466 H   0  0  0  0  0  0  0  0  0  0  0  0
   -9.4983    7.7669   -2.5141 H   0  0  0  0  0  0  0  0  0  0  0  0
   -8.5711    7.4661   -6.6685 H   0  0  0  0  0  0  0  0  0  0  0  0
   -6.5883    6.2540   -7.4055 H   0  0  0  0  0  0  0  0  0  0  0  0
  1  2  2  0  0  0  0
  2  3  1  0  0  0  0
  3  4  2  0  0  0  0
  3  5  1  0  0  0  0
  5  6  2  0  0  0  0
  6  7  1  0  0  0  0
  7  8  2  0  0  0  0
  8  9  1  0  0  0  0
  8 10  1  0  0  0  0
 10 11  1  0  0  0  0
 10 12  2  0  0  0  0
 12 13  1  0  0  0  0
  6 14  1  0  0  0  0
 14 15  2  0  0  0  0
 15 16  1  0  0  0  0
 16 17  3  0  0  0  0
 15 18  1  0  0  0  0
 18 19  3  0  0  0  0
  1 20  1  0  0  0  0
 20 21  2  0  0  0  0
 21 22  1  0  0  0  0
 22 23  1  0  0  0  0
 21 24  1  0  0  0  0
 24 25  1  0  0  0  0
 25 26  1  0  0  0  0
 26 27  1  0  0  0  0
 27 28  1  0  0  0  0
 28 29  1  0  0  0  0
 29 30  2  0  0  0  0
 30 31  1  0  0  0  0
 31 32  1  0  0  0  0
 29 33  1  0  0  0  0
 33 34  1  0  0  0  0
 34 35  1  0  0  0  0
 35 36  1  0  0  0  0
 36 37  1  0  0  0  0
 37 38  1  0  0  0  0
 38 39  1  0  0  0  0
 37 40  2  0  0  0  0
 40 41  1  0  0  0  0
 41 42  1  0  0  0  0
 42 43  1  0  0  0  0
 43 44  1  0  0  0  0
 44 45  1  0  0  0  0
 45 46  1  0  0  0  0
 46 47  1  0  0  0  0
 47 48  1  0  0  0  0
 48 49  1  0  0  0  0
 49 50  1  0  0  0  0
 47 51  1  0  0  0  0
 51 52  1  0  0  0  0
 44 53  1  0  0  0  0
 53 54  1  0  0  0  0
 40 55  1  0  0  0  0
 55 56  2  0  0  0  0
 56 57  1  0  0  0  0
 57 58  2  0  0  0  0
 57 59  1  0  0  0  0
 59 60  2  0  0  0  0
 60 61  1  0  0  0  0
 61 62  2  0  0  0  0
 62 63  1  0  0  0  0
 63 64  2  0  0  0  0
 64 65  1  0  0  0  0
 64 66  1  0  0  0  0
 66 67  2  0  0  0  0
 67 68  1  0  0  0  0
 68 69  2  0  0  0  0
 69 70  1  0  0  0  0
 70 71  2  0  0  0  0
 71 72  1  0  0  0  0
 72 73  3  0  0  0  0
 71 74  1  0  0  0  0
 74 75  3  0  0  0  0
 14  2  1  0  0  0  0
 50 20  1  0  0  0  0
 70 56  1  0  0  0  0
 12  5  1  0  0  0  0
 49 24  2  0  0  0  0
 69 59  1  0  0  0  0
 48 26  2  0  0  0  0
 67 61  1  0  0  0  0
 46 27  2  0  0  0  0
 32 28  2  0  0  0  0
 45 33  2  0  0  0  0
 43 34  2  0  0  0  0
 42 36  2  0  0  0  0
  1 76  1  0  0  0  0
  7 77  1  0  0  0  0
 22 78  1  0  0  0  0
 22 79  1  0  0  0  0
 23 80  1  0  0  0  0
 23 81  1  0  0  0  0
 23 82  1  0  0  0  0
 38 83  1  0  0  0  0
 38 84  1  0  0  0  0
 39 85  1  0  0  0  0
 39 86  1  0  0  0  0
 39 87  1  0  0  0  0
 51 88  1  0  0  0  0
 51 89  1  0  0  0  0
 52 90  1  0  0  0  0
 52 91  1  0  0  0  0
 52 92  1  0  0  0  0
 53 93  1  0  0  0  0
 53 94  1  0  0  0  0
 54 95  1  0  0  0  0
 54 96  1  0  0  0  0
 54 97  1  0  0  0  0
 55 98  1  0  0  0  0
 60 99  1  0  0  0  0
 62100  1  0  0  0  0
 63101  1  0  0  0  0
 66102  1  0  0  0  0
 68103  1  0  0  0  0
M  END
