
  xtb     02022200433D
 energy: -191.220002311056 gnorm: 0.000621000901 xtb: 6.4.1 (unknown)
 97108  0     0  0            999 V2000
    0.8019    7.0200   -3.1312 C   0  0  0  0  0  0  0  0  0  0  0  0
    0.5490    7.8319   -2.0450 C   0  0  0  0  0  0  0  0  0  0  0  0
    0.1613    7.3811   -0.7104 C   0  0  0  0  0  0  0  0  0  0  0  0
   -0.0298    6.2413   -0.3324 O   0  0  0  0  0  0  0  0  0  0  0  0
    0.0391    8.6109    0.1085 C   0  0  0  0  0  0  0  0  0  0  0  0
    0.3254    9.7330   -0.6890 C   0  0  0  0  0  0  0  0  0  0  0  0
    0.2836   11.0066   -0.1488 C   0  0  0  0  0  0  0  0  0  0  0  0
   -0.0465   11.1370    1.1932 C   0  0  0  0  0  0  0  0  0  0  0  0
   -0.0897   12.3567    1.7347 F   0  0  0  0  0  0  0  0  0  0  0  0
   -0.3337   10.0355    1.9954 C   0  0  0  0  0  0  0  0  0  0  0  0
   -0.6466   10.2031    3.2832 F   0  0  0  0  0  0  0  0  0  0  0  0
   -0.2909    8.7530    1.4437 C   0  0  0  0  0  0  0  0  0  0  0  0
   -0.5652    7.7020    2.2114 F   0  0  0  0  0  0  0  0  0  0  0  0
    0.6397    9.2731   -2.0449 C   0  0  0  0  0  0  0  0  0  0  0  0
    0.9575   10.0970   -3.0964 C   0  0  0  0  0  0  0  0  0  0  0  0
    1.0245   11.5035   -3.0112 C   0  0  0  0  0  0  0  0  0  0  0  0
    1.0975   12.6490   -3.0134 N   0  0  0  0  0  0  0  0  0  0  0  0
    1.2621    9.6795   -4.4087 C   0  0  0  0  0  0  0  0  0  0  0  0
    1.5201    9.4261   -5.4995 N   0  0  0  0  0  0  0  0  0  0  0  0
    0.7814    5.6342   -3.2679 C   0  0  0  0  0  0  0  0  0  0  0  0
    1.1211    4.9837   -4.4736 C   0  0  0  0  0  0  0  0  0  0  0  0
    1.5734    5.6534   -5.7291 C   0  0  0  0  0  0  0  0  0  0  0  0
    3.0715    5.9660   -5.6673 C   0  0  0  0  0  0  0  0  0  0  0  0
    1.0514    3.6076   -4.3394 C   0  0  0  0  0  0  0  0  0  0  0  0
    1.3785    2.2943   -5.4556 S   0  0  0  0  0  0  0  0  0  0  0  0
    0.9876    1.1715   -4.2013 C   0  0  0  0  0  0  0  0  0  0  0  0
    0.9196   -0.2152   -4.0065 C   0  0  0  0  0  0  0  0  0  0  0  0
    1.0380   -1.3198   -4.8827 C   0  0  0  0  0  0  0  0  0  0  0  0
    0.7672   -2.6422   -4.3846 C   0  0  0  0  0  0  0  0  0  0  0  0
    0.8425   -3.5611   -5.3334 N   0  0  0  0  0  0  0  0  0  0  0  0
    1.2281   -2.8360   -6.7275 S   0  0  0  0  0  0  0  0  0  0  0  0
    1.3118   -1.3164   -6.1770 N   0  0  0  0  0  0  0  0  0  0  0  0
    0.5398   -2.8243   -3.0000 C   0  0  0  0  0  0  0  0  0  0  0  0
    0.4068   -3.9658   -2.1957 C   0  0  0  0  0  0  0  0  0  0  0  0
    0.3002   -5.6830   -2.3703 S   0  0  0  0  0  0  0  0  0  0  0  0
    0.2209   -5.8255   -0.6235 C   0  0  0  0  0  0  0  0  0  0  0  0
    0.1196   -6.9203    0.2221 C   0  0  0  0  0  0  0  0  0  0  0  0
    0.0203   -8.3241   -0.2782 C   0  0  0  0  0  0  0  0  0  0  0  0
   -1.4421   -8.7662   -0.3825 C   0  0  0  0  0  0  0  0  0  0  0  0
    0.0721   -6.5207    1.5717 C   0  0  0  0  0  0  0  0  0  0  0  0
    0.1756   -4.7675    1.7540 S   0  0  0  0  0  0  0  0  0  0  0  0
    0.2753   -4.5890    0.0446 C   0  0  0  0  0  0  0  0  0  0  0  0
    0.3817   -3.5315   -0.8610 C   0  0  0  0  0  0  0  0  0  0  0  0
    0.4762   -2.1636   -0.8097 N   0  0  0  0  0  0  0  0  0  0  0  0
    0.5382   -1.7127   -2.1122 C   0  0  0  0  0  0  0  0  0  0  0  0
    0.5596   -0.4052   -2.6431 C   0  0  0  0  0  0  0  0  0  0  0  0
    0.3398    0.8200   -2.0489 N   0  0  0  0  0  0  0  0  0  0  0  0
    0.6189    1.7805   -2.9900 C   0  0  0  0  0  0  0  0  0  0  0  0
    0.6504    3.1729   -3.0602 C   0  0  0  0  0  0  0  0  0  0  0  0
    0.3614    4.4886   -1.9887 S   0  0  0  0  0  0  0  0  0  0  0  0
   -0.5652    1.1055   -0.9518 C   0  0  0  0  0  0  0  0  0  0  0  0
   -1.9117    1.6148   -1.4640 C   0  0  0  0  0  0  0  0  0  0  0  0
    1.0171   -1.5107    0.3670 C   0  0  0  0  0  0  0  0  0  0  0  0
    2.4129   -2.0370    0.6983 C   0  0  0  0  0  0  0  0  0  0  0  0
   -0.0521   -7.4314    2.6239 C   0  0  0  0  0  0  0  0  0  0  0  0
   -0.1548   -7.2376    3.9814 C   0  0  0  0  0  0  0  0  0  0  0  0
   -0.1534   -5.9432    4.6685 C   0  0  0  0  0  0  0  0  0  0  0  0
   -0.0238   -4.8408    4.1696 O   0  0  0  0  0  0  0  0  0  0  0  0
   -0.3360   -6.2479    6.1017 C   0  0  0  0  0  0  0  0  0  0  0  0
   -0.4247   -5.4063    7.1950 C   0  0  0  0  0  0  0  0  0  0  0  0
   -0.3424   -4.0796    7.0516 F   0  0  0  0  0  0  0  0  0  0  0  0
   -0.6042   -5.9370    8.4667 C   0  0  0  0  0  0  0  0  0  0  0  0
   -0.6925   -7.3084    8.6272 C   0  0  0  0  0  0  0  0  0  0  0  0
   -0.6045   -8.1744    7.5433 C   0  0  0  0  0  0  0  0  0  0  0  0
   -0.4252   -7.6415    6.2779 C   0  0  0  0  0  0  0  0  0  0  0  0
   -0.3014   -8.2856    4.9676 C   0  0  0  0  0  0  0  0  0  0  0  0
   -0.3160   -9.6407    4.7533 C   0  0  0  0  0  0  0  0  0  0  0  0
   -0.4566  -10.6072    5.7714 C   0  0  0  0  0  0  0  0  0  0  0  0
   -0.5685  -11.4498    6.5433 N   0  0  0  0  0  0  0  0  0  0  0  0
   -0.1872  -10.2803    3.5027 C   0  0  0  0  0  0  0  0  0  0  0  0
   -0.0892  -10.8790    2.5267 N   0  0  0  0  0  0  0  0  0  0  0  0
    1.0783    7.5342   -4.0411 H   0  0  0  0  0  0  0  0  0  0  0  0
    0.4955   11.8961   -0.7183 H   0  0  0  0  0  0  0  0  0  0  0  0
    1.0179    6.5752   -5.9070 H   0  0  0  0  0  0  0  0  0  0  0  0
    1.3867    4.9747   -6.5636 H   0  0  0  0  0  0  0  0  0  0  0  0
    3.6433    5.0511   -5.5313 H   0  0  0  0  0  0  0  0  0  0  0  0
    3.2917    6.6397   -4.8427 H   0  0  0  0  0  0  0  0  0  0  0  0
    3.3854    6.4408   -6.5922 H   0  0  0  0  0  0  0  0  0  0  0  0
    0.4748   -8.3645   -1.2701 H   0  0  0  0  0  0  0  0  0  0  0  0
    0.5608   -9.0124    0.3731 H   0  0  0  0  0  0  0  0  0  0  0  0
   -1.9262   -8.7316    0.5906 H   0  0  0  0  0  0  0  0  0  0  0  0
   -1.9859   -8.1172   -1.0648 H   0  0  0  0  0  0  0  0  0  0  0  0
   -1.4912   -9.7853   -0.7548 H   0  0  0  0  0  0  0  0  0  0  0  0
   -0.1076    1.8603   -0.3050 H   0  0  0  0  0  0  0  0  0  0  0  0
   -0.7391    0.1915   -0.3873 H   0  0  0  0  0  0  0  0  0  0  0  0
   -2.3553    0.8908   -2.1445 H   0  0  0  0  0  0  0  0  0  0  0  0
   -1.8015    2.5630   -1.9817 H   0  0  0  0  0  0  0  0  0  0  0  0
   -2.5828    1.7607   -0.6226 H   0  0  0  0  0  0  0  0  0  0  0  0
    0.3441   -1.6945    1.2099 H   0  0  0  0  0  0  0  0  0  0  0  0
    1.0917   -0.4415    0.1809 H   0  0  0  0  0  0  0  0  0  0  0  0
    2.8082   -1.4918    1.5505 H   0  0  0  0  0  0  0  0  0  0  0  0
    2.3840   -3.0926    0.9514 H   0  0  0  0  0  0  0  0  0  0  0  0
    3.0808   -1.8958   -0.1490 H   0  0  0  0  0  0  0  0  0  0  0  0
   -0.0838   -8.4605    2.2940 H   0  0  0  0  0  0  0  0  0  0  0  0
   -0.6725   -5.2689    9.3106 H   0  0  0  0  0  0  0  0  0  0  0  0
   -0.8331   -7.7162    9.6162 H   0  0  0  0  0  0  0  0  0  0  0  0
   -0.6784   -9.2369    7.7023 H   0  0  0  0  0  0  0  0  0  0  0  0
  1  2  2  0  0  0  0
  2  3  1  0  0  0  0
  3  4  2  0  0  0  0
  3  5  1  0  0  0  0
  5  6  2  0  0  0  0
  6  7  1  0  0  0  0
  7  8  2  0  0  0  0
  8  9  1  0  0  0  0
  8 10  1  0  0  0  0
 10 11  1  0  0  0  0
 10 12  2  0  0  0  0
 12 13  1  0  0  0  0
  6 14  1  0  0  0  0
 14 15  2  0  0  0  0
 15 16  1  0  0  0  0
 16 17  3  0  0  0  0
 15 18  1  0  0  0  0
 18 19  3  0  0  0  0
  1 20  1  0  0  0  0
 20 21  2  0  0  0  0
 21 22  1  0  0  0  0
 22 23  1  0  0  0  0
 21 24  1  0  0  0  0
 24 25  1  0  0  0  0
 25 26  1  0  0  0  0
 26 27  1  0  0  0  0
 27 28  1  0  0  0  0
 28 29  1  0  0  0  0
 29 30  2  0  0  0  0
 30 31  1  0  0  0  0
 31 32  1  0  0  0  0
 29 33  1  0  0  0  0
 33 34  1  0  0  0  0
 34 35  1  0  0  0  0
 35 36  1  0  0  0  0
 36 37  1  0  0  0  0
 37 38  1  0  0  0  0
 38 39  1  0  0  0  0
 37 40  2  0  0  0  0
 40 41  1  0  0  0  0
 41 42  1  0  0  0  0
 42 43  1  0  0  0  0
 43 44  1  0  0  0  0
 44 45  1  0  0  0  0
 45 46  1  0  0  0  0
 46 47  1  0  0  0  0
 47 48  1  0  0  0  0
 48 49  1  0  0  0  0
 49 50  1  0  0  0  0
 47 51  1  0  0  0  0
 51 52  1  0  0  0  0
 44 53  1  0  0  0  0
 53 54  1  0  0  0  0
 40 55  1  0  0  0  0
 55 56  2  0  0  0  0
 56 57  1  0  0  0  0
 57 58  2  0  0  0  0
 57 59  1  0  0  0  0
 59 60  2  0  0  0  0
 60 61  1  0  0  0  0
 60 62  1  0  0  0  0
 62 63  2  0  0  0  0
 63 64  1  0  0  0  0
 64 65  2  0  0  0  0
 65 66  1  0  0  0  0
 66 67  2  0  0  0  0
 67 68  1  0  0  0  0
 68 69  3  0  0  0  0
 67 70  1  0  0  0  0
 70 71  3  0  0  0  0
 14  2  1  0  0  0  0
 50 20  1  0  0  0  0
 66 56  1  0  0  0  0
 12  5  1  0  0  0  0
 49 24  2  0  0  0  0
 65 59  1  0  0  0  0
 48 26  2  0  0  0  0
 46 27  2  0  0  0  0
 32 28  2  0  0  0  0
 45 33  2  0  0  0  0
 43 34  2  0  0  0  0
 42 36  2  0  0  0  0
  1 72  1  0  0  0  0
  7 73  1  0  0  0  0
 22 74  1  0  0  0  0
 22 75  1  0  0  0  0
 23 76  1  0  0  0  0
 23 77  1  0  0  0  0
 23 78  1  0  0  0  0
 38 79  1  0  0  0  0
 38 80  1  0  0  0  0
 39 81  1  0  0  0  0
 39 82  1  0  0  0  0
 39 83  1  0  0  0  0
 51 84  1  0  0  0  0
 51 85  1  0  0  0  0
 52 86  1  0  0  0  0
 52 87  1  0  0  0  0
 52 88  1  0  0  0  0
 53 89  1  0  0  0  0
 53 90  1  0  0  0  0
 54 91  1  0  0  0  0
 54 92  1  0  0  0  0
 54 93  1  0  0  0  0
 55 94  1  0  0  0  0
 62 95  1  0  0  0  0
 63 96  1  0  0  0  0
 64 97  1  0  0  0  0
M  END
