138

C         -8.56520        1.57820        1.68420
C         -9.09290        1.95140        2.89100
C        -10.17470        2.96340        2.92050
O        -10.83590        3.35210        1.98870
C        -10.21530        3.42730        4.33320
C         -9.32770        2.65740        5.10800
C         -9.15400        2.91410        6.45590
C         -9.88100        3.95410        7.01810
F         -9.72100        4.23370        8.31420
C        -10.77180        4.72080        6.27060
F        -11.45710        5.71050        6.85060
C        -10.94220        4.45330        4.90980
F        -11.79230        5.19150        4.20260
C         -8.73420        1.63120        4.24820
C         -8.20230        0.44480        4.68550
C         -7.96740       -0.64560        3.82160
N         -7.83180       -1.56950        3.15430
C         -7.94530        0.14680        6.03760
N         -7.70290       -0.13140        7.12450
C         -7.30280        1.04930        1.37390
S         -5.94720        1.06270        2.50940
C         -4.90520        0.44170        1.29440
C         -3.58260        0.07830        1.07940
S         -2.07820       -0.01850        1.93500
C         -1.33330       -0.58380        0.47730
C          0.01620       -0.87200        0.10970
C          1.18670       -0.83870        0.86230
C          2.36950       -1.03790        0.19060
C          3.78190       -1.02100        0.74780
C          4.13250       -2.27340        1.53800
C          5.32310       -2.30350        2.25420
C          5.70400       -3.44450        2.93250
C          4.90890       -4.58400        2.91310
C          5.34870       -5.83800        3.61140
C          6.20350       -6.69650        2.67680
C          3.72480       -4.54920        2.18990
C          3.33920       -3.41040        1.50500
C          3.99360        0.23650        1.56450
C          3.65720        0.25030        2.91250
C          3.81000        1.40140        3.66040
C          4.29990        2.56720        3.08480
C          4.42580        3.82460        3.89480
C          3.10190        4.59180        3.89810
C          4.62150        2.55110        1.73470
C          4.46740        1.40210        0.98040
C          4.58490       -1.08760       -0.52350
C          3.75000       -1.25180       -1.61690
C          2.37960       -1.22220       -1.21180
C          1.20480       -1.29780       -1.95590
C          0.01820       -1.14880       -1.27740
C         -1.40640       -1.17180       -1.82610
C         -1.75110       -2.60250       -2.21080
C         -2.70750       -3.33490       -1.52020
C         -2.99340       -4.64060       -1.87790
C         -2.32940       -5.25790       -2.92790
C         -2.67210       -6.65900       -3.34170
C         -3.79380       -6.64990       -4.38250
C         -1.37010       -4.52520       -3.61560
C         -1.08320       -3.22100       -3.26300
C         -1.56610       -0.17690       -2.96290
C         -1.12350        1.12620       -2.75970
C         -1.26720        2.08240       -3.74580
C         -1.85370        1.76600       -4.96540
C         -2.05910        2.81520       -6.01840
C         -3.43770        3.46120       -5.86330
C         -2.29590        0.46560       -5.16310
C         -2.15940       -0.49480       -4.17610
C         -2.17960       -0.70460       -0.61370
C         -3.48470       -0.33140       -0.28020
N         -4.71310       -0.24640       -0.87330
C         -5.58690        0.24090        0.06460
C         -6.92500        0.59710        0.11260
C         -5.03710       -0.48630       -2.25660
C         -5.10630        0.81820       -3.04640
S          4.58130       -1.38110       -3.12830
C          6.09050       -1.20380       -2.28760
C          5.92610       -1.06840       -0.89640
S          7.43120       -0.86630       -0.05130
C          8.28720       -0.94990       -1.56650
C          9.63010       -0.85950       -1.90530
C          9.82370       -0.97330       -3.27270
S          8.30470       -1.20280       -4.14460
C          7.43060       -1.13610       -2.66720
C         11.03110       -0.92100       -4.02040
C         12.30720       -0.73920       -3.52800
C         12.63820       -0.57560       -2.17160
N         12.95130       -0.43800       -1.07540
C         13.41290       -0.70270       -4.40490
N         14.32420       -0.66820       -5.09960
C         10.91030       -1.06640       -5.42840
N         10.80110       -1.18230       -6.56240
H         -9.18050        1.83460        0.82640
H         -8.47570        2.35170        7.07630
H          1.15700       -0.64200        1.92260
H          5.95030       -1.42410        2.28620
H          6.63180       -3.44950        3.48580
H          4.47560       -6.41140        3.92870
H          5.93180       -5.58270        4.49820
H          5.63470       -6.97460        1.79220
H          7.08510       -6.14530        2.35710
H          6.52550       -7.60380        3.18220
H          3.09200       -5.42470        2.15980
H          2.41450       -3.41110        0.94640
H          3.28720       -0.65010        3.38160
H          3.54970        1.39340        4.70910
H          4.69910        3.57630        4.92230
H          5.20920        4.45910        3.47630
H          3.19100        5.50110        4.48770
H          2.30980        3.97880        4.32220
H          2.81840        4.86170        2.88310
H          5.00040        3.44790        1.26570
H          4.72000        1.41600       -0.07030
H          1.25050       -1.43240       -3.02490
H         -3.23920       -2.89500       -0.68980
H         -3.74320       -5.18740       -1.32460
H         -1.79160       -7.14510       -3.76630
H         -2.99440       -7.23350       -2.47120
H         -3.48880       -6.08970       -5.26380
H         -4.03910       -7.66500       -4.68480
H         -4.68730       -6.18430       -3.97250
H         -0.83730       -4.98230       -4.43710
H         -0.33880       -2.67700       -3.82290
H         -0.66110        1.39050       -1.81900
H         -0.91620        3.08870       -3.56750
H         -1.28930        3.58400       -5.93120
H         -1.98290        2.36510       -7.01000
H         -3.53280        3.92110       -4.88200
H         -3.58530        4.22680       -6.62080
H         -4.22120        2.71390       -5.96770
H         -2.75520        0.19630       -6.10330
H         -2.51790       -1.49610       -4.36450
H         -7.62260        0.52700       -0.70200
H         -6.00120       -1.00240       -2.29690
H         -4.27110       -1.14130       -2.67440
H         -4.14990        1.33350       -3.00890
H         -5.87190        1.47230       -2.63600
H         -5.34520        0.60760       -4.08460
H         10.42260       -0.71510       -1.19520
