113

C         -7.23280       -6.11550       -0.05770
C         -6.89600       -6.85540        1.05830
C         -5.75700       -6.60860        1.93870
O         -4.90760       -5.74370        1.84070
C         -5.83500       -7.64460        2.99630
C         -6.94760       -8.47070        2.75910
C         -7.23990       -9.51640        3.61730
C         -6.40570       -9.71980        4.70810
F         -6.67180      -10.72240        5.54920
C         -5.29930       -8.91140        4.95520
F         -4.52030       -9.13960        6.01660
C         -5.00990       -7.85780        4.08500
F         -3.95290       -7.08540        4.32300
C         -7.62460       -8.00230        1.54600
C         -8.74510       -8.58230        1.00320
C         -9.39270       -9.71410        1.54090
N         -9.96780      -10.63090        1.92380
C         -9.41750       -8.15080       -0.15870
N        -10.02480       -7.86630       -1.09180
C         -6.63890       -4.99390       -0.62900
C         -7.15920       -4.35020       -1.77300
C         -8.40690       -4.73660       -2.49640
C         -9.64030       -4.14430       -1.80830
C         -6.39530       -3.25070       -2.12510
S         -6.54870       -2.06610       -3.41130
C         -5.12290       -1.28950       -2.82180
C         -4.35100       -0.15220       -3.09050
C         -4.58290        0.89510       -4.02080
C         -3.72770        2.02350       -3.97630
N         -3.93500        3.07840       -4.77170
C         -4.95540        3.00550       -5.59890
C         -5.78620        1.88070       -5.65880
N         -5.60820        0.83710       -4.87750
C         -2.61390        1.98250       -3.09640
C         -1.56240        2.89900       -2.95040
S         -1.08120        4.44240       -3.55980
C          0.39210        4.31800       -2.61530
C          1.48080        5.16800       -2.46350
C          1.59780        6.46860       -3.18880
C          2.41600        6.30330       -4.47250
C          2.44660        4.61440       -1.60680
S          1.96750        3.03090       -0.99510
C          0.48760        3.12880       -1.87320
C         -0.64360        2.32890       -2.06220
N         -1.10460        1.11640       -1.61840
C         -2.32130        0.88460       -2.23610
C         -3.28440       -0.14840       -2.14210
N         -3.44770       -1.22190       -1.29440
C         -4.55370       -1.91820       -1.70530
C         -5.27990       -3.03370       -1.28990
S         -5.17740       -4.20140       -0.02970
C         -2.85490       -1.51580       -0.00910
C         -1.90940       -2.71360       -0.07210
C         -0.14170        0.18180       -1.07590
C          0.53680       -0.60730       -2.19370
C          3.63780        5.27370       -1.27890
C          4.70080        4.88040       -0.50680
C          4.86030        3.58220        0.15430
O          4.06230        2.65930        0.18130
C          6.18800        3.59940        0.78860
C          6.78880        2.56590        1.50420
C          8.04190        2.87020        1.97880
C          8.65240        4.11230        1.75990
C          8.07210        5.13850        1.05220
C          6.79620        4.85010        0.55800
C          5.88450        5.67330       -0.23560
C          6.12280        6.96680       -0.62600
C          7.29230        7.69320       -0.31760
N          8.20990        8.35140       -0.10980
C          5.24820        7.77660       -1.37960
N          4.59660        8.50310       -1.98710
C          9.89540        3.72580        2.52240
C         10.03350        4.29110        3.95200
C         11.05630        3.38600        4.60040
C         10.48100        2.20780        4.80450
C          9.05940        2.29680        4.29810
C          8.75610        3.76590        4.62000
C          9.21580        2.33950        2.76330
H         -8.11510       -6.44860       -0.58650
H         -8.08070      -10.17540        3.47980
H         -8.34570       -4.34510       -3.51360
H         -8.50960       -5.82110       -2.55250
H         -9.57460       -3.05920       -1.78360
H         -9.72680       -4.51130       -0.78830
H        -10.53590       -4.42870       -2.35280
H         -5.11700        3.86380       -6.23610
H         -6.61500        1.82440       -6.35080
H          0.59220        6.80500       -3.44860
H          2.06070        7.23010       -2.55950
H          2.48210        7.25480       -4.99210
H          3.42390        5.96320       -4.24580
H          1.94420        5.57730       -5.13050
H         -2.36500       -0.61670        0.36730
H         -3.67170       -1.75710        0.67960
H         -2.47230       -3.61640       -0.29290
H         -1.42150       -2.84700        0.88910
H         -1.15190       -2.58570       -0.84080
H         -0.60660       -0.49640       -0.36860
H          0.60520        0.77320       -0.54020
H         -0.19660       -1.17700       -2.76140
H          1.26730       -1.29140       -1.77120
H          1.04960        0.06820       -2.87400
H          3.71640        6.25440       -1.72730
H          6.28320        1.62370        1.64690
H          8.56030        6.08400        0.88640
H         10.82640        3.76000        1.95990
H         10.22320        5.35970        4.00280
H         12.07560        3.66900        4.78650
H         10.92340        1.31010        5.19490
H          8.36160        1.54850        4.66450
H          7.83610        4.13770        4.17250
H          8.74330        3.95810        5.69150
H          9.69310        1.44880        2.35870
