
  xtb     02012221413D
 energy: -220.818700758126 gnorm: 0.000626509126 xtb: 6.4.1 (unknown)
117130  0     0  0            999 V2000
   -1.3587    2.4328   -7.3814 C   0  0  0  0  0  0  0  0  0  0  0  0
   -0.6102    1.6521   -8.2401 C   0  0  0  0  0  0  0  0  0  0  0  0
    0.5742    0.8792   -7.8746 C   0  0  0  0  0  0  0  0  0  0  0  0
    1.0756    0.7526   -6.7736 O   0  0  0  0  0  0  0  0  0  0  0  0
    1.0627    0.2712   -9.1352 C   0  0  0  0  0  0  0  0  0  0  0  0
    0.2135    0.6437  -10.1919 C   0  0  0  0  0  0  0  0  0  0  0  0
    0.4596    0.1995  -11.4793 C   0  0  0  0  0  0  0  0  0  0  0  0
    1.5615   -0.6183  -11.6892 C   0  0  0  0  0  0  0  0  0  0  0  0
    1.8172   -1.0568  -12.9244 F   0  0  0  0  0  0  0  0  0  0  0  0
    2.4106   -0.9972  -10.6527 C   0  0  0  0  0  0  0  0  0  0  0  0
    3.4603   -1.7872  -10.8955 F   0  0  0  0  0  0  0  0  0  0  0  0
    2.1567   -0.5450   -9.3557 C   0  0  0  0  0  0  0  0  0  0  0  0
    2.9685   -0.9084   -8.3664 F   0  0  0  0  0  0  0  0  0  0  0  0
   -0.8506    1.4969   -9.6545 C   0  0  0  0  0  0  0  0  0  0  0  0
   -1.8883    2.0097  -10.3926 C   0  0  0  0  0  0  0  0  0  0  0  0
   -2.0545    1.8047  -11.7783 C   0  0  0  0  0  0  0  0  0  0  0  0
   -2.2474    1.6842  -12.9035 N   0  0  0  0  0  0  0  0  0  0  0  0
   -2.9447    2.8006   -9.8966 C   0  0  0  0  0  0  0  0  0  0  0  0
   -3.8465    3.4436   -9.5900 N   0  0  0  0  0  0  0  0  0  0  0  0
   -1.2703    2.6044   -6.0023 C   0  0  0  0  0  0  0  0  0  0  0  0
   -2.1547    3.4454   -5.2864 C   0  0  0  0  0  0  0  0  0  0  0  0
   -3.0963    4.3834   -5.8900 C   0  0  0  0  0  0  0  0  0  0  0  0
   -4.4036    4.4505   -5.4129 C   0  0  0  0  0  0  0  0  0  0  0  0
   -5.2868    5.3652   -5.9525 C   0  0  0  0  0  0  0  0  0  0  0  0
   -4.8748    6.2278   -6.9518 C   0  0  0  0  0  0  0  0  0  0  0  0
   -3.5716    6.1841   -7.4358 C   0  0  0  0  0  0  0  0  0  0  0  0
   -3.1358    7.1226   -8.5238 C   0  0  0  0  0  0  0  0  0  0  0  0
   -3.8276    6.7922   -9.8469 C   0  0  0  0  0  0  0  0  0  0  0  0
   -2.6937    5.2548   -6.9017 C   0  0  0  0  0  0  0  0  0  0  0  0
   -2.0065    3.2850   -3.9140 C   0  0  0  0  0  0  0  0  0  0  0  0
   -2.8138    4.0109   -2.5368 S   0  0  0  0  0  0  0  0  0  0  0  0
   -1.8101    3.0700   -1.4896 C   0  0  0  0  0  0  0  0  0  0  0  0
   -1.6241    2.8487   -0.1167 C   0  0  0  0  0  0  0  0  0  0  0  0
   -2.1556    3.4612    1.0422 C   0  0  0  0  0  0  0  0  0  0  0  0
   -1.6643    3.0623    2.3348 C   0  0  0  0  0  0  0  0  0  0  0  0
   -2.2015    3.7687    3.3161 N   0  0  0  0  0  0  0  0  0  0  0  0
   -3.2381    4.8347    2.6791 S   0  0  0  0  0  0  0  0  0  0  0  0
   -3.0428    4.4396    1.1222 N   0  0  0  0  0  0  0  0  0  0  0  0
   -0.7745    1.9664    2.4257 C   0  0  0  0  0  0  0  0  0  0  0  0
   -0.2719    1.2332    3.5132 C   0  0  0  0  0  0  0  0  0  0  0  0
   -0.3104    1.2640    5.2418 S   0  0  0  0  0  0  0  0  0  0  0  0
    0.5886   -0.2359    5.2666 C   0  0  0  0  0  0  0  0  0  0  0  0
    1.0511   -1.0461    6.3120 C   0  0  0  0  0  0  0  0  0  0  0  0
    0.8832   -0.7348    7.7278 C   0  0  0  0  0  0  0  0  0  0  0  0
   -0.3599   -0.3255    8.2010 C   0  0  0  0  0  0  0  0  0  0  0  0
   -0.5561   -0.1543    9.5599 C   0  0  0  0  0  0  0  0  0  0  0  0
    0.4702   -0.4036   10.4500 C   0  0  0  0  0  0  0  0  0  0  0  0
    1.7286   -0.7854    9.9910 C   0  0  0  0  0  0  0  0  0  0  0  0
    2.8498   -1.0232   10.9614 C   0  0  0  0  0  0  0  0  0  0  0  0
    3.4905    0.2993   11.3858 C   0  0  0  0  0  0  0  0  0  0  0  0
    1.9294   -0.9227    8.6286 C   0  0  0  0  0  0  0  0  0  0  0  0
    1.7236   -2.1684    5.8216 C   0  0  0  0  0  0  0  0  0  0  0  0
    1.8387   -2.1553    4.0602 S   0  0  0  0  0  0  0  0  0  0  0  0
    0.9143   -0.7054    3.9853 C   0  0  0  0  0  0  0  0  0  0  0  0
    0.4159    0.1315    2.9842 C   0  0  0  0  0  0  0  0  0  0  0  0
    0.3823    0.1657    1.6124 N   0  0  0  0  0  0  0  0  0  0  0  0
   -0.3241    1.2990    1.2552 C   0  0  0  0  0  0  0  0  0  0  0  0
   -0.6201    1.8466   -0.0111 C   0  0  0  0  0  0  0  0  0  0  0  0
   -0.1519    1.5268   -1.2691 N   0  0  0  0  0  0  0  0  0  0  0  0
   -0.8920    2.2536   -2.1699 C   0  0  0  0  0  0  0  0  0  0  0  0
   -0.9969    2.3717   -3.5558 C   0  0  0  0  0  0  0  0  0  0  0  0
   -0.2081    1.6911   -4.9278 S   0  0  0  0  0  0  0  0  0  0  0  0
    1.1875    1.0817   -1.6047 C   0  0  0  0  0  0  0  0  0  0  0  0
    2.0595    2.2495   -2.0638 C   0  0  0  0  0  0  0  0  0  0  0  0
    0.4841   -1.0676    0.8563 C   0  0  0  0  0  0  0  0  0  0  0  0
   -0.6256   -2.0450    1.2426 C   0  0  0  0  0  0  0  0  0  0  0  0
    2.3429   -3.2491    6.4817 C   0  0  0  0  0  0  0  0  0  0  0  0
    2.0320   -3.7608    7.7142 C   0  0  0  0  0  0  0  0  0  0  0  0
    0.7451   -3.5595    8.4185 C   0  0  0  0  0  0  0  0  0  0  0  0
   -0.2676   -3.0702    7.9662 O   0  0  0  0  0  0  0  0  0  0  0  0
    0.9050   -4.2240    9.7268 C   0  0  0  0  0  0  0  0  0  0  0  0
    0.0488   -4.2513   10.8138 C   0  0  0  0  0  0  0  0  0  0  0  0
   -1.4356   -3.3918   10.7820 Cl  0  0  0  0  0  0  0  0  0  0  0  0
    0.4243   -4.9688   11.9471 C   0  0  0  0  0  0  0  0  0  0  0  0
    1.6300   -5.6473   11.9695 C   0  0  0  0  0  0  0  0  0  0  0  0
    2.5021   -5.6220   10.8873 C   0  0  0  0  0  0  0  0  0  0  0  0
    2.1386   -4.8995    9.7635 C   0  0  0  0  0  0  0  0  0  0  0  0
    2.8496   -4.6480    8.5082 C   0  0  0  0  0  0  0  0  0  0  0  0
    4.1063   -5.1082    8.2054 C   0  0  0  0  0  0  0  0  0  0  0  0
    4.8273   -4.7982    7.0336 C   0  0  0  0  0  0  0  0  0  0  0  0
    5.4851   -4.5763    6.1184 N   0  0  0  0  0  0  0  0  0  0  0  0
    4.8668   -5.9569    9.0362 C   0  0  0  0  0  0  0  0  0  0  0  0
    5.5417   -6.6474    9.6579 N   0  0  0  0  0  0  0  0  0  0  0  0
   -2.1660    2.9987   -7.8299 H   0  0  0  0  0  0  0  0  0  0  0  0
   -0.1605    0.4582  -12.3213 H   0  0  0  0  0  0  0  0  0  0  0  0
   -4.7263    3.7722   -4.6378 H   0  0  0  0  0  0  0  0  0  0  0  0
   -6.3016    5.4082   -5.5864 H   0  0  0  0  0  0  0  0  0  0  0  0
   -5.5677    6.9503   -7.3562 H   0  0  0  0  0  0  0  0  0  0  0  0
   -3.3802    8.1489   -8.2373 H   0  0  0  0  0  0  0  0  0  0  0  0
   -2.0537    7.0574   -8.6535 H   0  0  0  0  0  0  0  0  0  0  0  0
   -3.4505    7.4322  -10.6411 H   0  0  0  0  0  0  0  0  0  0  0  0
   -4.9013    6.9379   -9.7654 H   0  0  0  0  0  0  0  0  0  0  0  0
   -3.6497    5.7537  -10.1156 H   0  0  0  0  0  0  0  0  0  0  0  0
   -1.6680    5.2319   -7.2440 H   0  0  0  0  0  0  0  0  0  0  0  0
   -1.1786   -0.1903    7.5124 H   0  0  0  0  0  0  0  0  0  0  0  0
   -1.5258    0.1494    9.9251 H   0  0  0  0  0  0  0  0  0  0  0  0
    0.3002   -0.3089   11.5128 H   0  0  0  0  0  0  0  0  0  0  0  0
    3.6082   -1.6621   10.5031 H   0  0  0  0  0  0  0  0  0  0  0  0
    2.4630   -1.5379   11.8444 H   0  0  0  0  0  0  0  0  0  0  0  0
    3.8934    0.8186   10.5192 H   0  0  0  0  0  0  0  0  0  0  0  0
    4.2988    0.1202   12.0906 H   0  0  0  0  0  0  0  0  0  0  0  0
    2.7529    0.9437   11.8584 H   0  0  0  0  0  0  0  0  0  0  0  0
    2.9077   -1.1970    8.2580 H   0  0  0  0  0  0  0  0  0  0  0  0
    1.6455    0.6409   -0.7208 H   0  0  0  0  0  0  0  0  0  0  0  0
    1.1227    0.3354   -2.4025 H   0  0  0  0  0  0  0  0  0  0  0  0
    3.0703    1.8942   -2.2420 H   0  0  0  0  0  0  0  0  0  0  0  0
    2.0893    3.0222   -1.2983 H   0  0  0  0  0  0  0  0  0  0  0  0
    1.6820    2.6813   -2.9859 H   0  0  0  0  0  0  0  0  0  0  0  0
    1.4624   -1.5150    1.0571 H   0  0  0  0  0  0  0  0  0  0  0  0
    0.3938   -0.8505   -0.2053 H   0  0  0  0  0  0  0  0  0  0  0  0
   -0.5430   -2.9430    0.6371 H   0  0  0  0  0  0  0  0  0  0  0  0
   -0.5539   -2.3279    2.2889 H   0  0  0  0  0  0  0  0  0  0  0  0
   -1.6005   -1.5942    1.0688 H   0  0  0  0  0  0  0  0  0  0  0  0
    3.1449   -3.7169    5.9224 H   0  0  0  0  0  0  0  0  0  0  0  0
   -0.2331   -4.9904   12.8016 H   0  0  0  0  0  0  0  0  0  0  0  0
    1.9032   -6.2067   12.8511 H   0  0  0  0  0  0  0  0  0  0  0  0
    3.4353   -6.1576   10.9381 H   0  0  0  0  0  0  0  0  0  0  0  0
  1  2  2  0  0  0  0
  2  3  1  0  0  0  0
  3  4  2  0  0  0  0
  3  5  1  0  0  0  0
  5  6  2  0  0  0  0
  6  7  1  0  0  0  0
  7  8  2  0  0  0  0
  8  9  1  0  0  0  0
  8 10  1  0  0  0  0
 10 11  1  0  0  0  0
 10 12  2  0  0  0  0
 12 13  1  0  0  0  0
  6 14  1  0  0  0  0
 14 15  2  0  0  0  0
 15 16  1  0  0  0  0
 16 17  3  0  0  0  0
 15 18  1  0  0  0  0
 18 19  3  0  0  0  0
  1 20  1  0  0  0  0
 20 21  2  0  0  0  0
 21 22  1  0  0  0  0
 22 23  2  0  0  0  0
 23 24  1  0  0  0  0
 24 25  2  0  0  0  0
 25 26  1  0  0  0  0
 26 27  1  0  0  0  0
 27 28  1  0  0  0  0
 26 29  2  0  0  0  0
 21 30  1  0  0  0  0
 30 31  1  0  0  0  0
 31 32  1  0  0  0  0
 32 33  1  0  0  0  0
 33 34  1  0  0  0  0
 34 35  1  0  0  0  0
 35 36  2  0  0  0  0
 36 37  1  0  0  0  0
 37 38  1  0  0  0  0
 35 39  1  0  0  0  0
 39 40  1  0  0  0  0
 40 41  1  0  0  0  0
 41 42  1  0  0  0  0
 42 43  1  0  0  0  0
 43 44  1  0  0  0  0
 44 45  2  0  0  0  0
 45 46  1  0  0  0  0
 46 47  2  0  0  0  0
 47 48  1  0  0  0  0
 48 49  1  0  0  0  0
 49 50  1  0  0  0  0
 48 51  2  0  0  0  0
 43 52  2  0  0  0  0
 52 53  1  0  0  0  0
 53 54  1  0  0  0  0
 54 55  1  0  0  0  0
 55 56  1  0  0  0  0
 56 57  1  0  0  0  0
 57 58  1  0  0  0  0
 58 59  1  0  0  0  0
 59 60  1  0  0  0  0
 60 61  1  0  0  0  0
 61 62  1  0  0  0  0
 59 63  1  0  0  0  0
 63 64  1  0  0  0  0
 56 65  1  0  0  0  0
 65 66  1  0  0  0  0
 52 67  1  0  0  0  0
 67 68  2  0  0  0  0
 68 69  1  0  0  0  0
 69 70  2  0  0  0  0
 69 71  1  0  0  0  0
 71 72  2  0  0  0  0
 72 73  1  0  0  0  0
 72 74  1  0  0  0  0
 74 75  2  0  0  0  0
 75 76  1  0  0  0  0
 76 77  2  0  0  0  0
 77 78  1  0  0  0  0
 78 79  2  0  0  0  0
 79 80  1  0  0  0  0
 80 81  3  0  0  0  0
 79 82  1  0  0  0  0
 82 83  3  0  0  0  0
 14  2  1  0  0  0  0
 62 20  1  0  0  0  0
 78 68  1  0  0  0  0
 12  5  1  0  0  0  0
 29 22  1  0  0  0  0
 61 30  2  0  0  0  0
 77 71  1  0  0  0  0
 60 32  2  0  0  0  0
 58 33  2  0  0  0  0
 38 34  2  0  0  0  0
 57 39  2  0  0  0  0
 55 40  2  0  0  0  0
 54 42  2  0  0  0  0
 51 44  1  0  0  0  0
  1 84  1  0  0  0  0
  7 85  1  0  0  0  0
 23 86  1  0  0  0  0
 24 87  1  0  0  0  0
 25 88  1  0  0  0  0
 27 89  1  0  0  0  0
 27 90  1  0  0  0  0
 28 91  1  0  0  0  0
 28 92  1  0  0  0  0
 28 93  1  0  0  0  0
 29 94  1  0  0  0  0
 45 95  1  0  0  0  0
 46 96  1  0  0  0  0
 47 97  1  0  0  0  0
 49 98  1  0  0  0  0
 49 99  1  0  0  0  0
 50100  1  0  0  0  0
 50101  1  0  0  0  0
 50102  1  0  0  0  0
 51103  1  0  0  0  0
 63104  1  0  0  0  0
 63105  1  0  0  0  0
 64106  1  0  0  0  0
 64107  1  0  0  0  0
 64108  1  0  0  0  0
 65109  1  0  0  0  0
 65110  1  0  0  0  0
 66111  1  0  0  0  0
 66112  1  0  0  0  0
 66113  1  0  0  0  0
 67114  1  0  0  0  0
 74115  1  0  0  0  0
 75116  1  0  0  0  0
 76117  1  0  0  0  0
M  END
