94

C         -3.92320        3.92970       -2.89240
C         -5.23370        3.59370       -3.14530
C         -5.81100        2.25580       -2.99560
O         -5.23750        1.22510       -2.70690
C         -7.25840        2.41180       -3.27340
C         -7.53130        3.75230       -3.59870
C         -8.82370        4.15430       -3.88880
C         -9.83020        3.19940       -3.84830
F        -11.08390        3.56710       -4.12120
C         -9.57520        1.86750       -3.52970
F        -10.57180        0.97920       -3.50020
C         -8.26880        1.46800       -3.23840
F         -8.02700        0.19740       -2.93140
C         -6.27690        4.50870       -3.55200
C         -6.15260        5.83880       -3.86160
C         -4.94970        6.57630       -3.85510
N         -4.01790        7.24760       -3.88150
C         -7.22660        6.66850       -4.24880
N         -8.05320        7.39830       -4.56770
C         -2.85220        3.14710       -2.45090
S         -2.85050        1.42550       -2.14030
C         -1.20690        1.49990       -1.64780
C         -0.44830        0.41440       -1.11770
C          0.74950        0.76400       -0.44770
O          1.19360        2.03380       -0.36880
C          0.77640        2.99430       -1.35640
C          1.63790        2.75440       -2.61850
C          1.40310        3.75470       -3.74090
C          1.00040        4.36920       -0.70790
C          2.44540        4.61640       -0.29100
C         -0.67290        2.78750       -1.70800
C         -1.59700        3.70460       -2.16690
C          1.45830       -0.22010        0.21790
C          1.02410       -1.54420        0.19970
C          1.73310       -2.61250        0.82570
C          1.20160       -3.89930        0.86980
C         -0.18770       -4.15450        0.35770
O         -0.57530       -3.17370       -0.62110
C         -0.15070       -1.90050       -0.50630
C         -0.87240       -0.91270       -1.15240
C         -0.30730       -5.50670       -0.35880
C          0.66350       -5.62610       -1.52780
C         -1.20060       -4.02200        1.52300
C         -0.98680       -4.97830        2.68700
C          2.05990       -4.78940        1.48770
C          3.25080       -4.20470        1.93610
S          3.28650       -2.49890        1.55370
C          4.23650       -4.94840        2.59620
C          5.43780       -4.55720        3.13630
C          5.95790       -3.18730        3.16330
O          5.45660       -2.18640        2.68580
C          7.23540       -3.25260        3.90320
C          8.09890       -2.22140        4.21470
C          9.24370       -2.53660        4.92880
F         10.10900       -1.56930        5.25470
C          9.50180       -3.85300        5.31210
F         10.61350       -4.12870        6.00210
C          8.63350       -4.88840        4.99770
C          7.48560       -4.58160        4.28390
C          6.38610       -5.42360        3.80810
C          6.30790       -6.78170        3.97400
C          7.28510       -7.55540        4.63690
N          8.04020       -8.24200        5.16150
C          5.26370       -7.61160        3.51350
N          4.45800       -8.35650        3.17350
H         -3.65950        4.97220       -3.02180
H         -9.08370        5.16910       -4.13990
H          2.68520        2.76910       -2.31500
H          1.41440        1.74580       -2.97870
H          1.99360        3.47140       -4.60860
H          0.35590        3.77220       -4.03390
H          1.69890        4.75690       -3.44400
H          0.67720        5.14510       -1.40010
H          0.36080        4.41570        0.17620
H          3.09360        4.71980       -1.15690
H          2.50530        5.53410        0.28860
H          2.80440        3.79470        0.32160
H         -1.41080        4.75540       -2.29740
H          2.35630        0.04030        0.75560
H         -1.77650       -1.17240       -1.67990
H         -0.12810       -6.30820        0.35600
H         -1.33000       -5.59430       -0.72760
H          0.49250       -4.82250       -2.23950
H          0.51800       -6.57560       -2.03590
H          1.69460       -5.57290       -1.18510
H         -2.19740       -4.16740        1.10230
H         -1.14180       -2.99210        1.88770
H         -1.09660       -6.01280        2.37400
H         -1.72860       -4.77880        3.45620
H         -0.00030       -4.84690        3.12540
H          1.86200       -5.83710        1.62720
H          3.98030       -5.99650        2.69150
H          7.89430       -1.20560        3.91650
H          8.88010       -5.88680        5.31910
