
  xtb     02022210223D
 energy: -192.430642153476 gnorm: 0.000832687757 xtb: 6.4.1 (unknown)
107120  0     0  0            999 V2000
    1.9993   -5.1855   -6.5361 C   0  0  0  0  0  0  0  0  0  0  0  0
    1.9225   -6.4887   -6.1065 C   0  0  0  0  0  0  0  0  0  0  0  0
    1.3385   -6.9383   -4.8341 C   0  0  0  0  0  0  0  0  0  0  0  0
    0.9499   -6.2533   -3.9093 O   0  0  0  0  0  0  0  0  0  0  0  0
    1.2099   -8.4096   -4.9548 C   0  0  0  0  0  0  0  0  0  0  0  0
    1.6779   -8.8223   -6.2157 C   0  0  0  0  0  0  0  0  0  0  0  0
    1.6301  -10.1601   -6.5721 C   0  0  0  0  0  0  0  0  0  0  0  0
    1.1198  -11.0717   -5.6593 C   0  0  0  0  0  0  0  0  0  0  0  0
    0.6672  -10.6630   -4.4144 C   0  0  0  0  0  0  0  0  0  0  0  0
   -0.0068  -11.9556   -3.2108 Br  0  0  0  0  0  0  0  0  0  0  0  0
    0.7007   -9.3152   -4.0391 C   0  0  0  0  0  0  0  0  0  0  0  0
    0.1396   -8.8103   -2.5019 Cl  0  0  0  0  0  0  0  0  0  0  0  0
    2.1640   -7.6481   -6.9359 C   0  0  0  0  0  0  0  0  0  0  0  0
    2.8271   -7.6650   -8.1362 C   0  0  0  0  0  0  0  0  0  0  0  0
    3.4246   -6.5354   -8.7350 C   0  0  0  0  0  0  0  0  0  0  0  0
    3.9698   -5.6688   -9.2552 N   0  0  0  0  0  0  0  0  0  0  0  0
    3.0421   -8.8265   -8.9057 C   0  0  0  0  0  0  0  0  0  0  0  0
    3.2432   -9.7343   -9.5790 N   0  0  0  0  0  0  0  0  0  0  0  0
    1.9153   -3.9812   -5.8135 C   0  0  0  0  0  0  0  0  0  0  0  0
    1.1433   -2.6666   -6.7246 S   0  0  0  0  0  0  0  0  0  0  0  0
    1.2607   -1.6551   -5.3596 C   0  0  0  0  0  0  0  0  0  0  0  0
    0.8531   -0.3756   -4.9550 C   0  0  0  0  0  0  0  0  0  0  0  0
    0.2191    0.6912   -5.6312 C   0  0  0  0  0  0  0  0  0  0  0  0
   -0.0186    1.9189   -4.9223 C   0  0  0  0  0  0  0  0  0  0  0  0
   -0.5676    2.8453   -5.6914 N   0  0  0  0  0  0  0  0  0  0  0  0
   -0.7726    2.2306   -7.1737 S   0  0  0  0  0  0  0  0  0  0  0  0
   -0.1702    0.7551   -6.8941 N   0  0  0  0  0  0  0  0  0  0  0  0
    0.2581    1.9770   -3.5364 C   0  0  0  0  0  0  0  0  0  0  0  0
   -0.0767    2.9157   -2.5522 C   0  0  0  0  0  0  0  0  0  0  0  0
   -0.8380    4.4631   -2.4421 S   0  0  0  0  0  0  0  0  0  0  0  0
   -0.7482    4.3438   -0.6959 C   0  0  0  0  0  0  0  0  0  0  0  0
   -1.1900    5.1873    0.3154 C   0  0  0  0  0  0  0  0  0  0  0  0
   -1.8282    6.5097    0.0416 C   0  0  0  0  0  0  0  0  0  0  0  0
   -0.7932    7.6368    0.0932 C   0  0  0  0  0  0  0  0  0  0  0  0
   -0.9158    4.6503    1.5838 C   0  0  0  0  0  0  0  0  0  0  0  0
   -0.1086    3.0862    1.4840 S   0  0  0  0  0  0  0  0  0  0  0  0
   -0.1398    3.1625   -0.2388 C   0  0  0  0  0  0  0  0  0  0  0  0
    0.2550    2.3530   -1.3098 C   0  0  0  0  0  0  0  0  0  0  0  0
    0.8220    1.1194   -1.4969 N   0  0  0  0  0  0  0  0  0  0  0  0
    0.8446    0.8729   -2.8552 C   0  0  0  0  0  0  0  0  0  0  0  0
    1.2712   -0.2451   -3.6072 C   0  0  0  0  0  0  0  0  0  0  0  0
    1.9935   -1.3665   -3.2308 N   0  0  0  0  0  0  0  0  0  0  0  0
    1.9522   -2.2581   -4.2936 C   0  0  0  0  0  0  0  0  0  0  0  0
    2.3363   -3.5863   -4.5375 C   0  0  0  0  0  0  0  0  0  0  0  0
    3.1517   -4.4297   -3.6116 C   0  0  0  0  0  0  0  0  0  0  0  0
    4.4069   -5.0102   -4.2644 C   0  0  0  0  0  0  0  0  0  0  0  0
    3.1275   -1.2677   -2.3322 C   0  0  0  0  0  0  0  0  0  0  0  0
    4.4416   -1.1473   -3.1032 C   0  0  0  0  0  0  0  0  0  0  0  0
    0.9265    0.1703   -0.4070 C   0  0  0  0  0  0  0  0  0  0  0  0
    2.0584    0.5028    0.5632 C   0  0  0  0  0  0  0  0  0  0  0  0
   -1.2651    5.2996    2.7745 C   0  0  0  0  0  0  0  0  0  0  0  0
   -1.0921    4.9331    4.0845 C   0  0  0  0  0  0  0  0  0  0  0  0
   -0.4589    3.7020    4.5659 C   0  0  0  0  0  0  0  0  0  0  0  0
    0.0340    2.8098    3.8945 O   0  0  0  0  0  0  0  0  0  0  0  0
   -0.5308    3.7442    6.0350 C   0  0  0  0  0  0  0  0  0  0  0  0
   -0.0696    2.7781    6.9258 C   0  0  0  0  0  0  0  0  0  0  0  0
   -0.2862    3.0869    8.2472 C   0  0  0  0  0  0  0  0  0  0  0  0
   -0.9089    4.2748    8.6527 C   0  0  0  0  0  0  0  0  0  0  0  0
   -1.3646    5.2380    7.7841 C   0  0  0  0  0  0  0  0  0  0  0  0
   -1.1627    4.9398    6.4338 C   0  0  0  0  0  0  0  0  0  0  0  0
   -1.5219    5.7004    5.2377 C   0  0  0  0  0  0  0  0  0  0  0  0
   -2.1576    6.9163    5.2352 C   0  0  0  0  0  0  0  0  0  0  0  0
   -2.5158    7.6608    4.0922 C   0  0  0  0  0  0  0  0  0  0  0  0
   -2.8432    8.3310    3.2175 N   0  0  0  0  0  0  0  0  0  0  0  0
   -2.5553    7.6140    6.3951 C   0  0  0  0  0  0  0  0  0  0  0  0
   -2.9095    8.2419    7.2888 N   0  0  0  0  0  0  0  0  0  0  0  0
   -0.8111    3.9212   10.1151 C   0  0  0  0  0  0  0  0  0  0  0  0
   -2.0949    3.4160   10.8189 C   0  0  0  0  0  0  0  0  0  0  0  0
   -2.9534    2.7900    9.7478 C   0  0  0  0  0  0  0  0  0  0  0  0
   -2.3661    1.6642    9.3647 C   0  0  0  0  0  0  0  0  0  0  0  0
   -1.0993    1.5089   10.1695 C   0  0  0  0  0  0  0  0  0  0  0  0
   -1.5401    2.1518   11.4943 C   0  0  0  0  0  0  0  0  0  0  0  0
   -0.1190    2.5965    9.6636 C   0  0  0  0  0  0  0  0  0  0  0  0
    2.0411   -5.0405   -7.6109 H   0  0  0  0  0  0  0  0  0  0  0  0
    1.9714  -10.5043   -7.5340 H   0  0  0  0  0  0  0  0  0  0  0  0
    1.0714  -12.1185   -5.9164 H   0  0  0  0  0  0  0  0  0  0  0  0
   -2.2671    6.4751   -0.9577 H   0  0  0  0  0  0  0  0  0  0  0  0
   -2.6250    6.7178    0.7572 H   0  0  0  0  0  0  0  0  0  0  0  0
   -0.3348    7.6939    1.0777 H   0  0  0  0  0  0  0  0  0  0  0  0
   -0.0130    7.4682   -0.6454 H   0  0  0  0  0  0  0  0  0  0  0  0
   -1.2749    8.5873   -0.1168 H   0  0  0  0  0  0  0  0  0  0  0  0
    3.4464   -3.8376   -2.7480 H   0  0  0  0  0  0  0  0  0  0  0  0
    2.5208   -5.2433   -3.2442 H   0  0  0  0  0  0  0  0  0  0  0  0
    5.0285   -4.2186   -4.6793 H   0  0  0  0  0  0  0  0  0  0  0  0
    4.1573   -5.6963   -5.0679 H   0  0  0  0  0  0  0  0  0  0  0  0
    4.9891   -5.5504   -3.5218 H   0  0  0  0  0  0  0  0  0  0  0  0
    3.1484   -2.1288   -1.6581 H   0  0  0  0  0  0  0  0  0  0  0  0
    3.0027   -0.3642   -1.7416 H   0  0  0  0  0  0  0  0  0  0  0  0
    4.6166   -2.0169   -3.7290 H   0  0  0  0  0  0  0  0  0  0  0  0
    4.4188   -0.2655   -3.7404 H   0  0  0  0  0  0  0  0  0  0  0  0
    5.2678   -1.0497   -2.4038 H   0  0  0  0  0  0  0  0  0  0  0  0
   -0.0183    0.1948    0.1476 H   0  0  0  0  0  0  0  0  0  0  0  0
    1.0415   -0.8292   -0.8277 H   0  0  0  0  0  0  0  0  0  0  0  0
    1.8405    1.4221    1.0986 H   0  0  0  0  0  0  0  0  0  0  0  0
    2.1536   -0.2981    1.2907 H   0  0  0  0  0  0  0  0  0  0  0  0
    3.0107    0.6240    0.0523 H   0  0  0  0  0  0  0  0  0  0  0  0
   -1.7578    6.2478    2.6100 H   0  0  0  0  0  0  0  0  0  0  0  0
    0.4073    1.8783    6.5694 H   0  0  0  0  0  0  0  0  0  0  0  0
   -1.8404    6.1453    8.1157 H   0  0  0  0  0  0  0  0  0  0  0  0
   -0.2410    4.6093   10.7360 H   0  0  0  0  0  0  0  0  0  0  0  0
   -2.5806    4.1521   11.4537 H   0  0  0  0  0  0  0  0  0  0  0  0
   -3.8422    3.2448    9.3512 H   0  0  0  0  0  0  0  0  0  0  0  0
   -2.6660    0.9903    8.5837 H   0  0  0  0  0  0  0  0  0  0  0  0
   -0.6788    0.5077   10.2146 H   0  0  0  0  0  0  0  0  0  0  0  0
   -2.3095    1.5758   12.0062 H   0  0  0  0  0  0  0  0  0  0  0  0
   -0.7145    2.3508   12.1762 H   0  0  0  0  0  0  0  0  0  0  0  0
    0.9036    2.4182    9.9906 H   0  0  0  0  0  0  0  0  0  0  0  0
  1  2  2  0  0  0  0
  2  3  1  0  0  0  0
  3  4  2  0  0  0  0
  3  5  1  0  0  0  0
  5  6  2  0  0  0  0
  6  7  1  0  0  0  0
  7  8  2  0  0  0  0
  8  9  1  0  0  0  0
  9 10  1  0  0  0  0
  9 11  2  0  0  0  0
 11 12  1  0  0  0  0
  6 13  1  0  0  0  0
 13 14  2  0  0  0  0
 14 15  1  0  0  0  0
 15 16  3  0  0  0  0
 14 17  1  0  0  0  0
 17 18  3  0  0  0  0
  1 19  1  0  0  0  0
 19 20  1  0  0  0  0
 20 21  1  0  0  0  0
 21 22  1  0  0  0  0
 22 23  1  0  0  0  0
 23 24  1  0  0  0  0
 24 25  2  0  0  0  0
 25 26  1  0  0  0  0
 26 27  1  0  0  0  0
 24 28  1  0  0  0  0
 28 29  1  0  0  0  0
 29 30  1  0  0  0  0
 30 31  1  0  0  0  0
 31 32  1  0  0  0  0
 32 33  1  0  0  0  0
 33 34  1  0  0  0  0
 32 35  2  0  0  0  0
 35 36  1  0  0  0  0
 36 37  1  0  0  0  0
 37 38  1  0  0  0  0
 38 39  1  0  0  0  0
 39 40  1  0  0  0  0
 40 41  1  0  0  0  0
 41 42  1  0  0  0  0
 42 43  1  0  0  0  0
 43 44  1  0  0  0  0
 44 45  1  0  0  0  0
 45 46  1  0  0  0  0
 42 47  1  0  0  0  0
 47 48  1  0  0  0  0
 39 49  1  0  0  0  0
 49 50  1  0  0  0  0
 35 51  1  0  0  0  0
 51 52  2  0  0  0  0
 52 53  1  0  0  0  0
 53 54  2  0  0  0  0
 53 55  1  0  0  0  0
 55 56  2  0  0  0  0
 56 57  1  0  0  0  0
 57 58  2  0  0  0  0
 58 59  1  0  0  0  0
 59 60  2  0  0  0  0
 60 61  1  0  0  0  0
 61 62  2  0  0  0  0
 62 63  1  0  0  0  0
 63 64  3  0  0  0  0
 62 65  1  0  0  0  0
 65 66  3  0  0  0  0
 58 67  1  0  0  0  0
 67 68  1  0  0  0  0
 68 69  1  0  0  0  0
 69 70  2  0  0  0  0
 70 71  1  0  0  0  0
 71 72  1  0  0  0  0
 71 73  1  0  0  0  0
 13  2  1  0  0  0  0
 44 19  2  0  0  0  0
 61 52  1  0  0  0  0
 73 67  1  0  0  0  0
 11  5  1  0  0  0  0
 43 21  2  0  0  0  0
 60 55  1  0  0  0  0
 72 68  1  0  0  0  0
 41 22  2  0  0  0  0
 73 57  1  0  0  0  0
 27 23  2  0  0  0  0
 40 28  2  0  0  0  0
 38 29  2  0  0  0  0
 37 31  2  0  0  0  0
  1 74  1  0  0  0  0
  7 75  1  0  0  0  0
  8 76  1  0  0  0  0
 33 77  1  0  0  0  0
 33 78  1  0  0  0  0
 34 79  1  0  0  0  0
 34 80  1  0  0  0  0
 34 81  1  0  0  0  0
 45 82  1  0  0  0  0
 45 83  1  0  0  0  0
 46 84  1  0  0  0  0
 46 85  1  0  0  0  0
 46 86  1  0  0  0  0
 47 87  1  0  0  0  0
 47 88  1  0  0  0  0
 48 89  1  0  0  0  0
 48 90  1  0  0  0  0
 48 91  1  0  0  0  0
 49 92  1  0  0  0  0
 49 93  1  0  0  0  0
 50 94  1  0  0  0  0
 50 95  1  0  0  0  0
 50 96  1  0  0  0  0
 51 97  1  0  0  0  0
 56 98  1  0  0  0  0
 59 99  1  0  0  0  0
 67100  1  0  0  0  0
 68101  1  0  0  0  0
 69102  1  0  0  0  0
 70103  1  0  0  0  0
 71104  1  0  0  0  0
 72105  1  0  0  0  0
 72106  1  0  0  0  0
 73107  1  0  0  0  0
M  END
