107

C          1.99930       -5.18550       -6.53610
C          1.92250       -6.48870       -6.10650
C          1.33850       -6.93830       -4.83410
O          0.94990       -6.25330       -3.90930
C          1.20990       -8.40960       -4.95480
C          1.67790       -8.82230       -6.21570
C          1.63010      -10.16010       -6.57210
C          1.11980      -11.07170       -5.65930
C          0.66720      -10.66300       -4.41440
Br        -0.00680      -11.95560       -3.21080
C          0.70070       -9.31520       -4.03910
Cl         0.13960       -8.81030       -2.50190
C          2.16400       -7.64810       -6.93590
C          2.82710       -7.66500       -8.13620
C          3.42460       -6.53540       -8.73500
N          3.96980       -5.66880       -9.25520
C          3.04210       -8.82650       -8.90570
N          3.24320       -9.73430       -9.57900
C          1.91530       -3.98120       -5.81350
S          1.14330       -2.66660       -6.72460
C          1.26070       -1.65510       -5.35960
C          0.85310       -0.37560       -4.95500
C          0.21910        0.69120       -5.63120
C         -0.01860        1.91890       -4.92230
N         -0.56760        2.84530       -5.69140
S         -0.77260        2.23060       -7.17370
N         -0.17020        0.75510       -6.89410
C          0.25810        1.97700       -3.53640
C         -0.07670        2.91570       -2.55220
S         -0.83800        4.46310       -2.44210
C         -0.74820        4.34380       -0.69590
C         -1.19000        5.18730        0.31540
C         -1.82820        6.50970        0.04160
C         -0.79320        7.63680        0.09320
C         -0.91580        4.65030        1.58380
S         -0.10860        3.08620        1.48400
C         -0.13980        3.16250       -0.23880
C          0.25500        2.35300       -1.30980
N          0.82200        1.11940       -1.49690
C          0.84460        0.87290       -2.85520
C          1.27120       -0.24510       -3.60720
N          1.99350       -1.36650       -3.23080
C          1.95220       -2.25810       -4.29360
C          2.33630       -3.58630       -4.53750
C          3.15170       -4.42970       -3.61160
C          4.40690       -5.01020       -4.26440
C          3.12750       -1.26770       -2.33220
C          4.44160       -1.14730       -3.10320
C          0.92650        0.17030       -0.40700
C          2.05840        0.50280        0.56320
C         -1.26510        5.29960        2.77450
C         -1.09210        4.93310        4.08450
C         -0.45890        3.70200        4.56590
O          0.03400        2.80980        3.89450
C         -0.53080        3.74420        6.03500
C         -0.06960        2.77810        6.92580
C         -0.28620        3.08690        8.24720
C         -0.90890        4.27480        8.65270
C         -1.36460        5.23800        7.78410
C         -1.16270        4.93980        6.43380
C         -1.52190        5.70040        5.23770
C         -2.15760        6.91630        5.23520
C         -2.51580        7.66080        4.09220
N         -2.84320        8.33100        3.21750
C         -2.55530        7.61400        6.39510
N         -2.90950        8.24190        7.28880
C         -0.81110        3.92120       10.11510
C         -2.09490        3.41600       10.81890
C         -2.95340        2.79000        9.74780
C         -2.36610        1.66420        9.36470
C         -1.09930        1.50890       10.16950
C         -1.54010        2.15180       11.49430
C         -0.11900        2.59650        9.66360
H          2.04110       -5.04050       -7.61090
H          1.97140      -10.50430       -7.53400
H          1.07140      -12.11850       -5.91640
H         -2.26710        6.47510       -0.95770
H         -2.62500        6.71780        0.75720
H         -0.33480        7.69390        1.07770
H         -0.01300        7.46820       -0.64540
H         -1.27490        8.58730       -0.11680
H          3.44640       -3.83760       -2.74800
H          2.52080       -5.24330       -3.24420
H          5.02850       -4.21860       -4.67930
H          4.15730       -5.69630       -5.06790
H          4.98910       -5.55040       -3.52180
H          3.14840       -2.12880       -1.65810
H          3.00270       -0.36420       -1.74160
H          4.61660       -2.01690       -3.72900
H          4.41880       -0.26550       -3.74040
H          5.26780       -1.04970       -2.40380
H         -0.01830        0.19480        0.14760
H          1.04150       -0.82920       -0.82770
H          1.84050        1.42210        1.09860
H          2.15360       -0.29810        1.29070
H          3.01070        0.62400        0.05230
H         -1.75780        6.24780        2.61000
H          0.40730        1.87830        6.56940
H         -1.84040        6.14530        8.11570
H         -0.24100        4.60930       10.73600
H         -2.58060        4.15210       11.45370
H         -3.84220        3.24480        9.35120
H         -2.66600        0.99030        8.58370
H         -0.67880        0.50770       10.21460
H         -2.30950        1.57580       12.00620
H         -0.71450        2.35080       12.17620
H          0.90360        2.41820        9.99060
