
  xtb     02102219543D
 energy: -227.909007141223 gnorm: 0.000429489108 xtb: 6.4.1 (unknown)
117130  0     0  0            999 V2000
   -4.8638   -2.3998   -4.7696 C   0  0  0  0  0  0  0  0  0  0  0  0
   -6.1110   -2.8353   -5.1392 C   0  0  0  0  0  0  0  0  0  0  0  0
   -7.1431   -3.3389   -4.2148 C   0  0  0  0  0  0  0  0  0  0  0  0
   -7.0104   -3.6018   -3.0392 O   0  0  0  0  0  0  0  0  0  0  0  0
   -8.3238   -3.6235   -5.0605 C   0  0  0  0  0  0  0  0  0  0  0  0
   -7.9801   -3.4550   -6.4141 C   0  0  0  0  0  0  0  0  0  0  0  0
   -8.9244   -3.6870   -7.4016 C   0  0  0  0  0  0  0  0  0  0  0  0
  -10.2024   -4.0694   -7.0209 C   0  0  0  0  0  0  0  0  0  0  0  0
  -10.5398   -4.2184   -5.6843 C   0  0  0  0  0  0  0  0  0  0  0  0
  -12.3055   -4.7119   -5.2296 Br  0  0  0  0  0  0  0  0  0  0  0  0
   -9.5968   -4.0038   -4.6734 C   0  0  0  0  0  0  0  0  0  0  0  0
  -10.0036   -4.1748   -3.0204 Cl  0  0  0  0  0  0  0  0  0  0  0  0
   -6.5941   -2.9907   -6.4920 C   0  0  0  0  0  0  0  0  0  0  0  0
   -5.9304   -2.6736   -7.6508 C   0  0  0  0  0  0  0  0  0  0  0  0
   -4.6353   -2.1204   -7.7211 C   0  0  0  0  0  0  0  0  0  0  0  0
   -3.5983   -1.6467   -7.8617 N   0  0  0  0  0  0  0  0  0  0  0  0
   -6.4663   -2.8426   -8.9440 C   0  0  0  0  0  0  0  0  0  0  0  0
   -6.8388   -2.9613  -10.0234 N   0  0  0  0  0  0  0  0  0  0  0  0
   -4.4474   -1.9311   -3.5117 C   0  0  0  0  0  0  0  0  0  0  0  0
   -5.1446   -1.3533   -2.4468 C   0  0  0  0  0  0  0  0  0  0  0  0
   -6.5859   -1.1005   -2.3594 C   0  0  0  0  0  0  0  0  0  0  0  0
   -7.2518   -1.6822   -1.2794 C   0  0  0  0  0  0  0  0  0  0  0  0
   -8.6177   -1.5477   -1.1343 C   0  0  0  0  0  0  0  0  0  0  0  0
   -9.3324   -0.8177   -2.0668 C   0  0  0  0  0  0  0  0  0  0  0  0
   -8.6688   -0.1987   -3.1109 C   0  0  0  0  0  0  0  0  0  0  0  0
   -7.2946   -0.3201   -3.2793 C   0  0  0  0  0  0  0  0  0  0  0  0
   -6.6054    0.4589   -4.3709 C   0  0  0  0  0  0  0  0  0  0  0  0
   -7.3316    0.4166   -5.7154 C   0  0  0  0  0  0  0  0  0  0  0  0
   -4.2746   -0.9855   -1.4139 C   0  0  0  0  0  0  0  0  0  0  0  0
   -4.5586   -0.2084    0.1273 S   0  0  0  0  0  0  0  0  0  0  0  0
   -2.8528   -0.2201    0.4120 C   0  0  0  0  0  0  0  0  0  0  0  0
   -1.9361    0.2334    1.3686 C   0  0  0  0  0  0  0  0  0  0  0  0
   -2.1386    0.9892    2.5446 C   0  0  0  0  0  0  0  0  0  0  0  0
   -0.9956    1.4625    3.2650 C   0  0  0  0  0  0  0  0  0  0  0  0
   -1.3274    2.2037    4.3105 N   0  0  0  0  0  0  0  0  0  0  0  0
   -2.9416    2.2923    4.3841 S   0  0  0  0  0  0  0  0  0  0  0  0
   -3.2792    1.3917    3.0826 N   0  0  0  0  0  0  0  0  0  0  0  0
    0.2914    1.0742    2.8316 C   0  0  0  0  0  0  0  0  0  0  0  0
    1.5535    1.3321    3.3790 C   0  0  0  0  0  0  0  0  0  0  0  0
    2.2587    2.2378    4.6738 S   0  0  0  0  0  0  0  0  0  0  0  0
    3.8340    1.6464    4.1800 C   0  0  0  0  0  0  0  0  0  0  0  0
    5.1181    1.8847    4.6491 C   0  0  0  0  0  0  0  0  0  0  0  0
    5.4736    2.7898    5.7513 C   0  0  0  0  0  0  0  0  0  0  0  0
    5.1846    2.4767    7.0810 C   0  0  0  0  0  0  0  0  0  0  0  0
    4.5651    1.1627    7.4609 C   0  0  0  0  0  0  0  0  0  0  0  0
    5.6244    0.0580    7.4782 C   0  0  0  0  0  0  0  0  0  0  0  0
    5.5656    3.3756    8.0679 C   0  0  0  0  0  0  0  0  0  0  0  0
    6.2094    4.5584    7.7561 C   0  0  0  0  0  0  0  0  0  0  0  0
    6.4927    4.8626    6.4359 C   0  0  0  0  0  0  0  0  0  0  0  0
    6.1306    3.9775    5.4396 C   0  0  0  0  0  0  0  0  0  0  0  0
    6.0834    1.1856    3.8990 C   0  0  0  0  0  0  0  0  0  0  0  0
    5.3619    0.2407    2.5997 S   0  0  0  0  0  0  0  0  0  0  0  0
    3.7931    0.7817    3.0690 C   0  0  0  0  0  0  0  0  0  0  0  0
    2.4826    0.6165    2.6131 C   0  0  0  0  0  0  0  0  0  0  0  0
    1.8439   -0.0500    1.6022 N   0  0  0  0  0  0  0  0  0  0  0  0
    0.4911    0.2267    1.6995 C   0  0  0  0  0  0  0  0  0  0  0  0
   -0.6338   -0.1152    0.9014 C   0  0  0  0  0  0  0  0  0  0  0  0
   -0.7717   -0.7489   -0.3226 N   0  0  0  0  0  0  0  0  0  0  0  0
   -2.1059   -0.7991   -0.6218 C   0  0  0  0  0  0  0  0  0  0  0  0
   -2.9174   -1.2313   -1.6738 C   0  0  0  0  0  0  0  0  0  0  0  0
   -2.7014   -1.9384   -3.2286 S   0  0  0  0  0  0  0  0  0  0  0  0
    0.1981   -1.0064   -1.3637 C   0  0  0  0  0  0  0  0  0  0  0  0
    0.8408    0.2853   -1.8624 C   0  0  0  0  0  0  0  0  0  0  0  0
    2.5387   -1.1151    0.9116 C   0  0  0  0  0  0  0  0  0  0  0  0
    2.0071   -2.4855    1.3233 C   0  0  0  0  0  0  0  0  0  0  0  0
    7.4374    1.2219    4.2365 C   0  0  0  0  0  0  0  0  0  0  0  0
    8.5232    0.6234    3.6442 C   0  0  0  0  0  0  0  0  0  0  0  0
    8.5060   -0.1636    2.4160 C   0  0  0  0  0  0  0  0  0  0  0  0
    7.5352   -0.5247    1.7761 O   0  0  0  0  0  0  0  0  0  0  0  0
    9.9248   -0.4112    2.0755 C   0  0  0  0  0  0  0  0  0  0  0  0
   10.4481   -1.0189    0.9487 C   0  0  0  0  0  0  0  0  0  0  0  0
    9.4418   -1.7600   -0.2122 Cl  0  0  0  0  0  0  0  0  0  0  0  0
   11.8391   -1.0043    0.7734 C   0  0  0  0  0  0  0  0  0  0  0  0
   12.5354   -1.7697   -0.5875 Cl  0  0  0  0  0  0  0  0  0  0  0  0
   12.6496   -0.3272    1.6828 C   0  0  0  0  0  0  0  0  0  0  0  0
   14.3327   -0.2348    1.3940 Cl  0  0  0  0  0  0  0  0  0  0  0  0
   12.1103    0.2939    2.8222 C   0  0  0  0  0  0  0  0  0  0  0  0
   13.1500    1.2537    3.7913 Cl  0  0  0  0  0  0  0  0  0  0  0  0
   10.7455    0.1860    3.0554 C   0  0  0  0  0  0  0  0  0  0  0  0
    9.8871    0.6738    4.1344 C   0  0  0  0  0  0  0  0  0  0  0  0
   10.2568    0.9191    5.4316 C   0  0  0  0  0  0  0  0  0  0  0  0
   11.5028    0.5957    6.0123 C   0  0  0  0  0  0  0  0  0  0  0  0
   12.4313    0.2760    6.6061 N   0  0  0  0  0  0  0  0  0  0  0  0
    9.3823    1.3688    6.4466 C   0  0  0  0  0  0  0  0  0  0  0  0
    8.7505    1.7395    7.3313 N   0  0  0  0  0  0  0  0  0  0  0  0
   -4.0866   -2.3986   -5.5252 H   0  0  0  0  0  0  0  0  0  0  0  0
   -8.6934   -3.5759   -8.4477 H   0  0  0  0  0  0  0  0  0  0  0  0
  -10.9539   -4.2500   -7.7739 H   0  0  0  0  0  0  0  0  0  0  0  0
   -6.6887   -2.2737   -0.5746 H   0  0  0  0  0  0  0  0  0  0  0  0
   -9.1201   -2.0159   -0.3016 H   0  0  0  0  0  0  0  0  0  0  0  0
  -10.4038   -0.7159   -1.9760 H   0  0  0  0  0  0  0  0  0  0  0  0
   -9.2333    0.4025   -3.8072 H   0  0  0  0  0  0  0  0  0  0  0  0
   -6.5325    1.5019   -4.0448 H   0  0  0  0  0  0  0  0  0  0  0  0
   -5.5869    0.0951   -4.5048 H   0  0  0  0  0  0  0  0  0  0  0  0
   -8.2286    1.0297   -5.7025 H   0  0  0  0  0  0  0  0  0  0  0  0
   -7.6209   -0.6014   -5.9667 H   0  0  0  0  0  0  0  0  0  0  0  0
   -6.6798    0.7936   -6.5004 H   0  0  0  0  0  0  0  0  0  0  0  0
    4.1235    1.2492    8.4549 H   0  0  0  0  0  0  0  0  0  0  0  0
    3.7714    0.8946    6.7619 H   0  0  0  0  0  0  0  0  0  0  0  0
    6.4589    0.3471    8.1124 H   0  0  0  0  0  0  0  0  0  0  0  0
    6.0090   -0.1233    6.4768 H   0  0  0  0  0  0  0  0  0  0  0  0
    5.1986   -0.8682    7.8568 H   0  0  0  0  0  0  0  0  0  0  0  0
    5.3586    3.1361    9.1005 H   0  0  0  0  0  0  0  0  0  0  0  0
    6.4966    5.2398    8.5424 H   0  0  0  0  0  0  0  0  0  0  0  0
    6.9983    5.7819    6.1819 H   0  0  0  0  0  0  0  0  0  0  0  0
    6.3459    4.2034    4.4044 H   0  0  0  0  0  0  0  0  0  0  0  0
    0.9435   -1.7245   -1.0233 H   0  0  0  0  0  0  0  0  0  0  0  0
   -0.3467   -1.4761   -2.1862 H   0  0  0  0  0  0  0  0  0  0  0  0
    1.5769    0.0601   -2.6291 H   0  0  0  0  0  0  0  0  0  0  0  0
    1.3277    0.8231   -1.0522 H   0  0  0  0  0  0  0  0  0  0  0  0
    0.0822    0.9348   -2.2928 H   0  0  0  0  0  0  0  0  0  0  0  0
    3.5897   -1.0368    1.1990 H   0  0  0  0  0  0  0  0  0  0  0  0
    2.4927   -0.9707   -0.1675 H   0  0  0  0  0  0  0  0  0  0  0  0
    2.1602   -2.6376    2.3892 H   0  0  0  0  0  0  0  0  0  0  0  0
    0.9428   -2.5773    1.1182 H   0  0  0  0  0  0  0  0  0  0  0  0
    2.5390   -3.2648    0.7845 H   0  0  0  0  0  0  0  0  0  0  0  0
    7.6380    1.8449    5.1002 H   0  0  0  0  0  0  0  0  0  0  0  0
  1  2  2  0  0  0  0
  2  3  1  0  0  0  0
  3  4  2  0  0  0  0
  3  5  1  0  0  0  0
  5  6  2  0  0  0  0
  6  7  1  0  0  0  0
  7  8  2  0  0  0  0
  8  9  1  0  0  0  0
  9 10  1  0  0  0  0
  9 11  2  0  0  0  0
 11 12  1  0  0  0  0
  6 13  1  0  0  0  0
 13 14  2  0  0  0  0
 14 15  1  0  0  0  0
 15 16  3  0  0  0  0
 14 17  1  0  0  0  0
 17 18  3  0  0  0  0
  1 19  1  0  0  0  0
 19 20  2  0  0  0  0
 20 21  1  0  0  0  0
 21 22  2  0  0  0  0
 22 23  1  0  0  0  0
 23 24  2  0  0  0  0
 24 25  1  0  0  0  0
 25 26  2  0  0  0  0
 26 27  1  0  0  0  0
 27 28  1  0  0  0  0
 20 29  1  0  0  0  0
 29 30  1  0  0  0  0
 30 31  1  0  0  0  0
 31 32  1  0  0  0  0
 32 33  1  0  0  0  0
 33 34  1  0  0  0  0
 34 35  2  0  0  0  0
 35 36  1  0  0  0  0
 36 37  1  0  0  0  0
 34 38  1  0  0  0  0
 38 39  1  0  0  0  0
 39 40  1  0  0  0  0
 40 41  1  0  0  0  0
 41 42  1  0  0  0  0
 42 43  1  0  0  0  0
 43 44  2  0  0  0  0
 44 45  1  0  0  0  0
 45 46  1  0  0  0  0
 44 47  1  0  0  0  0
 47 48  2  0  0  0  0
 48 49  1  0  0  0  0
 49 50  2  0  0  0  0
 42 51  2  0  0  0  0
 51 52  1  0  0  0  0
 52 53  1  0  0  0  0
 53 54  1  0  0  0  0
 54 55  1  0  0  0  0
 55 56  1  0  0  0  0
 56 57  1  0  0  0  0
 57 58  1  0  0  0  0
 58 59  1  0  0  0  0
 59 60  1  0  0  0  0
 60 61  1  0  0  0  0
 58 62  1  0  0  0  0
 62 63  1  0  0  0  0
 55 64  1  0  0  0  0
 64 65  1  0  0  0  0
 51 66  1  0  0  0  0
 66 67  2  0  0  0  0
 67 68  1  0  0  0  0
 68 69  2  0  0  0  0
 68 70  1  0  0  0  0
 70 71  2  0  0  0  0
 71 72  1  0  0  0  0
 71 73  1  0  0  0  0
 73 74  1  0  0  0  0
 73 75  2  0  0  0  0
 75 76  1  0  0  0  0
 75 77  1  0  0  0  0
 77 78  1  0  0  0  0
 77 79  2  0  0  0  0
 79 80  1  0  0  0  0
 80 81  2  0  0  0  0
 81 82  1  0  0  0  0
 82 83  3  0  0  0  0
 81 84  1  0  0  0  0
 84 85  3  0  0  0  0
 13  2  1  0  0  0  0
 61 19  1  0  0  0  0
 80 67  1  0  0  0  0
 11  5  1  0  0  0  0
 26 21  1  0  0  0  0
 60 29  2  0  0  0  0
 79 70  1  0  0  0  0
 59 31  2  0  0  0  0
 57 32  2  0  0  0  0
 37 33  2  0  0  0  0
 56 38  2  0  0  0  0
 54 39  2  0  0  0  0
 53 41  2  0  0  0  0
 50 43  1  0  0  0  0
  1 86  1  0  0  0  0
  7 87  1  0  0  0  0
  8 88  1  0  0  0  0
 22 89  1  0  0  0  0
 23 90  1  0  0  0  0
 24 91  1  0  0  0  0
 25 92  1  0  0  0  0
 27 93  1  0  0  0  0
 27 94  1  0  0  0  0
 28 95  1  0  0  0  0
 28 96  1  0  0  0  0
 28 97  1  0  0  0  0
 45 98  1  0  0  0  0
 45 99  1  0  0  0  0
 46100  1  0  0  0  0
 46101  1  0  0  0  0
 46102  1  0  0  0  0
 47103  1  0  0  0  0
 48104  1  0  0  0  0
 49105  1  0  0  0  0
 50106  1  0  0  0  0
 62107  1  0  0  0  0
 62108  1  0  0  0  0
 63109  1  0  0  0  0
 63110  1  0  0  0  0
 63111  1  0  0  0  0
 64112  1  0  0  0  0
 64113  1  0  0  0  0
 65114  1  0  0  0  0
 65115  1  0  0  0  0
 65116  1  0  0  0  0
 66117  1  0  0  0  0
M  END
