
  xtb     02102220453D
 energy: -209.152923053067 gnorm: 0.000966563361 xtb: 6.4.1 (unknown)
112123  0     0  0            999 V2000
   -7.6536    0.4146    2.9716 C   0  0  0  0  0  0  0  0  0  0  0  0
   -8.6294    1.2271    3.4898 C   0  0  0  0  0  0  0  0  0  0  0  0
   -8.5264    2.6248    3.9622 C   0  0  0  0  0  0  0  0  0  0  0  0
   -7.5893    3.3893    3.8904 O   0  0  0  0  0  0  0  0  0  0  0  0
   -9.8202    2.9161    4.6267 C   0  0  0  0  0  0  0  0  0  0  0  0
  -10.6637    1.7955    4.5387 C   0  0  0  0  0  0  0  0  0  0  0  0
  -11.9289    1.8337    5.1039 C   0  0  0  0  0  0  0  0  0  0  0  0
  -12.3336    2.9931    5.7482 C   0  0  0  0  0  0  0  0  0  0  0  0
  -11.4987    4.0966    5.8311 C   0  0  0  0  0  0  0  0  0  0  0  0
  -12.1102    5.6473    6.7227 Br  0  0  0  0  0  0  0  0  0  0  0  0
  -10.2174    4.0777    5.2693 C   0  0  0  0  0  0  0  0  0  0  0  0
   -9.1860    5.4403    5.3757 Cl  0  0  0  0  0  0  0  0  0  0  0  0
   -9.9608    0.7431    3.8090 C   0  0  0  0  0  0  0  0  0  0  0  0
  -10.5201   -0.4557    3.4421 C   0  0  0  0  0  0  0  0  0  0  0  0
   -9.9060   -1.4654    2.6705 C   0  0  0  0  0  0  0  0  0  0  0  0
   -9.5061   -2.3406    2.0416 N   0  0  0  0  0  0  0  0  0  0  0  0
  -11.8339   -0.8517    3.7701 C   0  0  0  0  0  0  0  0  0  0  0  0
  -12.8881   -1.2436    4.0016 N   0  0  0  0  0  0  0  0  0  0  0  0
   -6.3451    0.6457    2.4622 C   0  0  0  0  0  0  0  0  0  0  0  0
   -5.8199    1.9155    2.1244 C   0  0  0  0  0  0  0  0  0  0  0  0
   -4.5768    2.0600    1.5689 C   0  0  0  0  0  0  0  0  0  0  0  0
   -3.7837    0.9306    1.3310 C   0  0  0  0  0  0  0  0  0  0  0  0
   -2.5057    0.6697    0.8020 C   0  0  0  0  0  0  0  0  0  0  0  0
   -2.2792   -0.7131    0.9053 C   0  0  0  0  0  0  0  0  0  0  0  0
   -3.3699   -1.3399    1.4214 N   0  0  0  0  0  0  0  0  0  0  0  0
   -4.2996   -0.3623    1.6986 C   0  0  0  0  0  0  0  0  0  0  0  0
   -5.5599   -0.4999    2.2286 C   0  0  0  0  0  0  0  0  0  0  0  0
   -3.4687   -2.7407    1.7404 C   0  0  0  0  0  0  0  0  0  0  0  0
   -3.1668   -3.0002    3.2151 C   0  0  0  0  0  0  0  0  0  0  0  0
   -0.9672   -0.9609    0.4809 C   0  0  0  0  0  0  0  0  0  0  0  0
   -0.1304   -2.0947    0.5474 C   0  0  0  0  0  0  0  0  0  0  0  0
    1.2563   -1.9682    0.2597 C   0  0  0  0  0  0  0  0  0  0  0  0
    1.8289   -3.1497    0.5014 N   0  0  0  0  0  0  0  0  0  0  0  0
    0.8382   -3.9139    0.8954 N   0  0  0  0  0  0  0  0  0  0  0  0
    1.0347   -5.2963    1.2218 C   0  0  0  0  0  0  0  0  0  0  0  0
    1.2553   -6.1233   -0.0411 C   0  0  0  0  0  0  0  0  0  0  0  0
   -0.3465   -3.3520    0.9432 N   0  0  0  0  0  0  0  0  0  0  0  0
    1.7591   -0.7489   -0.2375 C   0  0  0  0  0  0  0  0  0  0  0  0
    0.8832    0.3581   -0.4329 C   0  0  0  0  0  0  0  0  0  0  0  0
   -0.4408    0.2990    0.0647 C   0  0  0  0  0  0  0  0  0  0  0  0
   -1.3923    1.2836    0.2749 N   0  0  0  0  0  0  0  0  0  0  0  0
   -1.2175    2.7153    0.3864 C   0  0  0  0  0  0  0  0  0  0  0  0
   -2.0782    3.4909   -0.6115 C   0  0  0  0  0  0  0  0  0  0  0  0
    1.5717    1.3929   -1.0515 N   0  0  0  0  0  0  0  0  0  0  0  0
    0.9920    2.3382   -1.9805 C   0  0  0  0  0  0  0  0  0  0  0  0
    1.2646    1.9460   -3.4329 C   0  0  0  0  0  0  0  0  0  0  0  0
    2.8744    0.9698   -1.2029 C   0  0  0  0  0  0  0  0  0  0  0  0
    3.0171   -0.3356   -0.7050 C   0  0  0  0  0  0  0  0  0  0  0  0
    4.2995   -0.7617   -0.8485 N   0  0  0  0  0  0  0  0  0  0  0  0
    4.7927   -2.0819   -0.5461 C   0  0  0  0  0  0  0  0  0  0  0  0
    4.9315   -2.9326   -1.8070 C   0  0  0  0  0  0  0  0  0  0  0  0
    4.9926    0.2523   -1.4699 C   0  0  0  0  0  0  0  0  0  0  0  0
    4.1249    1.3755   -1.6977 C   0  0  0  0  0  0  0  0  0  0  0  0
    4.6503    2.5380   -2.2770 C   0  0  0  0  0  0  0  0  0  0  0  0
    5.9656    2.5557   -2.6506 C   0  0  0  0  0  0  0  0  0  0  0  0
    6.8073    1.4239   -2.4947 C   0  0  0  0  0  0  0  0  0  0  0  0
    6.3141    0.2793   -1.8558 C   0  0  0  0  0  0  0  0  0  0  0  0
    8.1447    1.5209   -2.9770 C   0  0  0  0  0  0  0  0  0  0  0  0
    8.9813    0.5350   -3.4241 C   0  0  0  0  0  0  0  0  0  0  0  0
    8.6217   -0.8447   -3.8068 C   0  0  0  0  0  0  0  0  0  0  0  0
    7.6058   -1.4630   -3.5757 O   0  0  0  0  0  0  0  0  0  0  0  0
    9.7515   -1.3246   -4.6427 C   0  0  0  0  0  0  0  0  0  0  0  0
    9.8507   -2.5101   -5.3493 C   0  0  0  0  0  0  0  0  0  0  0  0
    8.6610   -3.7272   -5.2253 Cl  0  0  0  0  0  0  0  0  0  0  0  0
   10.9601   -2.6928   -6.1869 C   0  0  0  0  0  0  0  0  0  0  0  0
   11.1426   -4.1555   -7.0547 Cl  0  0  0  0  0  0  0  0  0  0  0  0
   11.8915   -1.6686   -6.3467 C   0  0  0  0  0  0  0  0  0  0  0  0
   13.1816   -1.8751   -7.4511 Cl  0  0  0  0  0  0  0  0  0  0  0  0
   11.7829   -0.4655   -5.6305 C   0  0  0  0  0  0  0  0  0  0  0  0
   12.8669    0.8094   -6.0075 Cl  0  0  0  0  0  0  0  0  0  0  0  0
   10.7419   -0.3253   -4.7217 C   0  0  0  0  0  0  0  0  0  0  0  0
   10.3656    0.7530   -3.8140 C   0  0  0  0  0  0  0  0  0  0  0  0
   11.1935    1.6720   -3.2266 C   0  0  0  0  0  0  0  0  0  0  0  0
   10.7485    2.6368   -2.2934 C   0  0  0  0  0  0  0  0  0  0  0  0
   10.4694    3.4438   -1.5263 N   0  0  0  0  0  0  0  0  0  0  0  0
   12.6029    1.6981   -3.2992 C   0  0  0  0  0  0  0  0  0  0  0  0
   13.7457    1.7590   -3.2139 N   0  0  0  0  0  0  0  0  0  0  0  0
   -7.9250   -0.6349    2.9392 H   0  0  0  0  0  0  0  0  0  0  0  0
  -12.5984    0.9914    5.0600 H   0  0  0  0  0  0  0  0  0  0  0  0
  -13.3140    3.0429    6.1964 H   0  0  0  0  0  0  0  0  0  0  0  0
   -6.4160    2.7913    2.3063 H   0  0  0  0  0  0  0  0  0  0  0  0
   -4.2146    3.0476    1.3299 H   0  0  0  0  0  0  0  0  0  0  0  0
   -5.9514   -1.4750    2.4784 H   0  0  0  0  0  0  0  0  0  0  0  0
   -2.7381   -3.2698    1.1248 H   0  0  0  0  0  0  0  0  0  0  0  0
   -4.4744   -3.0902    1.4900 H   0  0  0  0  0  0  0  0  0  0  0  0
   -3.8425   -2.4344    3.8528 H   0  0  0  0  0  0  0  0  0  0  0  0
   -2.1448   -2.7051    3.4402 H   0  0  0  0  0  0  0  0  0  0  0  0
   -3.2799   -4.0579    3.4350 H   0  0  0  0  0  0  0  0  0  0  0  0
    1.9072   -5.3716    1.8761 H   0  0  0  0  0  0  0  0  0  0  0  0
    0.1417   -5.6267    1.7549 H   0  0  0  0  0  0  0  0  0  0  0  0
    2.1230   -5.7511   -0.5802 H   0  0  0  0  0  0  0  0  0  0  0  0
    1.4235   -7.1634    0.2226 H   0  0  0  0  0  0  0  0  0  0  0  0
    0.3853   -6.0628   -0.6906 H   0  0  0  0  0  0  0  0  0  0  0  0
   -0.1606    2.9592    0.2735 H   0  0  0  0  0  0  0  0  0  0  0  0
   -1.5195    3.0047    1.4003 H   0  0  0  0  0  0  0  0  0  0  0  0
   -1.7697    3.3251   -1.6405 H   0  0  0  0  0  0  0  0  0  0  0  0
   -3.1169    3.1853   -0.5270 H   0  0  0  0  0  0  0  0  0  0  0  0
   -2.0073    4.5546   -0.4010 H   0  0  0  0  0  0  0  0  0  0  0  0
    1.3947    3.3369   -1.7803 H   0  0  0  0  0  0  0  0  0  0  0  0
   -0.0830    2.3429   -1.8298 H   0  0  0  0  0  0  0  0  0  0  0  0
    2.3287    1.9497   -3.6499 H   0  0  0  0  0  0  0  0  0  0  0  0
    0.7713    2.6502   -4.0978 H   0  0  0  0  0  0  0  0  0  0  0  0
    0.8750    0.9495   -3.6296 H   0  0  0  0  0  0  0  0  0  0  0  0
    5.7609   -1.9920   -0.0441 H   0  0  0  0  0  0  0  0  0  0  0  0
    4.0747   -2.5459    0.1346 H   0  0  0  0  0  0  0  0  0  0  0  0
    5.2864   -3.9244   -1.5411 H   0  0  0  0  0  0  0  0  0  0  0  0
    3.9657   -3.0292   -2.2978 H   0  0  0  0  0  0  0  0  0  0  0  0
    5.6361   -2.4851   -2.5031 H   0  0  0  0  0  0  0  0  0  0  0  0
    4.0267    3.4082   -2.4189 H   0  0  0  0  0  0  0  0  0  0  0  0
    6.3803    3.4423   -3.1067 H   0  0  0  0  0  0  0  0  0  0  0  0
    6.9673   -0.5491   -1.6474 H   0  0  0  0  0  0  0  0  0  0  0  0
    8.5141    2.5363   -3.0704 H   0  0  0  0  0  0  0  0  0  0  0  0
  1  2  2  0  0  0  0
  2  3  1  0  0  0  0
  3  4  2  0  0  0  0
  3  5  1  0  0  0  0
  5  6  2  0  0  0  0
  6  7  1  0  0  0  0
  7  8  2  0  0  0  0
  8  9  1  0  0  0  0
  9 10  1  0  0  0  0
  9 11  2  0  0  0  0
 11 12  1  0  0  0  0
  6 13  1  0  0  0  0
 13 14  2  0  0  0  0
 14 15  1  0  0  0  0
 15 16  3  0  0  0  0
 14 17  1  0  0  0  0
 17 18  3  0  0  0  0
  1 19  1  0  0  0  0
 19 20  2  0  0  0  0
 20 21  1  0  0  0  0
 21 22  2  0  0  0  0
 22 23  1  0  0  0  0
 23 24  2  0  0  0  0
 24 25  1  0  0  0  0
 25 26  1  0  0  0  0
 26 27  2  0  0  0  0
 25 28  1  0  0  0  0
 28 29  1  0  0  0  0
 24 30  1  0  0  0  0
 30 31  1  0  0  0  0
 31 32  1  0  0  0  0
 32 33  2  0  0  0  0
 33 34  1  0  0  0  0
 34 35  1  0  0  0  0
 35 36  1  0  0  0  0
 34 37  1  0  0  0  0
 32 38  1  0  0  0  0
 38 39  2  0  0  0  0
 39 40  1  0  0  0  0
 40 41  1  0  0  0  0
 41 42  1  0  0  0  0
 42 43  1  0  0  0  0
 39 44  1  0  0  0  0
 44 45  1  0  0  0  0
 45 46  1  0  0  0  0
 44 47  1  0  0  0  0
 47 48  2  0  0  0  0
 48 49  1  0  0  0  0
 49 50  1  0  0  0  0
 50 51  1  0  0  0  0
 49 52  1  0  0  0  0
 52 53  2  0  0  0  0
 53 54  1  0  0  0  0
 54 55  2  0  0  0  0
 55 56  1  0  0  0  0
 56 57  2  0  0  0  0
 56 58  1  0  0  0  0
 58 59  2  0  0  0  0
 59 60  1  0  0  0  0
 60 61  2  0  0  0  0
 60 62  1  0  0  0  0
 62 63  2  0  0  0  0
 63 64  1  0  0  0  0
 63 65  1  0  0  0  0
 65 66  1  0  0  0  0
 65 67  2  0  0  0  0
 67 68  1  0  0  0  0
 67 69  1  0  0  0  0
 69 70  1  0  0  0  0
 69 71  2  0  0  0  0
 71 72  1  0  0  0  0
 72 73  2  0  0  0  0
 73 74  1  0  0  0  0
 74 75  3  0  0  0  0
 73 76  1  0  0  0  0
 76 77  3  0  0  0  0
 13  2  1  0  0  0  0
 27 19  1  0  0  0  0
 40 30  2  0  0  0  0
 53 47  1  0  0  0  0
 72 59  1  0  0  0  0
 11  5  1  0  0  0  0
 26 22  1  0  0  0  0
 37 31  2  0  0  0  0
 48 38  1  0  0  0  0
 57 52  1  0  0  0  0
 71 62  1  0  0  0  0
 41 23  1  0  0  0  0
  1 78  1  0  0  0  0
  7 79  1  0  0  0  0
  8 80  1  0  0  0  0
 20 81  1  0  0  0  0
 21 82  1  0  0  0  0
 27 83  1  0  0  0  0
 28 84  1  0  0  0  0
 28 85  1  0  0  0  0
 29 86  1  0  0  0  0
 29 87  1  0  0  0  0
 29 88  1  0  0  0  0
 35 89  1  0  0  0  0
 35 90  1  0  0  0  0
 36 91  1  0  0  0  0
 36 92  1  0  0  0  0
 36 93  1  0  0  0  0
 42 94  1  0  0  0  0
 42 95  1  0  0  0  0
 43 96  1  0  0  0  0
 43 97  1  0  0  0  0
 43 98  1  0  0  0  0
 45 99  1  0  0  0  0
 45100  1  0  0  0  0
 46101  1  0  0  0  0
 46102  1  0  0  0  0
 46103  1  0  0  0  0
 50104  1  0  0  0  0
 50105  1  0  0  0  0
 51106  1  0  0  0  0
 51107  1  0  0  0  0
 51108  1  0  0  0  0
 54109  1  0  0  0  0
 55110  1  0  0  0  0
 57111  1  0  0  0  0
 58112  1  0  0  0  0
M  END
