
  xtb     02102219413D
 energy: -215.780473011636 gnorm: 0.000459084356 xtb: 6.4.1 (unknown)
117130  0     0  0            999 V2000
   -1.1159   -6.7014   -2.0550 C   0  0  0  0  0  0  0  0  0  0  0  0
   -1.7883   -7.8971   -2.0986 C   0  0  0  0  0  0  0  0  0  0  0  0
   -2.7402   -8.3718   -1.0784 C   0  0  0  0  0  0  0  0  0  0  0  0
   -2.9571   -7.8816    0.0086 O   0  0  0  0  0  0  0  0  0  0  0  0
   -3.2437   -9.6689   -1.5827 C   0  0  0  0  0  0  0  0  0  0  0  0
   -2.5338  -10.0257   -2.7433 C   0  0  0  0  0  0  0  0  0  0  0  0
   -2.8140  -11.2216   -3.3851 C   0  0  0  0  0  0  0  0  0  0  0  0
   -3.8104  -12.0356   -2.8663 C   0  0  0  0  0  0  0  0  0  0  0  0
   -4.5188  -11.6702   -1.7318 C   0  0  0  0  0  0  0  0  0  0  0  0
   -5.8841  -12.8080   -1.0920 Br  0  0  0  0  0  0  0  0  0  0  0  0
   -4.2403  -10.4747   -1.0607 C   0  0  0  0  0  0  0  0  0  0  0  0
   -5.1143  -10.0077    0.3342 Cl  0  0  0  0  0  0  0  0  0  0  0  0
   -1.6000   -8.9474   -3.0719 C   0  0  0  0  0  0  0  0  0  0  0  0
   -0.7766   -8.9217   -4.1701 C   0  0  0  0  0  0  0  0  0  0  0  0
   -0.6526   -9.9794   -5.0939 C   0  0  0  0  0  0  0  0  0  0  0  0
   -0.5007  -10.8034   -5.8787 N   0  0  0  0  0  0  0  0  0  0  0  0
    0.0441   -7.8384   -4.5451 C   0  0  0  0  0  0  0  0  0  0  0  0
    0.7203   -6.9926   -4.9284 N   0  0  0  0  0  0  0  0  0  0  0  0
   -1.4680   -5.5376   -1.3512 C   0  0  0  0  0  0  0  0  0  0  0  0
   -2.6960   -5.0585   -0.8840 C   0  0  0  0  0  0  0  0  0  0  0  0
   -4.0078   -5.7006   -1.0075 C   0  0  0  0  0  0  0  0  0  0  0  0
   -4.6960   -5.9373    0.1835 C   0  0  0  0  0  0  0  0  0  0  0  0
   -5.9176   -6.5796    0.1799 C   0  0  0  0  0  0  0  0  0  0  0  0
   -6.4705   -6.9830   -1.0221 C   0  0  0  0  0  0  0  0  0  0  0  0
   -5.8142   -6.7067   -2.2080 C   0  0  0  0  0  0  0  0  0  0  0  0
   -4.5823   -6.0636   -2.2306 C   0  0  0  0  0  0  0  0  0  0  0  0
   -3.9586   -5.6946   -3.5528 C   0  0  0  0  0  0  0  0  0  0  0  0
   -4.0229   -6.8069   -4.5995 C   0  0  0  0  0  0  0  0  0  0  0  0
   -2.5502   -3.8089   -0.2721 C   0  0  0  0  0  0  0  0  0  0  0  0
   -3.7107   -2.7397    0.4831 S   0  0  0  0  0  0  0  0  0  0  0  0
   -2.4349   -1.6081    0.7673 C   0  0  0  0  0  0  0  0  0  0  0  0
   -2.2434   -0.3559    1.3625 C   0  0  0  0  0  0  0  0  0  0  0  0
   -3.1531    0.4618    2.0678 C   0  0  0  0  0  0  0  0  0  0  0  0
   -2.6750    1.6755    2.6543 C   0  0  0  0  0  0  0  0  0  0  0  0
   -3.6194    2.3253    3.3164 N   0  0  0  0  0  0  0  0  0  0  0  0
   -4.9947    1.4786    3.2076 S   0  0  0  0  0  0  0  0  0  0  0  0
   -4.4373    0.2515    2.3112 N   0  0  0  0  0  0  0  0  0  0  0  0
   -1.3317    2.0519    2.4358 C   0  0  0  0  0  0  0  0  0  0  0  0
   -0.6576    3.2252    2.7910 C   0  0  0  0  0  0  0  0  0  0  0  0
   -0.9571    4.7044    3.6381 S   0  0  0  0  0  0  0  0  0  0  0  0
    0.6604    5.2331    3.2113 C   0  0  0  0  0  0  0  0  0  0  0  0
    1.3719    6.3962    3.4737 C   0  0  0  0  0  0  0  0  0  0  0  0
    0.8947    7.5308    4.2771 C   0  0  0  0  0  0  0  0  0  0  0  0
   -0.1110    8.3846    3.8195 C   0  0  0  0  0  0  0  0  0  0  0  0
   -0.7002    8.2384    2.4456 C   0  0  0  0  0  0  0  0  0  0  0  0
    0.2342    8.8462    1.3967 C   0  0  0  0  0  0  0  0  0  0  0  0
   -0.4986    9.4422    4.6309 C   0  0  0  0  0  0  0  0  0  0  0  0
    0.0843    9.6543    5.8661 C   0  0  0  0  0  0  0  0  0  0  0  0
    1.0820    8.8056    6.3128 C   0  0  0  0  0  0  0  0  0  0  0  0
    1.4874    7.7520    5.5177 C   0  0  0  0  0  0  0  0  0  0  0  0
    2.6603    6.3546    2.9085 C   0  0  0  0  0  0  0  0  0  0  0  0
    2.9742    4.8380    2.0723 S   0  0  0  0  0  0  0  0  0  0  0  0
    1.3851    4.2898    2.4587 C   0  0  0  0  0  0  0  0  0  0  0  0
    0.6226    3.1407    2.2322 C   0  0  0  0  0  0  0  0  0  0  0  0
    0.7610    1.9580    1.5605 N   0  0  0  0  0  0  0  0  0  0  0  0
   -0.4198    1.2503    1.6795 C   0  0  0  0  0  0  0  0  0  0  0  0
   -0.8648   -0.0159    1.2032 C   0  0  0  0  0  0  0  0  0  0  0  0
   -0.2416   -1.0737    0.5653 N   0  0  0  0  0  0  0  0  0  0  0  0
   -1.1857   -2.0253    0.2928 C   0  0  0  0  0  0  0  0  0  0  0  0
   -1.2458   -3.2898   -0.2975 C   0  0  0  0  0  0  0  0  0  0  0  0
   -0.1637   -4.3731   -1.0851 S   0  0  0  0  0  0  0  0  0  0  0  0
    1.1449   -1.3778    0.2961 C   0  0  0  0  0  0  0  0  0  0  0  0
    1.4929   -1.1921   -1.1813 C   0  0  0  0  0  0  0  0  0  0  0  0
    1.9767    1.7314    0.8140 C   0  0  0  0  0  0  0  0  0  0  0  0
    3.1179    1.2619    1.7164 C   0  0  0  0  0  0  0  0  0  0  0  0
    3.5162    7.4578    2.9584 C   0  0  0  0  0  0  0  0  0  0  0  0
    4.7859    7.6261    2.4620 C   0  0  0  0  0  0  0  0  0  0  0  0
    5.6069    6.5902    1.8359 C   0  0  0  0  0  0  0  0  0  0  0  0
    5.2908    5.4421    1.5740 O   0  0  0  0  0  0  0  0  0  0  0  0
    6.9245    7.2118    1.5896 C   0  0  0  0  0  0  0  0  0  0  0  0
    8.0537    6.6398    1.0429 C   0  0  0  0  0  0  0  0  0  0  0  0
    9.1834    7.4410    0.9207 C   0  0  0  0  0  0  0  0  0  0  0  0
   10.6235    6.7781    0.2456 Cl  0  0  0  0  0  0  0  0  0  0  0  0
    9.1722    8.7678    1.3347 C   0  0  0  0  0  0  0  0  0  0  0  0
    8.0300    9.3341    1.8811 C   0  0  0  0  0  0  0  0  0  0  0  0
    6.8917    8.5527    2.0119 C   0  0  0  0  0  0  0  0  0  0  0  0
    5.5576    8.8500    2.5311 C   0  0  0  0  0  0  0  0  0  0  0  0
    5.1240   10.0812    2.9519 C   0  0  0  0  0  0  0  0  0  0  0  0
    3.8155   10.3952    3.3773 C   0  0  0  0  0  0  0  0  0  0  0  0
    2.7747   10.7447    3.7161 N   0  0  0  0  0  0  0  0  0  0  0  0
    5.9390   11.2322    2.9855 C   0  0  0  0  0  0  0  0  0  0  0  0
    6.5490   12.2032    3.0399 N   0  0  0  0  0  0  0  0  0  0  0  0
   -0.2017   -6.6162   -2.6310 H   0  0  0  0  0  0  0  0  0  0  0  0
   -2.2836  -11.5310   -4.2700 H   0  0  0  0  0  0  0  0  0  0  0  0
   -4.0469  -12.9690   -3.3532 H   0  0  0  0  0  0  0  0  0  0  0  0
   -4.2421   -5.6442    1.1172 H   0  0  0  0  0  0  0  0  0  0  0  0
   -6.4303   -6.7681    1.1108 H   0  0  0  0  0  0  0  0  0  0  0  0
   -7.4188   -7.4994   -1.0409 H   0  0  0  0  0  0  0  0  0  0  0  0
   -6.2771   -6.9900   -3.1409 H   0  0  0  0  0  0  0  0  0  0  0  0
   -2.9189   -5.4022   -3.4080 H   0  0  0  0  0  0  0  0  0  0  0  0
   -4.4867   -4.8171   -3.9408 H   0  0  0  0  0  0  0  0  0  0  0  0
   -3.7116   -7.7577   -4.1726 H   0  0  0  0  0  0  0  0  0  0  0  0
   -3.3641   -6.5706   -5.4322 H   0  0  0  0  0  0  0  0  0  0  0  0
   -5.0289   -6.9256   -4.9926 H   0  0  0  0  0  0  0  0  0  0  0  0
   -0.8753    7.1877    2.2103 H   0  0  0  0  0  0  0  0  0  0  0  0
   -1.6605    8.7555    2.4104 H   0  0  0  0  0  0  0  0  0  0  0  0
    0.4659    9.8775    1.6524 H   0  0  0  0  0  0  0  0  0  0  0  0
    1.1687    8.2915    1.3454 H   0  0  0  0  0  0  0  0  0  0  0  0
   -0.2336    8.8246    0.4152 H   0  0  0  0  0  0  0  0  0  0  0  0
   -1.2669   10.1153    4.2798 H   0  0  0  0  0  0  0  0  0  0  0  0
   -0.2326   10.4861    6.4764 H   0  0  0  0  0  0  0  0  0  0  0  0
    1.5479    8.9661    7.2732 H   0  0  0  0  0  0  0  0  0  0  0  0
    2.2659    7.0819    5.8552 H   0  0  0  0  0  0  0  0  0  0  0  0
    1.7811   -0.7797    0.9417 H   0  0  0  0  0  0  0  0  0  0  0  0
    1.3025   -2.4291    0.5602 H   0  0  0  0  0  0  0  0  0  0  0  0
    2.5630   -1.3104   -1.3251 H   0  0  0  0  0  0  0  0  0  0  0  0
    0.9824   -1.9384   -1.7838 H   0  0  0  0  0  0  0  0  0  0  0  0
    1.1937   -0.2103   -1.5426 H   0  0  0  0  0  0  0  0  0  0  0  0
    1.7847    1.0349    0.0038 H   0  0  0  0  0  0  0  0  0  0  0  0
    2.2637    2.6891    0.3674 H   0  0  0  0  0  0  0  0  0  0  0  0
    3.9793    0.9956    1.1108 H   0  0  0  0  0  0  0  0  0  0  0  0
    2.8267    0.4026    2.3175 H   0  0  0  0  0  0  0  0  0  0  0  0
    3.4112    2.0612    2.3914 H   0  0  0  0  0  0  0  0  0  0  0  0
    3.0788    8.3042    3.4748 H   0  0  0  0  0  0  0  0  0  0  0  0
    8.0520    5.6094    0.7246 H   0  0  0  0  0  0  0  0  0  0  0  0
   10.0657    9.3627    1.2286 H   0  0  0  0  0  0  0  0  0  0  0  0
    8.0482   10.3646    2.1957 H   0  0  0  0  0  0  0  0  0  0  0  0
  1  2  2  0  0  0  0
  2  3  1  0  0  0  0
  3  4  2  0  0  0  0
  3  5  1  0  0  0  0
  5  6  2  0  0  0  0
  6  7  1  0  0  0  0
  7  8  2  0  0  0  0
  8  9  1  0  0  0  0
  9 10  1  0  0  0  0
  9 11  2  0  0  0  0
 11 12  1  0  0  0  0
  6 13  1  0  0  0  0
 13 14  2  0  0  0  0
 14 15  1  0  0  0  0
 15 16  3  0  0  0  0
 14 17  1  0  0  0  0
 17 18  3  0  0  0  0
  1 19  1  0  0  0  0
 19 20  2  0  0  0  0
 20 21  1  0  0  0  0
 21 22  2  0  0  0  0
 22 23  1  0  0  0  0
 23 24  2  0  0  0  0
 24 25  1  0  0  0  0
 25 26  2  0  0  0  0
 26 27  1  0  0  0  0
 27 28  1  0  0  0  0
 20 29  1  0  0  0  0
 29 30  1  0  0  0  0
 30 31  1  0  0  0  0
 31 32  1  0  0  0  0
 32 33  1  0  0  0  0
 33 34  1  0  0  0  0
 34 35  2  0  0  0  0
 35 36  1  0  0  0  0
 36 37  1  0  0  0  0
 34 38  1  0  0  0  0
 38 39  1  0  0  0  0
 39 40  1  0  0  0  0
 40 41  1  0  0  0  0
 41 42  1  0  0  0  0
 42 43  1  0  0  0  0
 43 44  2  0  0  0  0
 44 45  1  0  0  0  0
 45 46  1  0  0  0  0
 44 47  1  0  0  0  0
 47 48  2  0  0  0  0
 48 49  1  0  0  0  0
 49 50  2  0  0  0  0
 42 51  2  0  0  0  0
 51 52  1  0  0  0  0
 52 53  1  0  0  0  0
 53 54  1  0  0  0  0
 54 55  1  0  0  0  0
 55 56  1  0  0  0  0
 56 57  1  0  0  0  0
 57 58  1  0  0  0  0
 58 59  1  0  0  0  0
 59 60  1  0  0  0  0
 60 61  1  0  0  0  0
 58 62  1  0  0  0  0
 62 63  1  0  0  0  0
 55 64  1  0  0  0  0
 64 65  1  0  0  0  0
 51 66  1  0  0  0  0
 66 67  2  0  0  0  0
 67 68  1  0  0  0  0
 68 69  2  0  0  0  0
 68 70  1  0  0  0  0
 70 71  2  0  0  0  0
 71 72  1  0  0  0  0
 72 73  1  0  0  0  0
 72 74  2  0  0  0  0
 74 75  1  0  0  0  0
 75 76  2  0  0  0  0
 76 77  1  0  0  0  0
 77 78  2  0  0  0  0
 78 79  1  0  0  0  0
 79 80  3  0  0  0  0
 78 81  1  0  0  0  0
 81 82  3  0  0  0  0
 13  2  1  0  0  0  0
 61 19  1  0  0  0  0
 77 67  1  0  0  0  0
 11  5  1  0  0  0  0
 26 21  1  0  0  0  0
 60 29  2  0  0  0  0
 76 70  1  0  0  0  0
 59 31  2  0  0  0  0
 57 32  2  0  0  0  0
 37 33  2  0  0  0  0
 56 38  2  0  0  0  0
 54 39  2  0  0  0  0
 53 41  2  0  0  0  0
 50 43  1  0  0  0  0
  1 83  1  0  0  0  0
  7 84  1  0  0  0  0
  8 85  1  0  0  0  0
 22 86  1  0  0  0  0
 23 87  1  0  0  0  0
 24 88  1  0  0  0  0
 25 89  1  0  0  0  0
 27 90  1  0  0  0  0
 27 91  1  0  0  0  0
 28 92  1  0  0  0  0
 28 93  1  0  0  0  0
 28 94  1  0  0  0  0
 45 95  1  0  0  0  0
 45 96  1  0  0  0  0
 46 97  1  0  0  0  0
 46 98  1  0  0  0  0
 46 99  1  0  0  0  0
 47100  1  0  0  0  0
 48101  1  0  0  0  0
 49102  1  0  0  0  0
 50103  1  0  0  0  0
 62104  1  0  0  0  0
 62105  1  0  0  0  0
 63106  1  0  0  0  0
 63107  1  0  0  0  0
 63108  1  0  0  0  0
 64109  1  0  0  0  0
 64110  1  0  0  0  0
 65111  1  0  0  0  0
 65112  1  0  0  0  0
 65113  1  0  0  0  0
 66114  1  0  0  0  0
 71115  1  0  0  0  0
 74116  1  0  0  0  0
 75117  1  0  0  0  0
M  END
