
  xtb     02012223153D
 energy: -172.217728682703 gnorm: 0.000413875941 xtb: 6.4.1 (unknown)
 92104  0     0  0            999 V2000
   -2.4611   -1.0290   -8.0914 C   0  0  0  0  0  0  0  0  0  0  0  0
   -3.6474   -0.7489   -8.7011 C   0  0  0  0  0  0  0  0  0  0  0  0
   -3.7511   -0.7773  -10.1814 C   0  0  0  0  0  0  0  0  0  0  0  0
   -2.9452   -1.2355  -10.9562 O   0  0  0  0  0  0  0  0  0  0  0  0
   -5.0210   -0.0753  -10.4859 C   0  0  0  0  0  0  0  0  0  0  0  0
   -5.6930    0.2246   -9.2845 C   0  0  0  0  0  0  0  0  0  0  0  0
   -6.8964    0.9090   -9.3071 C   0  0  0  0  0  0  0  0  0  0  0  0
   -7.4212    1.2827  -10.5354 C   0  0  0  0  0  0  0  0  0  0  0  0
   -6.7661    0.9751  -11.7184 C   0  0  0  0  0  0  0  0  0  0  0  0
   -7.5412    1.4999  -13.3594 Br  0  0  0  0  0  0  0  0  0  0  0  0
   -5.5464    0.2880  -11.7159 C   0  0  0  0  0  0  0  0  0  0  0  0
   -4.7355   -0.0887  -13.1749 Cl  0  0  0  0  0  0  0  0  0  0  0  0
   -4.9223   -0.3227   -8.1706 C   0  0  0  0  0  0  0  0  0  0  0  0
   -5.4313   -0.6431   -6.9391 C   0  0  0  0  0  0  0  0  0  0  0  0
   -4.7424   -1.4471   -6.0067 C   0  0  0  0  0  0  0  0  0  0  0  0
   -4.2376   -2.1503   -5.2527 N   0  0  0  0  0  0  0  0  0  0  0  0
   -6.7310   -0.3052   -6.5124 C   0  0  0  0  0  0  0  0  0  0  0  0
   -7.7772   -0.0464   -6.1177 N   0  0  0  0  0  0  0  0  0  0  0  0
   -2.0373   -0.6595   -6.7952 C   0  0  0  0  0  0  0  0  0  0  0  0
   -2.7005    0.7582   -5.9744 S   0  0  0  0  0  0  0  0  0  0  0  0
   -1.6615    0.4731   -4.6456 C   0  0  0  0  0  0  0  0  0  0  0  0
   -1.3407    1.0215   -3.4001 C   0  0  0  0  0  0  0  0  0  0  0  0
   -1.7590    2.2203   -2.7817 C   0  0  0  0  0  0  0  0  0  0  0  0
   -1.1759    2.5867   -1.5258 C   0  0  0  0  0  0  0  0  0  0  0  0
   -1.6131    3.7569   -1.0879 N   0  0  0  0  0  0  0  0  0  0  0  0
   -2.6709    4.3439   -2.1616 S   0  0  0  0  0  0  0  0  0  0  0  0
   -2.6113    3.1288   -3.2294 N   0  0  0  0  0  0  0  0  0  0  0  0
   -0.2976    1.6792   -0.8935 C   0  0  0  0  0  0  0  0  0  0  0  0
    0.2838    1.7081    0.3799 C   0  0  0  0  0  0  0  0  0  0  0  0
    0.9344    0.4771    0.5671 C   0  0  0  0  0  0  0  0  0  0  0  0
    0.8090   -0.2873   -0.5655 N   0  0  0  0  0  0  0  0  0  0  0  0
    1.0819   -1.7068   -0.5037 C   0  0  0  0  0  0  0  0  0  0  0  0
   -0.2003   -2.5321   -0.5782 C   0  0  0  0  0  0  0  0  0  0  0  0
    0.0609    0.4307   -1.4844 C   0  0  0  0  0  0  0  0  0  0  0  0
   -0.3705    0.1584   -2.8089 C   0  0  0  0  0  0  0  0  0  0  0  0
   -0.0735   -0.8476   -3.7148 N   0  0  0  0  0  0  0  0  0  0  0  0
   -0.8523   -0.6588   -4.8277 C   0  0  0  0  0  0  0  0  0  0  0  0
   -1.0372   -1.2775   -6.0621 C   0  0  0  0  0  0  0  0  0  0  0  0
    1.0835   -1.7129   -3.7780 C   0  0  0  0  0  0  0  0  0  0  0  0
    2.3848   -0.9162   -3.7241 C   0  0  0  0  0  0  0  0  0  0  0  0
    1.5091    0.3294    1.8262 C   0  0  0  0  0  0  0  0  0  0  0  0
    1.3016    1.4532    2.6091 C   0  0  0  0  0  0  0  0  0  0  0  0
    0.4035    2.7201    1.7522 S   0  0  0  0  0  0  0  0  0  0  0  0
    1.6853    1.7503    3.9332 C   0  0  0  0  0  0  0  0  0  0  0  0
    2.1403    0.9382    4.9339 C   0  0  0  0  0  0  0  0  0  0  0  0
    2.1897   -0.5423    4.9777 C   0  0  0  0  0  0  0  0  0  0  0  0
    2.1236   -1.3354    4.0587 O   0  0  0  0  0  0  0  0  0  0  0  0
    2.3234   -0.8948    6.4030 C   0  0  0  0  0  0  0  0  0  0  0  0
    2.2913   -2.1756    6.9507 C   0  0  0  0  0  0  0  0  0  0  0  0
    2.4136   -2.2025    8.3188 C   0  0  0  0  0  0  0  0  0  0  0  0
    2.5515   -1.0399    9.0900 C   0  0  0  0  0  0  0  0  0  0  0  0
    2.5897    0.2288    8.5629 C   0  0  0  0  0  0  0  0  0  0  0  0
    2.4750    0.2767    7.1707 C   0  0  0  0  0  0  0  0  0  0  0  0
    2.4708    1.4209    6.2666 C   0  0  0  0  0  0  0  0  0  0  0  0
    2.8148    2.7030    6.6023 C   0  0  0  0  0  0  0  0  0  0  0  0
    2.9306    3.7778    5.6940 C   0  0  0  0  0  0  0  0  0  0  0  0
    3.0751    4.6944    5.0173 N   0  0  0  0  0  0  0  0  0  0  0  0
    3.1731    3.1130    7.9039 C   0  0  0  0  0  0  0  0  0  0  0  0
    3.4729    3.5147    8.9368 N   0  0  0  0  0  0  0  0  0  0  0  0
    2.6119   -1.8102   10.3847 C   0  0  0  0  0  0  0  0  0  0  0  0
    3.9982   -1.9944   11.0496 C   0  0  0  0  0  0  0  0  0  0  0  0
    5.0174   -1.9270    9.9394 C   0  0  0  0  0  0  0  0  0  0  0  0
    4.8931   -3.0268    9.2086 C   0  0  0  0  0  0  0  0  0  0  0  0
    3.7874   -3.8578    9.8113 C   0  0  0  0  0  0  0  0  0  0  0  0
    3.9673   -3.5109   11.2978 C   0  0  0  0  0  0  0  0  0  0  0  0
    2.4639   -3.1054    9.5256 C   0  0  0  0  0  0  0  0  0  0  0  0
   -1.7250   -1.5327   -8.7109 H   0  0  0  0  0  0  0  0  0  0  0  0
   -7.4193    1.1632   -8.3999 H   0  0  0  0  0  0  0  0  0  0  0  0
   -8.3556    1.8207  -10.5794 H   0  0  0  0  0  0  0  0  0  0  0  0
    1.5641   -1.8860    0.4590 H   0  0  0  0  0  0  0  0  0  0  0  0
    1.7936   -1.9952   -1.2786 H   0  0  0  0  0  0  0  0  0  0  0  0
   -0.8412   -2.2950    0.2677 H   0  0  0  0  0  0  0  0  0  0  0  0
   -0.7553   -2.3287   -1.4908 H   0  0  0  0  0  0  0  0  0  0  0  0
    0.0399   -3.5914   -0.5415 H   0  0  0  0  0  0  0  0  0  0  0  0
   -0.5334   -2.1582   -6.4172 H   0  0  0  0  0  0  0  0  0  0  0  0
    1.0433   -2.4688   -2.9930 H   0  0  0  0  0  0  0  0  0  0  0  0
    1.0247   -2.2388   -4.7324 H   0  0  0  0  0  0  0  0  0  0  0  0
    2.4351   -0.2287   -4.5655 H   0  0  0  0  0  0  0  0  0  0  0  0
    3.2349   -1.5911   -3.7778 H   0  0  0  0  0  0  0  0  0  0  0  0
    2.4557   -0.3351   -2.8080 H   0  0  0  0  0  0  0  0  0  0  0  0
    2.0460   -0.5261    2.1894 H   0  0  0  0  0  0  0  0  0  0  0  0
    1.5321    2.7914    4.1945 H   0  0  0  0  0  0  0  0  0  0  0  0
    2.1744   -3.0446    6.3221 H   0  0  0  0  0  0  0  0  0  0  0  0
    2.6872    1.1146    9.1682 H   0  0  0  0  0  0  0  0  0  0  0  0
    1.8305   -1.5865   11.1083 H   0  0  0  0  0  0  0  0  0  0  0  0
    4.1774   -1.3494   11.9054 H   0  0  0  0  0  0  0  0  0  0  0  0
    5.6644   -1.0860    9.7714 H   0  0  0  0  0  0  0  0  0  0  0  0
    5.4159   -3.2887    8.3073 H   0  0  0  0  0  0  0  0  0  0  0  0
    3.7754   -4.9105    9.5407 H   0  0  0  0  0  0  0  0  0  0  0  0
    4.9021   -3.8895   11.7083 H   0  0  0  0  0  0  0  0  0  0  0  0
    3.1345   -3.8316   11.9223 H   0  0  0  0  0  0  0  0  0  0  0  0
    1.5880   -3.7300    9.6908 H   0  0  0  0  0  0  0  0  0  0  0  0
  1  2  2  0  0  0  0
  2  3  1  0  0  0  0
  3  4  2  0  0  0  0
  3  5  1  0  0  0  0
  5  6  2  0  0  0  0
  6  7  1  0  0  0  0
  7  8  2  0  0  0  0
  8  9  1  0  0  0  0
  9 10  1  0  0  0  0
  9 11  2  0  0  0  0
 11 12  1  0  0  0  0
  6 13  1  0  0  0  0
 13 14  2  0  0  0  0
 14 15  1  0  0  0  0
 15 16  3  0  0  0  0
 14 17  1  0  0  0  0
 17 18  3  0  0  0  0
  1 19  1  0  0  0  0
 19 20  1  0  0  0  0
 20 21  1  0  0  0  0
 21 22  1  0  0  0  0
 22 23  1  0  0  0  0
 23 24  1  0  0  0  0
 24 25  2  0  0  0  0
 25 26  1  0  0  0  0
 26 27  1  0  0  0  0
 24 28  1  0  0  0  0
 28 29  1  0  0  0  0
 29 30  2  0  0  0  0
 30 31  1  0  0  0  0
 31 32  1  0  0  0  0
 32 33  1  0  0  0  0
 31 34  1  0  0  0  0
 34 35  1  0  0  0  0
 35 36  1  0  0  0  0
 36 37  1  0  0  0  0
 37 38  1  0  0  0  0
 36 39  1  0  0  0  0
 39 40  1  0  0  0  0
 30 41  1  0  0  0  0
 41 42  2  0  0  0  0
 42 43  1  0  0  0  0
 42 44  1  0  0  0  0
 44 45  2  0  0  0  0
 45 46  1  0  0  0  0
 46 47  2  0  0  0  0
 46 48  1  0  0  0  0
 48 49  2  0  0  0  0
 49 50  1  0  0  0  0
 50 51  2  0  0  0  0
 51 52  1  0  0  0  0
 52 53  2  0  0  0  0
 53 54  1  0  0  0  0
 54 55  2  0  0  0  0
 55 56  1  0  0  0  0
 56 57  3  0  0  0  0
 55 58  1  0  0  0  0
 58 59  3  0  0  0  0
 51 60  1  0  0  0  0
 60 61  1  0  0  0  0
 61 62  1  0  0  0  0
 62 63  2  0  0  0  0
 63 64  1  0  0  0  0
 64 65  1  0  0  0  0
 64 66  1  0  0  0  0
 13  2  1  0  0  0  0
 38 19  2  0  0  0  0
 54 45  1  0  0  0  0
 66 60  1  0  0  0  0
 11  5  1  0  0  0  0
 37 21  2  0  0  0  0
 53 48  1  0  0  0  0
 65 61  1  0  0  0  0
 35 22  2  0  0  0  0
 66 50  1  0  0  0  0
 27 23  2  0  0  0  0
 34 28  2  0  0  0  0
 43 29  1  0  0  0  0
  1 67  1  0  0  0  0
  7 68  1  0  0  0  0
  8 69  1  0  0  0  0
 32 70  1  0  0  0  0
 32 71  1  0  0  0  0
 33 72  1  0  0  0  0
 33 73  1  0  0  0  0
 33 74  1  0  0  0  0
 38 75  1  0  0  0  0
 39 76  1  0  0  0  0
 39 77  1  0  0  0  0
 40 78  1  0  0  0  0
 40 79  1  0  0  0  0
 40 80  1  0  0  0  0
 41 81  1  0  0  0  0
 44 82  1  0  0  0  0
 49 83  1  0  0  0  0
 52 84  1  0  0  0  0
 60 85  1  0  0  0  0
 61 86  1  0  0  0  0
 62 87  1  0  0  0  0
 63 88  1  0  0  0  0
 64 89  1  0  0  0  0
 65 90  1  0  0  0  0
 65 91  1  0  0  0  0
 66 92  1  0  0  0  0
M  END
