117

C         -1.11590       -6.70140       -2.05500
C         -1.78830       -7.89710       -2.09860
C         -2.74020       -8.37180       -1.07840
O         -2.95710       -7.88160        0.00860
C         -3.24370       -9.66890       -1.58270
C         -2.53380      -10.02570       -2.74330
C         -2.81400      -11.22160       -3.38510
C         -3.81040      -12.03560       -2.86630
C         -4.51880      -11.67020       -1.73180
Br        -5.88410      -12.80800       -1.09200
C         -4.24030      -10.47470       -1.06070
Cl        -5.11430      -10.00770        0.33420
C         -1.60000       -8.94740       -3.07190
C         -0.77660       -8.92170       -4.17010
C         -0.65260       -9.97940       -5.09390
N         -0.50070      -10.80340       -5.87870
C          0.04410       -7.83840       -4.54510
N          0.72030       -6.99260       -4.92840
C         -1.46800       -5.53760       -1.35120
C         -2.69600       -5.05850       -0.88400
C         -4.00780       -5.70060       -1.00750
C         -4.69600       -5.93730        0.18350
C         -5.91760       -6.57960        0.17990
C         -6.47050       -6.98300       -1.02210
C         -5.81420       -6.70670       -2.20800
C         -4.58230       -6.06360       -2.23060
C         -3.95860       -5.69460       -3.55280
C         -4.02290       -6.80690       -4.59950
C         -2.55020       -3.80890       -0.27210
S         -3.71070       -2.73970        0.48310
C         -2.43490       -1.60810        0.76730
C         -2.24340       -0.35590        1.36250
C         -3.15310        0.46180        2.06780
C         -2.67500        1.67550        2.65430
N         -3.61940        2.32530        3.31640
S         -4.99470        1.47860        3.20760
N         -4.43730        0.25150        2.31120
C         -1.33170        2.05190        2.43580
C         -0.65760        3.22520        2.79100
S         -0.95710        4.70440        3.63810
C          0.66040        5.23310        3.21130
C          1.37190        6.39620        3.47370
C          0.89470        7.53080        4.27710
C         -0.11100        8.38460        3.81950
C         -0.70020        8.23840        2.44560
C          0.23420        8.84620        1.39670
C         -0.49860        9.44220        4.63090
C          0.08430        9.65430        5.86610
C          1.08200        8.80560        6.31280
C          1.48740        7.75200        5.51770
C          2.66030        6.35460        2.90850
S          2.97420        4.83800        2.07230
C          1.38510        4.28980        2.45870
C          0.62260        3.14070        2.23220
N          0.76100        1.95800        1.56050
C         -0.41980        1.25030        1.67950
C         -0.86480       -0.01590        1.20320
N         -0.24160       -1.07370        0.56530
C         -1.18570       -2.02530        0.29280
C         -1.24580       -3.28980       -0.29750
S         -0.16370       -4.37310       -1.08510
C          1.14490       -1.37780        0.29610
C          1.49290       -1.19210       -1.18130
C          1.97670        1.73140        0.81400
C          3.11790        1.26190        1.71640
C          3.51620        7.45780        2.95840
C          4.78590        7.62610        2.46200
C          5.60690        6.59020        1.83590
O          5.29080        5.44210        1.57400
C          6.92450        7.21180        1.58960
C          8.05370        6.63980        1.04290
C          9.18340        7.44100        0.92070
Cl        10.62350        6.77810        0.24560
C          9.17220        8.76780        1.33470
C          8.03000        9.33410        1.88110
C          6.89170        8.55270        2.01190
C          5.55760        8.85000        2.53110
C          5.12400       10.08120        2.95190
C          3.81550       10.39520        3.37730
N          2.77470       10.74470        3.71610
C          5.93900       11.23220        2.98550
N          6.54900       12.20320        3.03990
H         -0.20170       -6.61620       -2.63100
H         -2.28360      -11.53100       -4.27000
H         -4.04690      -12.96900       -3.35320
H         -4.24210       -5.64420        1.11720
H         -6.43030       -6.76810        1.11080
H         -7.41880       -7.49940       -1.04090
H         -6.27710       -6.99000       -3.14090
H         -2.91890       -5.40220       -3.40800
H         -4.48670       -4.81710       -3.94080
H         -3.71160       -7.75770       -4.17260
H         -3.36410       -6.57060       -5.43220
H         -5.02890       -6.92560       -4.99260
H         -0.87530        7.18770        2.21030
H         -1.66050        8.75550        2.41040
H          0.46590        9.87750        1.65240
H          1.16870        8.29150        1.34540
H         -0.23360        8.82460        0.41520
H         -1.26690       10.11530        4.27980
H         -0.23260       10.48610        6.47640
H          1.54790        8.96610        7.27320
H          2.26590        7.08190        5.85520
H          1.78110       -0.77970        0.94170
H          1.30250       -2.42910        0.56020
H          2.56300       -1.31040       -1.32510
H          0.98240       -1.93840       -1.78380
H          1.19370       -0.21030       -1.54260
H          1.78470        1.03490        0.00380
H          2.26370        2.68910        0.36740
H          3.97930        0.99560        1.11080
H          2.82670        0.40260        2.31750
H          3.41120        2.06120        2.39140
H          3.07880        8.30420        3.47480
H          8.05200        5.60940        0.72460
H         10.06570        9.36270        1.22860
H          8.04820       10.36460        2.19570
