
  xtb     02102219503D
 energy: -215.779956627589 gnorm: 0.000810891690 xtb: 6.4.1 (unknown)
117130  0     0  0            999 V2000
    3.0845    2.5445   -6.7967 C   0  0  0  0  0  0  0  0  0  0  0  0
    4.4254    2.2834   -6.7027 C   0  0  0  0  0  0  0  0  0  0  0  0
    5.3792    3.2083   -7.3582 C   0  0  0  0  0  0  0  0  0  0  0  0
    5.1245    4.0508   -8.1871 O   0  0  0  0  0  0  0  0  0  0  0  0
    6.6877    2.9179   -6.7208 C   0  0  0  0  0  0  0  0  0  0  0  0
    6.5537    1.8133   -5.8576 C   0  0  0  0  0  0  0  0  0  0  0  0
    7.6351    1.3665   -5.1186 C   0  0  0  0  0  0  0  0  0  0  0  0
    8.8452    2.0324   -5.2497 C   0  0  0  0  0  0  0  0  0  0  0  0
    8.9789    3.1134   -6.1072 C   0  0  0  0  0  0  0  0  0  0  0  0
   10.6566    3.9726   -6.2461 Br  0  0  0  0  0  0  0  0  0  0  0  0
    7.8969    3.5785   -6.8641 C   0  0  0  0  0  0  0  0  0  0  0  0
    8.0614    4.9129   -7.9235 Cl  0  0  0  0  0  0  0  0  0  0  0  0
    5.1834    1.3125   -5.9579 C   0  0  0  0  0  0  0  0  0  0  0  0
    4.7872    0.0308   -5.6665 C   0  0  0  0  0  0  0  0  0  0  0  0
    5.5865   -0.9070   -4.9873 C   0  0  0  0  0  0  0  0  0  0  0  0
    6.1864   -1.6938   -4.4046 N   0  0  0  0  0  0  0  0  0  0  0  0
    3.5624   -0.5045   -6.1168 C   0  0  0  0  0  0  0  0  0  0  0  0
    2.6012   -0.9874   -6.5183 N   0  0  0  0  0  0  0  0  0  0  0  0
    2.0344    2.1865   -5.9400 C   0  0  0  0  0  0  0  0  0  0  0  0
    0.6726    2.4121   -6.1708 C   0  0  0  0  0  0  0  0  0  0  0  0
    0.1043    3.0385   -7.3633 C   0  0  0  0  0  0  0  0  0  0  0  0
    0.5327    4.2876   -7.8076 C   0  0  0  0  0  0  0  0  0  0  0  0
   -0.0405    4.8616   -8.9247 C   0  0  0  0  0  0  0  0  0  0  0  0
   -1.0459    4.2092   -9.6290 C   0  0  0  0  0  0  0  0  0  0  0  0
   -1.6881    4.8558  -10.8205 C   0  0  0  0  0  0  0  0  0  0  0  0
   -2.8682    5.7252  -10.3812 C   0  0  0  0  0  0  0  0  0  0  0  0
   -1.4806    2.9710   -9.1715 C   0  0  0  0  0  0  0  0  0  0  0  0
   -0.9211    2.3925   -8.0501 C   0  0  0  0  0  0  0  0  0  0  0  0
   -0.1118    1.9420   -5.1132 C   0  0  0  0  0  0  0  0  0  0  0  0
   -1.8367    1.9713   -4.8238 S   0  0  0  0  0  0  0  0  0  0  0  0
   -1.5598    1.2538   -3.2762 C   0  0  0  0  0  0  0  0  0  0  0  0
   -2.2863    0.8614   -2.1451 C   0  0  0  0  0  0  0  0  0  0  0  0
   -3.6507    1.0353   -1.8221 C   0  0  0  0  0  0  0  0  0  0  0  0
   -4.0972    0.6883   -0.5058 C   0  0  0  0  0  0  0  0  0  0  0  0
   -5.3775    0.9655   -0.3165 N   0  0  0  0  0  0  0  0  0  0  0  0
   -5.9716    1.6018   -1.6808 S   0  0  0  0  0  0  0  0  0  0  0  0
   -4.6162    1.5525   -2.5650 N   0  0  0  0  0  0  0  0  0  0  0  0
   -3.1879    0.0706    0.3815 C   0  0  0  0  0  0  0  0  0  0  0  0
   -3.3785   -0.4625    1.6622 C   0  0  0  0  0  0  0  0  0  0  0  0
   -4.6215   -0.5804    2.8587 S   0  0  0  0  0  0  0  0  0  0  0  0
   -3.5141   -1.4899    3.8685 C   0  0  0  0  0  0  0  0  0  0  0  0
   -3.6539   -2.0823    5.1204 C   0  0  0  0  0  0  0  0  0  0  0  0
   -4.8730   -2.0226    5.9201 C   0  0  0  0  0  0  0  0  0  0  0  0
   -5.4197   -3.1665    6.4999 C   0  0  0  0  0  0  0  0  0  0  0  0
   -6.5559   -3.0787    7.2777 C   0  0  0  0  0  0  0  0  0  0  0  0
   -7.1741   -1.8547    7.5028 C   0  0  0  0  0  0  0  0  0  0  0  0
   -8.4175   -1.7673    8.3361 C   0  0  0  0  0  0  0  0  0  0  0  0
   -9.6603   -1.9495    7.4618 C   0  0  0  0  0  0  0  0  0  0  0  0
   -6.6442   -0.7212    6.8973 C   0  0  0  0  0  0  0  0  0  0  0  0
   -5.5137   -0.7995    6.1105 C   0  0  0  0  0  0  0  0  0  0  0  0
   -2.4697   -2.7367    5.5178 C   0  0  0  0  0  0  0  0  0  0  0  0
   -1.2139   -2.6404    4.2847 S   0  0  0  0  0  0  0  0  0  0  0  0
   -2.2516   -1.6907    3.2856 C   0  0  0  0  0  0  0  0  0  0  0  0
   -2.1787   -1.0863    2.0264 C   0  0  0  0  0  0  0  0  0  0  0  0
   -1.2477   -0.9274    1.0358 N   0  0  0  0  0  0  0  0  0  0  0  0
   -1.8359   -0.2016    0.0145 C   0  0  0  0  0  0  0  0  0  0  0  0
   -1.3517    0.3115   -1.2186 C   0  0  0  0  0  0  0  0  0  0  0  0
   -0.0863    0.4107   -1.7707 N   0  0  0  0  0  0  0  0  0  0  0  0
   -0.2105    0.9902   -3.0038 C   0  0  0  0  0  0  0  0  0  0  0  0
    0.6215    1.3989   -4.0473 C   0  0  0  0  0  0  0  0  0  0  0  0
    2.3147    1.4538   -4.3585 S   0  0  0  0  0  0  0  0  0  0  0  0
    1.2162    0.3134   -1.1513 C   0  0  0  0  0  0  0  0  0  0  0  0
    1.3677    1.3096   -0.0047 C   0  0  0  0  0  0  0  0  0  0  0  0
   -0.0693   -1.7677    1.0262 C   0  0  0  0  0  0  0  0  0  0  0  0
   -0.1350   -2.8104   -0.0864 C   0  0  0  0  0  0  0  0  0  0  0  0
   -2.3111   -3.2893    6.7910 C   0  0  0  0  0  0  0  0  0  0  0  0
   -1.2608   -3.9868    7.3405 C   0  0  0  0  0  0  0  0  0  0  0  0
   -0.0246   -4.3607    6.6544 C   0  0  0  0  0  0  0  0  0  0  0  0
    0.3118   -4.0863    5.5150 O   0  0  0  0  0  0  0  0  0  0  0  0
    0.7589   -5.1500    7.6266 C   0  0  0  0  0  0  0  0  0  0  0  0
    1.9931   -5.7405    7.4551 C   0  0  0  0  0  0  0  0  0  0  0  0
    2.5256   -6.4377    8.5337 C   0  0  0  0  0  0  0  0  0  0  0  0
    4.0644   -7.1967    8.3765 Cl  0  0  0  0  0  0  0  0  0  0  0  0
    1.8375   -6.5338    9.7375 C   0  0  0  0  0  0  0  0  0  0  0  0
    0.5969   -5.9349    9.8993 C   0  0  0  0  0  0  0  0  0  0  0  0
    0.0472   -5.2340    8.8360 C   0  0  0  0  0  0  0  0  0  0  0  0
   -1.2143   -4.5080    8.6917 C   0  0  0  0  0  0  0  0  0  0  0  0
   -2.1559   -4.3612    9.6784 C   0  0  0  0  0  0  0  0  0  0  0  0
   -3.3743   -3.6575    9.5746 C   0  0  0  0  0  0  0  0  0  0  0  0
   -4.3872   -3.1148    9.5901 N   0  0  0  0  0  0  0  0  0  0  0  0
   -2.0302   -4.9048   10.9745 C   0  0  0  0  0  0  0  0  0  0  0  0
   -1.9955   -5.3184   12.0450 N   0  0  0  0  0  0  0  0  0  0  0  0
    2.8149    3.2158   -7.6053 H   0  0  0  0  0  0  0  0  0  0  0  0
    7.5524    0.5302   -4.4439 H   0  0  0  0  0  0  0  0  0  0  0  0
    9.7019    1.7085   -4.6790 H   0  0  0  0  0  0  0  0  0  0  0  0
    1.2917    4.8251   -7.2579 H   0  0  0  0  0  0  0  0  0  0  0  0
    0.2990    5.8319   -9.2566 H   0  0  0  0  0  0  0  0  0  0  0  0
   -0.9585    5.4769  -11.3430 H   0  0  0  0  0  0  0  0  0  0  0  0
   -2.0438    4.0895  -11.5114 H   0  0  0  0  0  0  0  0  0  0  0  0
   -3.3367    6.1924  -11.2439 H   0  0  0  0  0  0  0  0  0  0  0  0
   -2.5317    6.5057   -9.7027 H   0  0  0  0  0  0  0  0  0  0  0  0
   -3.6115    5.1216   -9.8658 H   0  0  0  0  0  0  0  0  0  0  0  0
   -2.2658    2.4524   -9.7021 H   0  0  0  0  0  0  0  0  0  0  0  0
   -1.2587    1.4239   -7.7133 H   0  0  0  0  0  0  0  0  0  0  0  0
   -4.9635   -4.1292    6.3173 H   0  0  0  0  0  0  0  0  0  0  0  0
   -6.9636   -3.9722    7.7266 H   0  0  0  0  0  0  0  0  0  0  0  0
   -8.4639   -0.7944    8.8289 H   0  0  0  0  0  0  0  0  0  0  0  0
   -8.3991   -2.5407    9.1056 H   0  0  0  0  0  0  0  0  0  0  0  0
  -10.5621   -1.8820    8.0654 H   0  0  0  0  0  0  0  0  0  0  0  0
   -9.6984   -1.1812    6.6926 H   0  0  0  0  0  0  0  0  0  0  0  0
   -9.6410   -2.9210    6.9731 H   0  0  0  0  0  0  0  0  0  0  0  0
   -7.1177    0.2372    7.0537 H   0  0  0  0  0  0  0  0  0  0  0  0
   -5.1004    0.0927    5.6640 H   0  0  0  0  0  0  0  0  0  0  0  0
    1.9480    0.5451   -1.9290 H   0  0  0  0  0  0  0  0  0  0  0  0
    1.4103   -0.7088   -0.8260 H   0  0  0  0  0  0  0  0  0  0  0  0
    0.6074    1.1538    0.7568 H   0  0  0  0  0  0  0  0  0  0  0  0
    1.2689    2.3257   -0.3796 H   0  0  0  0  0  0  0  0  0  0  0  0
    2.3487    1.2030    0.4501 H   0  0  0  0  0  0  0  0  0  0  0  0
   -0.0435   -2.2757    1.9930 H   0  0  0  0  0  0  0  0  0  0  0  0
    0.8354   -1.1631    0.9591 H   0  0  0  0  0  0  0  0  0  0  0  0
   -0.9958   -3.4580    0.0628 H   0  0  0  0  0  0  0  0  0  0  0  0
    0.7628   -3.4220   -0.0714 H   0  0  0  0  0  0  0  0  0  0  0  0
   -0.2272   -2.3445   -1.0648 H   0  0  0  0  0  0  0  0  0  0  0  0
   -3.1675   -3.1251    7.4337 H   0  0  0  0  0  0  0  0  0  0  0  0
    2.5179   -5.6599    6.5164 H   0  0  0  0  0  0  0  0  0  0  0  0
    2.2767   -7.0826   10.5557 H   0  0  0  0  0  0  0  0  0  0  0  0
    0.0854   -6.0259   10.8431 H   0  0  0  0  0  0  0  0  0  0  0  0
  1  2  2  0  0  0  0
  2  3  1  0  0  0  0
  3  4  2  0  0  0  0
  3  5  1  0  0  0  0
  5  6  2  0  0  0  0
  6  7  1  0  0  0  0
  7  8  2  0  0  0  0
  8  9  1  0  0  0  0
  9 10  1  0  0  0  0
  9 11  2  0  0  0  0
 11 12  1  0  0  0  0
  6 13  1  0  0  0  0
 13 14  2  0  0  0  0
 14 15  1  0  0  0  0
 15 16  3  0  0  0  0
 14 17  1  0  0  0  0
 17 18  3  0  0  0  0
  1 19  1  0  0  0  0
 19 20  2  0  0  0  0
 20 21  1  0  0  0  0
 21 22  2  0  0  0  0
 22 23  1  0  0  0  0
 23 24  2  0  0  0  0
 24 25  1  0  0  0  0
 25 26  1  0  0  0  0
 24 27  1  0  0  0  0
 27 28  2  0  0  0  0
 20 29  1  0  0  0  0
 29 30  1  0  0  0  0
 30 31  1  0  0  0  0
 31 32  1  0  0  0  0
 32 33  1  0  0  0  0
 33 34  1  0  0  0  0
 34 35  2  0  0  0  0
 35 36  1  0  0  0  0
 36 37  1  0  0  0  0
 34 38  1  0  0  0  0
 38 39  1  0  0  0  0
 39 40  1  0  0  0  0
 40 41  1  0  0  0  0
 41 42  1  0  0  0  0
 42 43  1  0  0  0  0
 43 44  2  0  0  0  0
 44 45  1  0  0  0  0
 45 46  2  0  0  0  0
 46 47  1  0  0  0  0
 47 48  1  0  0  0  0
 46 49  1  0  0  0  0
 49 50  2  0  0  0  0
 42 51  2  0  0  0  0
 51 52  1  0  0  0  0
 52 53  1  0  0  0  0
 53 54  1  0  0  0  0
 54 55  1  0  0  0  0
 55 56  1  0  0  0  0
 56 57  1  0  0  0  0
 57 58  1  0  0  0  0
 58 59  1  0  0  0  0
 59 60  1  0  0  0  0
 60 61  1  0  0  0  0
 58 62  1  0  0  0  0
 62 63  1  0  0  0  0
 55 64  1  0  0  0  0
 64 65  1  0  0  0  0
 51 66  1  0  0  0  0
 66 67  2  0  0  0  0
 67 68  1  0  0  0  0
 68 69  2  0  0  0  0
 68 70  1  0  0  0  0
 70 71  2  0  0  0  0
 71 72  1  0  0  0  0
 72 73  1  0  0  0  0
 72 74  2  0  0  0  0
 74 75  1  0  0  0  0
 75 76  2  0  0  0  0
 76 77  1  0  0  0  0
 77 78  2  0  0  0  0
 78 79  1  0  0  0  0
 79 80  3  0  0  0  0
 78 81  1  0  0  0  0
 81 82  3  0  0  0  0
 13  2  1  0  0  0  0
 61 19  1  0  0  0  0
 77 67  1  0  0  0  0
 11  5  1  0  0  0  0
 28 21  1  0  0  0  0
 60 29  2  0  0  0  0
 76 70  1  0  0  0  0
 59 31  2  0  0  0  0
 57 32  2  0  0  0  0
 37 33  2  0  0  0  0
 56 38  2  0  0  0  0
 54 39  2  0  0  0  0
 53 41  2  0  0  0  0
 50 43  1  0  0  0  0
  1 83  1  0  0  0  0
  7 84  1  0  0  0  0
  8 85  1  0  0  0  0
 22 86  1  0  0  0  0
 23 87  1  0  0  0  0
 25 88  1  0  0  0  0
 25 89  1  0  0  0  0
 26 90  1  0  0  0  0
 26 91  1  0  0  0  0
 26 92  1  0  0  0  0
 27 93  1  0  0  0  0
 28 94  1  0  0  0  0
 44 95  1  0  0  0  0
 45 96  1  0  0  0  0
 47 97  1  0  0  0  0
 47 98  1  0  0  0  0
 48 99  1  0  0  0  0
 48100  1  0  0  0  0
 48101  1  0  0  0  0
 49102  1  0  0  0  0
 50103  1  0  0  0  0
 62104  1  0  0  0  0
 62105  1  0  0  0  0
 63106  1  0  0  0  0
 63107  1  0  0  0  0
 63108  1  0  0  0  0
 64109  1  0  0  0  0
 64110  1  0  0  0  0
 65111  1  0  0  0  0
 65112  1  0  0  0  0
 65113  1  0  0  0  0
 66114  1  0  0  0  0
 71115  1  0  0  0  0
 74116  1  0  0  0  0
 75117  1  0  0  0  0
M  END
