104

C          6.51590       -5.27580        3.39520
C          7.66450       -4.83040        4.01180
C          7.96510       -3.48610        4.53310
O          7.28510       -2.47930        4.49690
C          9.30930       -3.58460        5.14730
C          9.80240       -4.89200        4.99750
C         11.05000       -5.22250        5.50250
C         11.78770       -4.24170        6.14880
C         11.29800       -2.95310        6.29220
Br        12.35230       -1.66050        7.18240
C         10.04100       -2.59960        5.79050
Cl         9.43730       -1.00790        5.96930
C          8.80590       -5.68480        4.27730
C          8.98120       -6.99610        3.91270
C         10.13560       -7.75330        4.20570
N         11.04040       -8.43160        4.40480
C          8.07800       -7.80210        3.18660
N          7.42630       -8.54160        2.59620
C          5.33730       -4.62350        3.01600
S          4.11420       -5.64410        2.22130
C          3.09480       -4.28300        2.01740
C          1.87340       -3.90370        1.47750
S          0.56530       -4.67780        0.63630
C         -0.18840       -3.13110        0.53140
C         -1.34830       -2.61820       -0.05260
C         -2.32000       -3.29460       -0.81940
C         -3.36040       -2.52700       -1.42160
N         -4.18690       -3.26770       -2.14430
S         -3.68990       -4.80640       -2.06560
N         -2.40280       -4.58380       -1.11000
C         -3.39990       -1.13950       -1.17200
C         -4.31310       -0.19150       -1.63890
S         -5.62290       -0.10090       -2.73170
C         -5.66980        1.65200       -2.48430
C         -4.80520        2.09870       -1.48340
C         -5.00410        3.42960       -0.82670
C         -5.70610        3.24150        0.52320
C         -3.99000        1.03750       -1.04900
N         -2.88670        0.86290       -0.24270
C         -2.46500       -0.45620       -0.33430
C         -1.37210       -1.21470        0.19470
N         -0.21390       -0.90970        0.89860
C          0.50710       -2.06470        1.11680
C          1.72560       -2.50260        1.68300
N          2.83000       -2.03940        2.36860
C          3.67540       -3.10620        2.55310
C          4.92800       -3.29650        3.10970
C          3.22990       -0.71480        2.78120
C          4.02820        0.00290        1.69290
C          0.26650        0.34530        1.41360
C         -0.21360        0.57760        2.84820
C         -2.26840        2.03130        0.33680
C         -1.38010        2.74840       -0.68150
C         -6.45290        2.40220       -3.38080
C         -6.09070        3.61500       -3.91420
C         -4.70690        4.13790       -3.92410
O         -3.75120        3.76820       -3.27120
C         -4.69340        5.17700       -4.97670
C         -3.62900        5.92380       -5.43040
C         -3.85770        6.85180       -6.44820
C         -2.70090        7.65150       -6.92970
O         -1.59540        7.59170       -6.45120
O         -3.01640        8.44770       -7.95860
C         -1.95530        9.23730       -8.47590
C         -5.13510        7.00620       -6.98440
C         -6.20610        6.25440       -6.52320
C         -5.98560        5.33280       -5.51100
C         -6.88470        4.40680       -4.82630
C         -8.24830        4.35670       -4.95600
C         -8.98760        5.16010       -5.84730
N         -9.63410        5.78760       -6.55870
C         -9.08060        3.52870       -4.17320
N         -9.80930        2.90610       -3.54120
H          6.50590       -6.32920        3.14280
H         11.45920       -6.21380        5.40860
H         12.76110       -4.47990        6.54890
H         -5.64370        4.04780       -1.45460
H         -4.05840        3.95800       -0.70640
H         -5.80360        4.19990        1.02750
H         -5.16300        2.55930        1.17390
H         -6.70160        2.83240        0.36700
H          5.54680       -2.54380        3.56090
H          2.35630       -0.13620        3.08020
H          3.86160       -0.83600        3.66520
H          4.28570        1.00560        2.02230
H          4.94650       -0.54110        1.48760
H          3.46180        0.07200        0.76600
H          1.35490        0.30350        1.38780
H         -0.02330        1.15370        0.74960
H          0.14930        1.53280        3.21990
H          0.14940       -0.21520        3.49940
H         -1.30020        0.56720        2.90530
H         -3.07010        2.70340        0.64120
H         -1.73340        1.76150        1.24120
H         -0.60760        2.08710       -1.07020
H         -0.90670        3.61280       -0.22260
H         -1.97980        3.08410       -1.52480
H         -7.33300        1.90780       -3.77500
H         -2.63880        5.80370       -5.01820
H         -1.55510        9.89100       -7.69820
H         -2.37910        9.82200       -9.28800
H         -1.15060        8.59650       -8.84250
H         -5.28760        7.72540       -7.77360
H         -7.18320        6.38870       -6.95840
