95

C          3.04620       -5.46070       -5.62780
C          3.58620       -6.72520       -5.69620
C          3.58830       -7.70950       -4.61290
O          3.11540       -7.58990       -3.49890
C          4.28720       -8.89900       -5.14850
C          4.68010       -8.64740       -6.47610
C          5.36090       -9.61910       -7.19110
C          5.63890      -10.82890       -6.57060
C          5.24850      -11.07160       -5.26330
Br         5.65750      -12.73980       -4.47580
C          4.56050      -10.10350       -4.52210
Cl         4.07890      -10.39710       -2.90590
C          4.25140       -7.29670       -6.84370
C          4.46720       -6.71190       -8.06780
C          4.07040       -5.41230       -8.44280
N          3.78700       -4.36820       -8.83130
C          5.13030       -7.33930       -9.14240
N          5.65900       -7.78700      -10.05830
C          2.41120       -4.78960       -4.58040
S          2.09170       -5.42140       -2.96110
C          1.38210       -3.92050       -2.51860
C          0.77340       -3.28240       -1.44240
S          0.27660       -3.67430        0.17870
C         -0.34240       -2.06930        0.32030
C         -0.98050       -1.29640        1.30200
C         -1.30640       -1.57730        2.64750
C         -1.84310       -0.52640        3.46350
N         -2.04270       -0.91030        4.71480
S         -1.59810       -2.46050        4.85250
N         -1.13450       -2.70310        3.32220
C         -2.14230        0.71600        2.86290
C         -2.74700        1.87380        3.36540
S         -3.26750        2.49940        4.86780
C         -3.73210        4.00020        4.06570
C         -3.51600        3.98720        2.69480
C         -3.82400        5.18370        1.84430
C         -5.25150        5.12810        1.29110
C         -2.93340        2.76770        2.30110
N         -2.43480        2.19470        1.15090
C         -1.90990        0.95590        1.48200
C         -1.20120       -0.01570        0.73410
N         -0.65840        0.00860       -0.54730
C         -0.16070       -1.25550       -0.80800
C          0.45520       -1.96130       -1.85410
N          0.82630       -1.79420       -3.16930
C          1.39800       -2.97540       -3.57890
C          1.96600       -3.46790       -4.73420
C          0.56920       -0.69690       -4.06940
C          1.82290        0.13800       -4.32900
C         -0.05270        1.16780       -1.17800
C          0.69320        2.05380       -0.18370
C         -2.82350        2.63750       -0.17060
C         -3.60630        1.56820       -0.92910
C         -4.31640        5.04730        4.82840
C         -4.06890        5.35820        6.12590
C         -5.05240        6.16180        6.91500
O         -6.00000        6.77210        6.47540
C         -4.62520        5.99670        8.31160
C         -5.06260        6.37620        9.59200
C         -4.19970        5.93890       10.55290
S         -2.83990        5.07360        9.93090
C         -3.43690        5.27660        8.33920
C         -2.98350        4.96330        7.01130
C         -1.69780        4.62220        6.67570
C         -0.73440        4.35370        7.66880
N          0.05200        4.13010        8.47390
C         -1.19810        4.61820        5.35960
N         -0.73670        4.67270        4.30920
H          3.12500       -4.85990       -6.52560
H          5.67820       -9.46110       -8.20790
H          6.16860      -11.59850       -7.11050
H         -3.71210        6.08340        2.45020
H         -3.10250        5.25620        1.02890
H         -5.41620        4.22770        0.70240
H         -5.44210        5.99330        0.66100
H         -5.97270        5.12970        2.10430
H          2.08040       -2.93560       -5.66170
H         -0.23370       -0.08300       -3.65640
H          0.21650       -1.11750       -5.01700
H          2.22700        0.54290       -3.40370
H          1.58720        0.96200       -4.99670
H          2.59180       -0.47530       -4.79100
H         -0.79940        1.74040       -1.73540
H          0.67300        0.78410       -1.89370
H          0.02950        2.49450        0.55360
H          1.19490        2.85530       -0.72010
H          1.44300        1.46810        0.34370
H         -3.46540        3.50570       -0.03920
H         -1.94920        2.96250       -0.73940
H         -3.93150        1.96560       -1.88730
H         -4.48560        1.27680       -0.35880
H         -3.00730        0.67950       -1.10550
H         -5.10700        5.62270        4.35740
H         -5.95550        6.93970        9.78920
H         -4.27480        6.08100       11.61330
