
  xtb     02012216183D
 energy: -220.195337543722 gnorm: 0.000576065174 xtb: 6.4.1 (unknown)
136147  0     0  0            999 V2000
   -1.1920    3.7267   -4.9434 C   0  0  0  0  0  0  0  0  0  0  0  0
   -1.7357    4.0726   -6.1558 C   0  0  0  0  0  0  0  0  0  0  0  0
   -2.4998    3.2112   -7.0785 C   0  0  0  0  0  0  0  0  0  0  0  0
   -2.7260    2.0231   -6.9956 O   0  0  0  0  0  0  0  0  0  0  0  0
   -2.9673    4.1068   -8.1631 C   0  0  0  0  0  0  0  0  0  0  0  0
   -2.4948    5.4110   -7.9358 C   0  0  0  0  0  0  0  0  0  0  0  0
   -2.8200    6.4285   -8.8188 C   0  0  0  0  0  0  0  0  0  0  0  0
   -3.6115    6.1279   -9.9175 C   0  0  0  0  0  0  0  0  0  0  0  0
   -4.0716    4.8395  -10.1395 C   0  0  0  0  0  0  0  0  0  0  0  0
   -5.1458    4.4945  -11.6555 Br  0  0  0  0  0  0  0  0  0  0  0  0
   -3.7553    3.7983   -9.2601 C   0  0  0  0  0  0  0  0  0  0  0  0
   -4.3241    2.2073   -9.5328 Cl  0  0  0  0  0  0  0  0  0  0  0  0
   -1.6975    5.4114   -6.7094 C   0  0  0  0  0  0  0  0  0  0  0  0
   -1.0220    6.5023   -6.2235 C   0  0  0  0  0  0  0  0  0  0  0  0
   -1.0292    7.7760   -6.8307 C   0  0  0  0  0  0  0  0  0  0  0  0
   -0.9891    8.8383   -7.2646 N   0  0  0  0  0  0  0  0  0  0  0  0
   -0.2050    6.5391   -5.0734 C   0  0  0  0  0  0  0  0  0  0  0  0
    0.4837    6.6736   -4.1638 N   0  0  0  0  0  0  0  0  0  0  0  0
   -1.1378    2.5027   -4.2623 C   0  0  0  0  0  0  0  0  0  0  0  0
   -0.5707    2.5682   -3.0043 O   0  0  0  0  0  0  0  0  0  0  0  0
   -0.6114    1.3386   -2.5147 C   0  0  0  0  0  0  0  0  0  0  0  0
   -0.2486    0.6844   -1.3010 C   0  0  0  0  0  0  0  0  0  0  0  0
   -0.6011   -0.6796   -1.4675 C   0  0  0  0  0  0  0  0  0  0  0  0
   -1.1982   -0.9452   -2.8447 C   0  0  0  0  0  0  0  0  0  0  0  0
   -2.5842   -1.5369   -2.6660 C   0  0  0  0  0  0  0  0  0  0  0  0
   -3.7009   -0.7214   -2.5522 C   0  0  0  0  0  0  0  0  0  0  0  0
   -4.9542   -1.2717   -2.3554 C   0  0  0  0  0  0  0  0  0  0  0  0
   -5.1239   -2.6460   -2.2618 C   0  0  0  0  0  0  0  0  0  0  0  0
   -6.4787   -3.2428   -2.0115 C   0  0  0  0  0  0  0  0  0  0  0  0
   -6.6934   -3.4756   -0.5147 C   0  0  0  0  0  0  0  0  0  0  0  0
   -4.0004   -3.4570   -2.3610 C   0  0  0  0  0  0  0  0  0  0  0  0
   -2.7461   -2.9124   -2.5584 C   0  0  0  0  0  0  0  0  0  0  0  0
   -0.3329   -1.8193   -3.7367 C   0  0  0  0  0  0  0  0  0  0  0  0
   -0.8442   -2.2224   -4.9652 C   0  0  0  0  0  0  0  0  0  0  0  0
   -0.0838   -2.9931   -5.8216 C   0  0  0  0  0  0  0  0  0  0  0  0
    1.2074   -3.3772   -5.4786 C   0  0  0  0  0  0  0  0  0  0  0  0
    2.0449   -4.1810   -6.4308 C   0  0  0  0  0  0  0  0  0  0  0  0
    2.7677   -3.2592   -7.4151 C   0  0  0  0  0  0  0  0  0  0  0  0
    1.7175   -2.9571   -4.2587 C   0  0  0  0  0  0  0  0  0  0  0  0
    0.9602   -2.1839   -3.3955 C   0  0  0  0  0  0  0  0  0  0  0  0
   -1.1909    0.4441   -3.4164 C   0  0  0  0  0  0  0  0  0  0  0  0
   -1.5239    1.1813   -4.5404 C   0  0  0  0  0  0  0  0  0  0  0  0
   -0.4215   -1.5788   -0.4417 C   0  0  0  0  0  0  0  0  0  0  0  0
    0.1250   -1.0957    0.7450 C   0  0  0  0  0  0  0  0  0  0  0  0
    0.4445   -1.7378    1.9800 C   0  0  0  0  0  0  0  0  0  0  0  0
    0.9994   -0.8436    2.8847 C   0  0  0  0  0  0  0  0  0  0  0  0
    1.0730    0.5334    2.2891 C   0  0  0  0  0  0  0  0  0  0  0  0
    0.4869    0.2673    0.9073 C   0  0  0  0  0  0  0  0  0  0  0  0
    0.3093    1.1659   -0.1175 C   0  0  0  0  0  0  0  0  0  0  0  0
    0.2427    1.4687    3.1495 C   0  0  0  0  0  0  0  0  0  0  0  0
   -1.0418    1.8577    2.8015 C   0  0  0  0  0  0  0  0  0  0  0  0
   -1.7700    2.6873    3.6362 C   0  0  0  0  0  0  0  0  0  0  0  0
   -1.2419    3.1362    4.8382 C   0  0  0  0  0  0  0  0  0  0  0  0
   -2.0155    4.0779    5.7151 C   0  0  0  0  0  0  0  0  0  0  0  0
   -1.7113    5.5292    5.3375 C   0  0  0  0  0  0  0  0  0  0  0  0
    0.0395    2.7289    5.1888 C   0  0  0  0  0  0  0  0  0  0  0  0
    0.7717    1.9030    4.3593 C   0  0  0  0  0  0  0  0  0  0  0  0
    2.4876    1.0557    2.1092 C   0  0  0  0  0  0  0  0  0  0  0  0
    2.7078    2.4154    1.9284 C   0  0  0  0  0  0  0  0  0  0  0  0
    3.9860    2.8970    1.7197 C   0  0  0  0  0  0  0  0  0  0  0  0
    5.0761    2.0369    1.6851 C   0  0  0  0  0  0  0  0  0  0  0  0
    6.4580    2.5578    1.4148 C   0  0  0  0  0  0  0  0  0  0  0  0
    6.7353    2.5768   -0.0899 C   0  0  0  0  0  0  0  0  0  0  0  0
    4.8493    0.6784    1.8589 C   0  0  0  0  0  0  0  0  0  0  0  0
    3.5717    0.1908    2.0649 C   0  0  0  0  0  0  0  0  0  0  0  0
    1.2433   -1.5648    4.0520 C   0  0  0  0  0  0  0  0  0  0  0  0
    0.8340   -2.8685    3.7855 C   0  0  0  0  0  0  0  0  0  0  0  0
    0.3427   -2.9578    2.5029 O   0  0  0  0  0  0  0  0  0  0  0  0
    0.8378   -4.1089    4.4828 C   0  0  0  0  0  0  0  0  0  0  0  0
    1.2397   -4.4563    5.7263 C   0  0  0  0  0  0  0  0  0  0  0  0
    1.6907   -3.4999    6.7447 C   0  0  0  0  0  0  0  0  0  0  0  0
    1.3841   -2.3278    6.7673 O   0  0  0  0  0  0  0  0  0  0  0  0
    2.4811   -4.0110    7.7865 N   0  0  0  0  0  0  0  0  0  0  0  0
    2.7754   -3.1026    8.8930 C   0  0  0  0  0  0  0  0  0  0  0  0
    1.6556   -3.1218    9.9247 C   0  0  0  0  0  0  0  0  0  0  0  0
    3.0190   -5.2671    7.8482 C   0  0  0  0  0  0  0  0  0  0  0  0
    3.6900   -5.6523    8.7729 O   0  0  0  0  0  0  0  0  0  0  0  0
    2.7017   -6.1570    6.6482 C   0  0  0  0  0  0  0  0  0  0  0  0
    3.6281   -5.8329    5.5899 C   0  0  0  0  0  0  0  0  0  0  0  0
    4.3499   -5.5519    4.7498 N   0  0  0  0  0  0  0  0  0  0  0  0
    1.2559   -5.8975    6.1872 C   0  0  0  0  0  0  0  0  0  0  0  0
    0.8260   -6.9361    5.1590 C   0  0  0  0  0  0  0  0  0  0  0  0
   -0.7289    4.5220   -4.3715 H   0  0  0  0  0  0  0  0  0  0  0  0
   -2.4803    7.4399   -8.6738 H   0  0  0  0  0  0  0  0  0  0  0  0
   -3.8776    6.9068  -10.6153 H   0  0  0  0  0  0  0  0  0  0  0  0
   -3.5955    0.3513   -2.6249 H   0  0  0  0  0  0  0  0  0  0  0  0
   -5.8139   -0.6215   -2.2783 H   0  0  0  0  0  0  0  0  0  0  0  0
   -6.5664   -4.1948   -2.5392 H   0  0  0  0  0  0  0  0  0  0  0  0
   -7.2539   -2.5718   -2.3864 H   0  0  0  0  0  0  0  0  0  0  0  0
   -6.6182   -2.5361    0.0285 H   0  0  0  0  0  0  0  0  0  0  0  0
   -5.9397   -4.1562   -0.1250 H   0  0  0  0  0  0  0  0  0  0  0  0
   -7.6762   -3.9045   -0.3334 H   0  0  0  0  0  0  0  0  0  0  0  0
   -4.1099   -4.5298   -2.2891 H   0  0  0  0  0  0  0  0  0  0  0  0
   -1.8872   -3.5621   -2.6463 H   0  0  0  0  0  0  0  0  0  0  0  0
   -1.8473   -1.9352   -5.2442 H   0  0  0  0  0  0  0  0  0  0  0  0
   -0.4980   -3.3035   -6.7700 H   0  0  0  0  0  0  0  0  0  0  0  0
    1.4101   -4.8734   -6.9876 H   0  0  0  0  0  0  0  0  0  0  0  0
    2.7823   -4.7639   -5.8754 H   0  0  0  0  0  0  0  0  0  0  0  0
    3.3728   -3.8406   -8.1069 H   0  0  0  0  0  0  0  0  0  0  0  0
    3.4168   -2.5695   -6.8801 H   0  0  0  0  0  0  0  0  0  0  0  0
    2.0483   -2.6772   -7.9866 H   0  0  0  0  0  0  0  0  0  0  0  0
    2.7216   -3.2383   -3.9748 H   0  0  0  0  0  0  0  0  0  0  0  0
    1.3831   -1.8684   -2.4530 H   0  0  0  0  0  0  0  0  0  0  0  0
   -1.9883    0.8547   -5.4468 H   0  0  0  0  0  0  0  0  0  0  0  0
   -0.6917   -2.6182   -0.5431 H   0  0  0  0  0  0  0  0  0  0  0  0
    0.5769    2.2060   -0.0183 H   0  0  0  0  0  0  0  0  0  0  0  0
   -1.4808    1.5155    1.8757 H   0  0  0  0  0  0  0  0  0  0  0  0
   -2.7678    2.9862    3.3474 H   0  0  0  0  0  0  0  0  0  0  0  0
   -1.7474    3.9145    6.7607 H   0  0  0  0  0  0  0  0  0  0  0  0
   -3.0860    3.8939    5.6035 H   0  0  0  0  0  0  0  0  0  0  0  0
   -2.2693    6.2133    5.9726 H   0  0  0  0  0  0  0  0  0  0  0  0
   -1.9846    5.7157    4.3013 H   0  0  0  0  0  0  0  0  0  0  0  0
   -0.6495    5.7352    5.4531 H   0  0  0  0  0  0  0  0  0  0  0  0
    0.4668    3.0596    6.1245 H   0  0  0  0  0  0  0  0  0  0  0  0
    1.7664    1.5949    4.6458 H   0  0  0  0  0  0  0  0  0  0  0  0
    1.8758    3.1035    1.9663 H   0  0  0  0  0  0  0  0  0  0  0  0
    4.1398    3.9582    1.5851 H   0  0  0  0  0  0  0  0  0  0  0  0
    7.1964    1.9231    1.9088 H   0  0  0  0  0  0  0  0  0  0  0  0
    6.5567    3.5702    1.8112 H   0  0  0  0  0  0  0  0  0  0  0  0
    7.7361    2.9535   -0.2878 H   0  0  0  0  0  0  0  0  0  0  0  0
    6.0166    3.2148   -0.5991 H   0  0  0  0  0  0  0  0  0  0  0  0
    6.6535    1.5734   -0.5021 H   0  0  0  0  0  0  0  0  0  0  0  0
    5.6827   -0.0091    1.8362 H   0  0  0  0  0  0  0  0  0  0  0  0
    3.4218   -0.8706    2.1987 H   0  0  0  0  0  0  0  0  0  0  0  0
    1.6453   -1.2132    4.9774 H   0  0  0  0  0  0  0  0  0  0  0  0
    0.4746   -4.9027    3.8430 H   0  0  0  0  0  0  0  0  0  0  0  0
    2.8880   -2.1011    8.4744 H   0  0  0  0  0  0  0  0  0  0  0  0
    3.7151   -3.4292    9.3404 H   0  0  0  0  0  0  0  0  0  0  0  0
    1.8963   -2.4417   10.7365 H   0  0  0  0  0  0  0  0  0  0  0  0
    0.7201   -2.8044    9.4696 H   0  0  0  0  0  0  0  0  0  0  0  0
    1.5344   -4.1227   10.3330 H   0  0  0  0  0  0  0  0  0  0  0  0
    2.8590   -7.1984    6.9491 H   0  0  0  0  0  0  0  0  0  0  0  0
    0.6053   -5.9911    7.0680 H   0  0  0  0  0  0  0  0  0  0  0  0
    0.8906   -7.9295    5.5989 H   0  0  0  0  0  0  0  0  0  0  0  0
   -0.2042   -6.7724    4.8531 H   0  0  0  0  0  0  0  0  0  0  0  0
    1.4719   -6.9077    4.2839 H   0  0  0  0  0  0  0  0  0  0  0  0
  1  2  2  0  0  0  0
  2  3  1  0  0  0  0
  3  4  2  0  0  0  0
  3  5  1  0  0  0  0
  5  6  2  0  0  0  0
  6  7  1  0  0  0  0
  7  8  2  0  0  0  0
  8  9  1  0  0  0  0
  9 10  1  0  0  0  0
  9 11  2  0  0  0  0
 11 12  1  0  0  0  0
  6 13  1  0  0  0  0
 13 14  2  0  0  0  0
 14 15  1  0  0  0  0
 15 16  3  0  0  0  0
 14 17  1  0  0  0  0
 17 18  3  0  0  0  0
  1 19  1  0  0  0  0
 19 20  1  0  0  0  0
 20 21  1  0  0  0  0
 21 22  1  0  0  0  0
 22 23  2  0  0  0  0
 23 24  1  0  0  0  0
 24 25  1  0  0  0  0
 25 26  2  0  0  0  0
 26 27  1  0  0  0  0
 27 28  2  0  0  0  0
 28 29  1  0  0  0  0
 29 30  1  0  0  0  0
 28 31  1  0  0  0  0
 31 32  2  0  0  0  0
 24 33  1  0  0  0  0
 33 34  2  0  0  0  0
 34 35  1  0  0  0  0
 35 36  2  0  0  0  0
 36 37  1  0  0  0  0
 37 38  1  0  0  0  0
 36 39  1  0  0  0  0
 39 40  2  0  0  0  0
 24 41  1  0  0  0  0
 41 42  1  0  0  0  0
 23 43  1  0  0  0  0
 43 44  2  0  0  0  0
 44 45  1  0  0  0  0
 45 46  2  0  0  0  0
 46 47  1  0  0  0  0
 47 48  1  0  0  0  0
 48 49  2  0  0  0  0
 47 50  1  0  0  0  0
 50 51  2  0  0  0  0
 51 52  1  0  0  0  0
 52 53  2  0  0  0  0
 53 54  1  0  0  0  0
 54 55  1  0  0  0  0
 53 56  1  0  0  0  0
 56 57  2  0  0  0  0
 47 58  1  0  0  0  0
 58 59  2  0  0  0  0
 59 60  1  0  0  0  0
 60 61  2  0  0  0  0
 61 62  1  0  0  0  0
 62 63  1  0  0  0  0
 61 64  1  0  0  0  0
 64 65  2  0  0  0  0
 46 66  1  0  0  0  0
 66 67  2  0  0  0  0
 67 68  1  0  0  0  0
 67 69  1  0  0  0  0
 69 70  2  0  0  0  0
 70 71  1  0  0  0  0
 71 72  2  0  0  0  0
 71 73  1  0  0  0  0
 73 74  1  0  0  0  0
 74 75  1  0  0  0  0
 73 76  1  0  0  0  0
 76 77  2  0  0  0  0
 76 78  1  0  0  0  0
 78 79  1  0  0  0  0
 79 80  3  0  0  0  0
 78 81  1  0  0  0  0
 81 82  1  0  0  0  0
 13  2  1  0  0  0  0
 42 19  2  0  0  0  0
 48 44  1  0  0  0  0
 57 50  1  0  0  0  0
 65 58  1  0  0  0  0
 81 70  1  0  0  0  0
 11  5  1  0  0  0  0
 41 21  2  0  0  0  0
 68 45  1  0  0  0  0
 49 22  1  0  0  0  0
 32 25  1  0  0  0  0
 40 33  1  0  0  0  0
  1 83  1  0  0  0  0
  7 84  1  0  0  0  0
  8 85  1  0  0  0  0
 26 86  1  0  0  0  0
 27 87  1  0  0  0  0
 29 88  1  0  0  0  0
 29 89  1  0  0  0  0
 30 90  1  0  0  0  0
 30 91  1  0  0  0  0
 30 92  1  0  0  0  0
 31 93  1  0  0  0  0
 32 94  1  0  0  0  0
 34 95  1  0  0  0  0
 35 96  1  0  0  0  0
 37 97  1  0  0  0  0
 37 98  1  0  0  0  0
 38 99  1  0  0  0  0
 38100  1  0  0  0  0
 38101  1  0  0  0  0
 39102  1  0  0  0  0
 40103  1  0  0  0  0
 42104  1  0  0  0  0
 43105  1  0  0  0  0
 49106  1  0  0  0  0
 51107  1  0  0  0  0
 52108  1  0  0  0  0
 54109  1  0  0  0  0
 54110  1  0  0  0  0
 55111  1  0  0  0  0
 55112  1  0  0  0  0
 55113  1  0  0  0  0
 56114  1  0  0  0  0
 57115  1  0  0  0  0
 59116  1  0  0  0  0
 60117  1  0  0  0  0
 62118  1  0  0  0  0
 62119  1  0  0  0  0
 63120  1  0  0  0  0
 63121  1  0  0  0  0
 63122  1  0  0  0  0
 64123  1  0  0  0  0
 65124  1  0  0  0  0
 66125  1  0  0  0  0
 69126  1  0  0  0  0
 74127  1  0  0  0  0
 74128  1  0  0  0  0
 75129  1  0  0  0  0
 75130  1  0  0  0  0
 75131  1  0  0  0  0
 78132  1  0  0  0  0
 81133  1  0  0  0  0
 82134  1  0  0  0  0
 82135  1  0  0  0  0
 82136  1  0  0  0  0
M  END
