
  xtb     01262216553D
 energy: -221.097408284108 gnorm: 0.000342748730 xtb: 6.4.1 (unknown)
124137  0     0  0            999 V2000
   -7.9291    4.2120    2.6418 C   0  0  0  0  0  0  0  0  0  0  0  0
   -9.1907    3.7882    2.2979 C   0  0  0  0  0  0  0  0  0  0  0  0
   -9.5048    2.7739    1.2883 C   0  0  0  0  0  0  0  0  0  0  0  0
   -8.7291    2.1808    0.5627 O   0  0  0  0  0  0  0  0  0  0  0  0
  -10.9733    2.6113    1.3193 C   0  0  0  0  0  0  0  0  0  0  0  0
  -11.5189    3.4891    2.2743 C   0  0  0  0  0  0  0  0  0  0  0  0
  -12.8884    3.5166    2.4831 C   0  0  0  0  0  0  0  0  0  0  0  0
  -13.6921    2.6660    1.7376 C   0  0  0  0  0  0  0  0  0  0  0  0
  -13.1492    1.8016    0.7997 C   0  0  0  0  0  0  0  0  0  0  0  0
  -14.2974    0.6649   -0.1805 Br  0  0  0  0  0  0  0  0  0  0  0  0
  -11.7691    1.7591    0.5714 C   0  0  0  0  0  0  0  0  0  0  0  0
  -11.0929    0.6937   -0.5838 Cl  0  0  0  0  0  0  0  0  0  0  0  0
  -10.4287    4.2432    2.8947 C   0  0  0  0  0  0  0  0  0  0  0  0
  -10.5901    5.1998    3.8642 C   0  0  0  0  0  0  0  0  0  0  0  0
  -11.8374    5.5833    4.4012 C   0  0  0  0  0  0  0  0  0  0  0  0
  -12.8156    5.9408    4.8839 N   0  0  0  0  0  0  0  0  0  0  0  0
   -9.5569    5.9452    4.4704 C   0  0  0  0  0  0  0  0  0  0  0  0
   -8.7821    6.5959    5.0145 N   0  0  0  0  0  0  0  0  0  0  0  0
   -6.6730    3.8158    2.1681 C   0  0  0  0  0  0  0  0  0  0  0  0
   -5.4886    4.3319    2.7072 C   0  0  0  0  0  0  0  0  0  0  0  0
   -4.3648    3.7773    2.1328 C   0  0  0  0  0  0  0  0  0  0  0  0
   -2.6510    3.9669    2.3984 S   0  0  0  0  0  0  0  0  0  0  0  0
   -2.3573    2.7728    1.1798 C   0  0  0  0  0  0  0  0  0  0  0  0
   -1.1954    2.1311    0.6498 C   0  0  0  0  0  0  0  0  0  0  0  0
    0.1555    2.2956    0.9487 C   0  0  0  0  0  0  0  0  0  0  0  0
    1.0536    1.4723    0.3074 C   0  0  0  0  0  0  0  0  0  0  0  0
    2.5585    1.3770    0.4858 C   0  0  0  0  0  0  0  0  0  0  0  0
    3.3094    2.6314    0.0741 C   0  0  0  0  0  0  0  0  0  0  0  0
    2.6769    3.6630   -0.6070 C   0  0  0  0  0  0  0  0  0  0  0  0
    3.3871    4.7754   -1.0210 C   0  0  0  0  0  0  0  0  0  0  0  0
    4.7495    4.8857   -0.7813 C   0  0  0  0  0  0  0  0  0  0  0  0
    5.5106    6.1116   -1.1941 C   0  0  0  0  0  0  0  0  0  0  0  0
    5.4904    7.1544   -0.0744 C   0  0  0  0  0  0  0  0  0  0  0  0
    5.3825    3.8466   -0.1121 C   0  0  0  0  0  0  0  0  0  0  0  0
    4.6764    2.7354    0.3061 C   0  0  0  0  0  0  0  0  0  0  0  0
    2.9261    0.8955    1.9102 C   0  0  0  0  0  0  0  0  0  0  0  0
    2.7904    1.9576    2.9925 C   0  0  0  0  0  0  0  0  0  0  0  0
    2.8863    0.2736   -0.4888 C   0  0  0  0  0  0  0  0  0  0  0  0
    1.7415   -0.1783   -1.1239 C   0  0  0  0  0  0  0  0  0  0  0  0
    0.5972    0.5330   -0.6508 C   0  0  0  0  0  0  0  0  0  0  0  0
   -0.7492    0.3925   -0.9767 C   0  0  0  0  0  0  0  0  0  0  0  0
   -1.6466    1.1880   -0.3039 C   0  0  0  0  0  0  0  0  0  0  0  0
   -3.1548    1.2259   -0.4404 C   0  0  0  0  0  0  0  0  0  0  0  0
   -3.5469    1.6754   -1.8652 C   0  0  0  0  0  0  0  0  0  0  0  0
   -2.8508    2.9612   -2.2958 C   0  0  0  0  0  0  0  0  0  0  0  0
   -3.8301   -0.0862   -0.0683 C   0  0  0  0  0  0  0  0  0  0  0  0
   -5.1885   -0.2684   -0.3015 C   0  0  0  0  0  0  0  0  0  0  0  0
   -5.8149   -1.4477    0.0519 C   0  0  0  0  0  0  0  0  0  0  0  0
   -5.1092   -2.4823    0.6515 C   0  0  0  0  0  0  0  0  0  0  0  0
   -5.8022   -3.7500    1.0589 C   0  0  0  0  0  0  0  0  0  0  0  0
   -6.4255   -3.5965    2.4476 C   0  0  0  0  0  0  0  0  0  0  0  0
   -3.7599   -2.2882    0.9089 C   0  0  0  0  0  0  0  0  0  0  0  0
   -3.1294   -1.1073    0.5604 C   0  0  0  0  0  0  0  0  0  0  0  0
   -3.5043    2.2685    0.5871 C   0  0  0  0  0  0  0  0  0  0  0  0
   -4.6584    2.8285    1.1265 C   0  0  0  0  0  0  0  0  0  0  0  0
   -6.3526    2.6302    0.9061 S   0  0  0  0  0  0  0  0  0  0  0  0
    2.0030   -1.4800   -2.2315 S   0  0  0  0  0  0  0  0  0  0  0  0
    3.6961   -1.4533   -1.8269 C   0  0  0  0  0  0  0  0  0  0  0  0
    4.7739   -2.2356   -2.2092 C   0  0  0  0  0  0  0  0  0  0  0  0
    5.9451   -1.8559   -1.5693 C   0  0  0  0  0  0  0  0  0  0  0  0
    5.6806   -0.4701   -0.4983 S   0  0  0  0  0  0  0  0  0  0  0  0
    4.0079   -0.4473   -0.8855 C   0  0  0  0  0  0  0  0  0  0  0  0
    7.2594   -2.3502   -1.6110 C   0  0  0  0  0  0  0  0  0  0  0  0
    7.7860   -3.4840   -2.1748 C   0  0  0  0  0  0  0  0  0  0  0  0
    7.0700   -4.6144   -2.8054 C   0  0  0  0  0  0  0  0  0  0  0  0
    5.9055   -4.6914   -3.1402 O   0  0  0  0  0  0  0  0  0  0  0  0
    8.0707   -5.6916   -2.9455 C   0  0  0  0  0  0  0  0  0  0  0  0
    7.8845   -6.9640   -3.4025 C   0  0  0  0  0  0  0  0  0  0  0  0
    8.9842   -7.8500   -3.4296 C   0  0  0  0  0  0  0  0  0  0  0  0
    8.8481   -9.1754   -3.8858 C   0  0  0  0  0  0  0  0  0  0  0  0
    9.9268  -10.0145   -3.8925 C   0  0  0  0  0  0  0  0  0  0  0  0
    9.7956  -11.2763   -4.3253 F   0  0  0  0  0  0  0  0  0  0  0  0
   11.1856   -9.5660   -3.4449 C   0  0  0  0  0  0  0  0  0  0  0  0
   12.2248  -10.4117   -3.4609 F   0  0  0  0  0  0  0  0  0  0  0  0
   11.3492   -8.2849   -2.9981 C   0  0  0  0  0  0  0  0  0  0  0  0
   10.2570   -7.3942   -2.9791 C   0  0  0  0  0  0  0  0  0  0  0  0
   10.4185   -6.0671   -2.5192 C   0  0  0  0  0  0  0  0  0  0  0  0
    9.3385   -5.2242   -2.5056 C   0  0  0  0  0  0  0  0  0  0  0  0
    9.1950   -3.8308   -2.0939 C   0  0  0  0  0  0  0  0  0  0  0  0
   10.2341   -3.0000   -1.7625 C   0  0  0  0  0  0  0  0  0  0  0  0
   10.1319   -1.6250   -1.4617 C   0  0  0  0  0  0  0  0  0  0  0  0
   10.1446   -0.5004   -1.2278 N   0  0  0  0  0  0  0  0  0  0  0  0
   11.5838   -3.4088   -1.7190 C   0  0  0  0  0  0  0  0  0  0  0  0
   12.6984   -3.6776   -1.6605 N   0  0  0  0  0  0  0  0  0  0  0  0
   -7.8674    4.9620    3.4211 H   0  0  0  0  0  0  0  0  0  0  0  0
  -13.3419    4.1750    3.2045 H   0  0  0  0  0  0  0  0  0  0  0  0
  -14.7608    2.6721    1.8869 H   0  0  0  0  0  0  0  0  0  0  0  0
   -5.4823    5.0684    3.4905 H   0  0  0  0  0  0  0  0  0  0  0  0
    0.4677    3.0500    1.6531 H   0  0  0  0  0  0  0  0  0  0  0  0
    1.6205    3.6022   -0.8225 H   0  0  0  0  0  0  0  0  0  0  0  0
    2.8720    5.5668   -1.5468 H   0  0  0  0  0  0  0  0  0  0  0  0
    6.5452    5.8457   -1.4189 H   0  0  0  0  0  0  0  0  0  0  0  0
    5.0637    6.5403   -2.0933 H   0  0  0  0  0  0  0  0  0  0  0  0
    5.9393    6.7479    0.8291 H   0  0  0  0  0  0  0  0  0  0  0  0
    4.4674    7.4462    0.1531 H   0  0  0  0  0  0  0  0  0  0  0  0
    6.0469    8.0404   -0.3703 H   0  0  0  0  0  0  0  0  0  0  0  0
    6.4444    3.9021    0.0787 H   0  0  0  0  0  0  0  0  0  0  0  0
    5.2058    1.9439    0.8140 H   0  0  0  0  0  0  0  0  0  0  0  0
    2.2885    0.0411    2.1513 H   0  0  0  0  0  0  0  0  0  0  0  0
    3.9566    0.5365    1.8888 H   0  0  0  0  0  0  0  0  0  0  0  0
    3.3004    2.8726    2.7006 H   0  0  0  0  0  0  0  0  0  0  0  0
    1.7477    2.1843    3.1939 H   0  0  0  0  0  0  0  0  0  0  0  0
    3.2376    1.5943    3.9150 H   0  0  0  0  0  0  0  0  0  0  0  0
   -1.0657   -0.3313   -1.7123 H   0  0  0  0  0  0  0  0  0  0  0  0
   -3.2961    0.8694   -2.5572 H   0  0  0  0  0  0  0  0  0  0  0  0
   -4.6245    1.8322   -1.9029 H   0  0  0  0  0  0  0  0  0  0  0  0
   -3.1863    3.2449   -3.2903 H   0  0  0  0  0  0  0  0  0  0  0  0
   -3.0852    3.7743   -1.6120 H   0  0  0  0  0  0  0  0  0  0  0  0
   -1.7708    2.8347   -2.3220 H   0  0  0  0  0  0  0  0  0  0  0  0
   -5.7784    0.5115   -0.7566 H   0  0  0  0  0  0  0  0  0  0  0  0
   -6.8707   -1.5638   -0.1444 H   0  0  0  0  0  0  0  0  0  0  0  0
   -5.0875   -4.5752    1.0734 H   0  0  0  0  0  0  0  0  0  0  0  0
   -6.5867   -3.9893    0.3381 H   0  0  0  0  0  0  0  0  0  0  0  0
   -5.6571   -3.3731    3.1846 H   0  0  0  0  0  0  0  0  0  0  0  0
   -6.9325   -4.5128    2.7407 H   0  0  0  0  0  0  0  0  0  0  0  0
   -7.1477   -2.7832    2.4498 H   0  0  0  0  0  0  0  0  0  0  0  0
   -3.1892   -3.0712    1.3879 H   0  0  0  0  0  0  0  0  0  0  0  0
   -2.0796   -0.9879    0.7833 H   0  0  0  0  0  0  0  0  0  0  0  0
    4.7269   -3.0536   -2.9036 H   0  0  0  0  0  0  0  0  0  0  0  0
    7.9568   -1.7329   -1.0557 H   0  0  0  0  0  0  0  0  0  0  0  0
    6.9105   -7.2904   -3.7341 H   0  0  0  0  0  0  0  0  0  0  0  0
    7.8909   -9.5339   -4.2309 H   0  0  0  0  0  0  0  0  0  0  0  0
   12.3200   -7.9573   -2.6605 H   0  0  0  0  0  0  0  0  0  0  0  0
   11.3934   -5.7550   -2.1818 H   0  0  0  0  0  0  0  0  0  0  0  0
  1  2  2  0  0  0  0
  2  3  1  0  0  0  0
  3  4  2  0  0  0  0
  3  5  1  0  0  0  0
  5  6  2  0  0  0  0
  6  7  1  0  0  0  0
  7  8  2  0  0  0  0
  8  9  1  0  0  0  0
  9 10  1  0  0  0  0
  9 11  2  0  0  0  0
 11 12  1  0  0  0  0
  6 13  1  0  0  0  0
 13 14  2  0  0  0  0
 14 15  1  0  0  0  0
 15 16  3  0  0  0  0
 14 17  1  0  0  0  0
 17 18  3  0  0  0  0
  1 19  1  0  0  0  0
 19 20  2  0  0  0  0
 20 21  1  0  0  0  0
 21 22  1  0  0  0  0
 22 23  1  0  0  0  0
 23 24  1  0  0  0  0
 24 25  2  0  0  0  0
 25 26  1  0  0  0  0
 26 27  1  0  0  0  0
 27 28  1  0  0  0  0
 28 29  2  0  0  0  0
 29 30  1  0  0  0  0
 30 31  2  0  0  0  0
 31 32  1  0  0  0  0
 32 33  1  0  0  0  0
 31 34  1  0  0  0  0
 34 35  2  0  0  0  0
 27 36  1  0  0  0  0
 36 37  1  0  0  0  0
 27 38  1  0  0  0  0
 38 39  2  0  0  0  0
 39 40  1  0  0  0  0
 40 41  1  0  0  0  0
 41 42  2  0  0  0  0
 42 43  1  0  0  0  0
 43 44  1  0  0  0  0
 44 45  1  0  0  0  0
 43 46  1  0  0  0  0
 46 47  2  0  0  0  0
 47 48  1  0  0  0  0
 48 49  2  0  0  0  0
 49 50  1  0  0  0  0
 50 51  1  0  0  0  0
 49 52  1  0  0  0  0
 52 53  2  0  0  0  0
 43 54  1  0  0  0  0
 54 55  1  0  0  0  0
 55 56  1  0  0  0  0
 39 57  1  0  0  0  0
 57 58  1  0  0  0  0
 58 59  1  0  0  0  0
 59 60  2  0  0  0  0
 60 61  1  0  0  0  0
 61 62  1  0  0  0  0
 60 63  1  0  0  0  0
 63 64  2  0  0  0  0
 64 65  1  0  0  0  0
 65 66  2  0  0  0  0
 65 67  1  0  0  0  0
 67 68  2  0  0  0  0
 68 69  1  0  0  0  0
 69 70  2  0  0  0  0
 70 71  1  0  0  0  0
 71 72  1  0  0  0  0
 71 73  2  0  0  0  0
 73 74  1  0  0  0  0
 73 75  1  0  0  0  0
 75 76  2  0  0  0  0
 76 77  1  0  0  0  0
 77 78  2  0  0  0  0
 78 79  1  0  0  0  0
 79 80  2  0  0  0  0
 80 81  1  0  0  0  0
 81 82  3  0  0  0  0
 80 83  1  0  0  0  0
 83 84  3  0  0  0  0
 13  2  1  0  0  0  0
 56 19  1  0  0  0  0
 62 58  2  0  0  0  0
 79 64  1  0  0  0  0
 11  5  1  0  0  0  0
 55 21  2  0  0  0  0
 78 67  1  0  0  0  0
 54 23  2  0  0  0  0
 76 69  1  0  0  0  0
 42 24  1  0  0  0  0
 53 46  1  0  0  0  0
 40 26  2  0  0  0  0
 35 28  1  0  0  0  0
 62 38  1  0  0  0  0
  1 85  1  0  0  0  0
  7 86  1  0  0  0  0
  8 87  1  0  0  0  0
 20 88  1  0  0  0  0
 25 89  1  0  0  0  0
 29 90  1  0  0  0  0
 30 91  1  0  0  0  0
 32 92  1  0  0  0  0
 32 93  1  0  0  0  0
 33 94  1  0  0  0  0
 33 95  1  0  0  0  0
 33 96  1  0  0  0  0
 34 97  1  0  0  0  0
 35 98  1  0  0  0  0
 36 99  1  0  0  0  0
 36100  1  0  0  0  0
 37101  1  0  0  0  0
 37102  1  0  0  0  0
 37103  1  0  0  0  0
 41104  1  0  0  0  0
 44105  1  0  0  0  0
 44106  1  0  0  0  0
 45107  1  0  0  0  0
 45108  1  0  0  0  0
 45109  1  0  0  0  0
 47110  1  0  0  0  0
 48111  1  0  0  0  0
 50112  1  0  0  0  0
 50113  1  0  0  0  0
 51114  1  0  0  0  0
 51115  1  0  0  0  0
 51116  1  0  0  0  0
 52117  1  0  0  0  0
 53118  1  0  0  0  0
 59119  1  0  0  0  0
 63120  1  0  0  0  0
 68121  1  0  0  0  0
 70122  1  0  0  0  0
 75123  1  0  0  0  0
 77124  1  0  0  0  0
M  END
