
  xtb     01262218043D
 energy: -252.810483780417 gnorm: 0.000501013485 xtb: 6.4.1 (unknown)
151165  0     0  0            999 V2000
    5.7534   -4.0938    4.4699 C   0  0  0  0  0  0  0  0  0  0  0  0
    7.0977   -4.3835    4.4916 C   0  0  0  0  0  0  0  0  0  0  0  0
    8.1017   -4.1582    3.4341 C   0  0  0  0  0  0  0  0  0  0  0  0
    7.9378   -3.7886    2.2906 O   0  0  0  0  0  0  0  0  0  0  0  0
    9.4095   -4.4797    4.0527 C   0  0  0  0  0  0  0  0  0  0  0  0
    9.2139   -4.9172    5.3738 C   0  0  0  0  0  0  0  0  0  0  0  0
   10.3038   -5.2636    6.1568 C   0  0  0  0  0  0  0  0  0  0  0  0
   11.5737   -5.1700    5.6070 C   0  0  0  0  0  0  0  0  0  0  0  0
   11.7612   -4.7424    4.3019 C   0  0  0  0  0  0  0  0  0  0  0  0
   13.5172   -4.6374    3.6111 Br  0  0  0  0  0  0  0  0  0  0  0  0
   10.6746   -4.3869    3.4955 C   0  0  0  0  0  0  0  0  0  0  0  0
   10.9058   -3.8544    1.8855 Cl  0  0  0  0  0  0  0  0  0  0  0  0
    7.7795   -4.9082    5.6588 C   0  0  0  0  0  0  0  0  0  0  0  0
    7.2182   -5.3657    6.8245 C   0  0  0  0  0  0  0  0  0  0  0  0
    5.8404   -5.4402    7.1208 C   0  0  0  0  0  0  0  0  0  0  0  0
    4.7463   -5.5555    7.4528 N   0  0  0  0  0  0  0  0  0  0  0  0
    7.9569   -5.8689    7.9163 C   0  0  0  0  0  0  0  0  0  0  0  0
    8.4891   -6.2863    8.8440 N   0  0  0  0  0  0  0  0  0  0  0  0
    4.9196   -3.5791    3.4688 C   0  0  0  0  0  0  0  0  0  0  0  0
    3.2485   -3.2468    3.9578 S   0  0  0  0  0  0  0  0  0  0  0  0
    2.8895   -2.6781    2.3913 C   0  0  0  0  0  0  0  0  0  0  0  0
    1.7639   -2.1110    1.7250 C   0  0  0  0  0  0  0  0  0  0  0  0
    2.1779   -1.7926    0.4097 C   0  0  0  0  0  0  0  0  0  0  0  0
    3.6182   -2.2118    0.1732 C   0  0  0  0  0  0  0  0  0  0  0  0
    4.5649   -1.0716   -0.1544 C   0  0  0  0  0  0  0  0  0  0  0  0
    5.8481   -1.3722   -0.5970 C   0  0  0  0  0  0  0  0  0  0  0  0
    6.7496   -0.3629   -0.8693 C   0  0  0  0  0  0  0  0  0  0  0  0
    6.3984    0.9714   -0.7023 C   0  0  0  0  0  0  0  0  0  0  0  0
    7.3635    2.0662   -1.0540 C   0  0  0  0  0  0  0  0  0  0  0  0
    7.2565    2.4133   -2.5404 C   0  0  0  0  0  0  0  0  0  0  0  0
    5.1207    1.2645   -0.2479 C   0  0  0  0  0  0  0  0  0  0  0  0
    4.2141    0.2568    0.0318 C   0  0  0  0  0  0  0  0  0  0  0  0
    3.6172   -3.2660   -0.9217 C   0  0  0  0  0  0  0  0  0  0  0  0
    3.5063   -4.6159   -0.6210 C   0  0  0  0  0  0  0  0  0  0  0  0
    3.4712   -5.5584   -1.6321 C   0  0  0  0  0  0  0  0  0  0  0  0
    3.5374   -5.1787   -2.9656 C   0  0  0  0  0  0  0  0  0  0  0  0
    3.4569   -6.2026   -4.0606 C   0  0  0  0  0  0  0  0  0  0  0  0
    1.9979   -6.4623   -4.4417 C   0  0  0  0  0  0  0  0  0  0  0  0
    3.6312   -3.8249   -3.2612 C   0  0  0  0  0  0  0  0  0  0  0  0
    3.6695   -2.8790   -2.2548 C   0  0  0  0  0  0  0  0  0  0  0  0
    3.9858   -2.7555    1.5295 C   0  0  0  0  0  0  0  0  0  0  0  0
    5.1247   -3.2564    2.1275 C   0  0  0  0  0  0  0  0  0  0  0  0
    1.3141   -1.1766   -0.4651 C   0  0  0  0  0  0  0  0  0  0  0  0
    0.0360   -0.8833    0.0022 C   0  0  0  0  0  0  0  0  0  0  0  0
   -1.0293   -0.1554   -0.6072 C   0  0  0  0  0  0  0  0  0  0  0  0
   -2.1173   -0.0607    0.2486 C   0  0  0  0  0  0  0  0  0  0  0  0
   -1.8416   -0.8123    1.5314 C   0  0  0  0  0  0  0  0  0  0  0  0
   -0.3938   -1.2414    1.3028 C   0  0  0  0  0  0  0  0  0  0  0  0
    0.4726   -1.8459    2.1802 C   0  0  0  0  0  0  0  0  0  0  0  0
   -2.7016   -2.0574    1.6713 C   0  0  0  0  0  0  0  0  0  0  0  0
   -2.5720   -2.8743    2.7902 C   0  0  0  0  0  0  0  0  0  0  0  0
   -3.3355   -4.0173    2.9247 C   0  0  0  0  0  0  0  0  0  0  0  0
   -4.2523   -4.3846    1.9477 C   0  0  0  0  0  0  0  0  0  0  0  0
   -5.0504   -5.6488    2.0774 C   0  0  0  0  0  0  0  0  0  0  0  0
   -4.2816   -6.8279    1.4776 C   0  0  0  0  0  0  0  0  0  0  0  0
   -4.3729   -3.5749    0.8279 C   0  0  0  0  0  0  0  0  0  0  0  0
   -3.6091   -2.4296    0.6887 C   0  0  0  0  0  0  0  0  0  0  0  0
   -1.9390    0.1402    2.7119 C   0  0  0  0  0  0  0  0  0  0  0  0
   -2.8894    0.0173    3.7151 C   0  0  0  0  0  0  0  0  0  0  0  0
   -2.9443    0.9384    4.7465 C   0  0  0  0  0  0  0  0  0  0  0  0
   -2.0615    2.0072    4.8022 C   0  0  0  0  0  0  0  0  0  0  0  0
   -2.1665    3.0364    5.8891 C   0  0  0  0  0  0  0  0  0  0  0  0
   -3.1098    4.1633    5.4622 C   0  0  0  0  0  0  0  0  0  0  0  0
   -1.1155    2.1314    3.7917 C   0  0  0  0  0  0  0  0  0  0  0  0
   -1.0540    1.2125    2.7630 C   0  0  0  0  0  0  0  0  0  0  0  0
   -3.1291    0.7218   -0.3131 C   0  0  0  0  0  0  0  0  0  0  0  0
   -2.7685    1.2054   -1.6005 C   0  0  0  0  0  0  0  0  0  0  0  0
   -1.1952    0.6874   -2.1102 S   0  0  0  0  0  0  0  0  0  0  0  0
   -3.8294    1.9769   -2.0648 C   0  0  0  0  0  0  0  0  0  0  0  0
   -4.3004    2.9456   -3.4049 S   0  0  0  0  0  0  0  0  0  0  0  0
   -5.8328    3.3029   -2.6024 C   0  0  0  0  0  0  0  0  0  0  0  0
   -5.9420    2.6757   -1.3538 C   0  0  0  0  0  0  0  0  0  0  0  0
   -4.8188    1.9370   -1.0432 C   0  0  0  0  0  0  0  0  0  0  0  0
   -4.3885    1.1562    0.0008 N   0  0  0  0  0  0  0  0  0  0  0  0
   -5.0868    0.9910    1.2495 C   0  0  0  0  0  0  0  0  0  0  0  0
   -4.9398    2.2248    2.1367 C   0  0  0  0  0  0  0  0  0  0  0  0
   -6.8564    4.1208   -3.0921 C   0  0  0  0  0  0  0  0  0  0  0  0
   -6.9430    4.8570   -4.2497 C   0  0  0  0  0  0  0  0  0  0  0  0
   -5.9077    4.9517   -5.2845 C   0  0  0  0  0  0  0  0  0  0  0  0
   -4.8364    4.3761   -5.3197 O   0  0  0  0  0  0  0  0  0  0  0  0
   -6.4247    5.9006   -6.2921 C   0  0  0  0  0  0  0  0  0  0  0  0
   -5.8223    6.3496   -7.4462 C   0  0  0  0  0  0  0  0  0  0  0  0
   -6.5141    7.2691   -8.2373 C   0  0  0  0  0  0  0  0  0  0  0  0
   -5.8545    7.7616   -9.4750 C   0  0  0  0  0  0  0  0  0  0  0  0
   -4.7709    7.3945   -9.8552 O   0  0  0  0  0  0  0  0  0  0  0  0
   -6.5949    8.6690  -10.1258 O   0  0  0  0  0  0  0  0  0  0  0  0
   -6.0238    9.1929  -11.3157 C   0  0  0  0  0  0  0  0  0  0  0  0
   -7.7822    7.7061   -7.8585 C   0  0  0  0  0  0  0  0  0  0  0  0
   -8.3866    7.2482   -6.6968 C   0  0  0  0  0  0  0  0  0  0  0  0
   -7.7035    6.3391   -5.9028 C   0  0  0  0  0  0  0  0  0  0  0  0
   -8.0582    5.6937   -4.6371 C   0  0  0  0  0  0  0  0  0  0  0  0
   -9.2451    5.8707   -3.9704 C   0  0  0  0  0  0  0  0  0  0  0  0
   -9.6089    5.2589   -2.7533 C   0  0  0  0  0  0  0  0  0  0  0  0
   -9.9860    4.8062   -1.7665 N   0  0  0  0  0  0  0  0  0  0  0  0
  -10.2920    6.7029   -4.4189 C   0  0  0  0  0  0  0  0  0  0  0  0
  -11.1854    7.3586   -4.7192 N   0  0  0  0  0  0  0  0  0  0  0  0
    5.2287   -4.2649    5.4025 H   0  0  0  0  0  0  0  0  0  0  0  0
   10.1922   -5.5971    7.1744 H   0  0  0  0  0  0  0  0  0  0  0  0
   12.4354   -5.4333    6.2008 H   0  0  0  0  0  0  0  0  0  0  0  0
    6.1377   -2.4033   -0.7359 H   0  0  0  0  0  0  0  0  0  0  0  0
    7.7425   -0.6141   -1.2130 H   0  0  0  0  0  0  0  0  0  0  0  0
    8.3833    1.7450   -0.8328 H   0  0  0  0  0  0  0  0  0  0  0  0
    7.1486    2.9565   -0.4596 H   0  0  0  0  0  0  0  0  0  0  0  0
    7.4810    1.5407   -3.1496 H   0  0  0  0  0  0  0  0  0  0  0  0
    6.2491    2.7469   -2.7791 H   0  0  0  0  0  0  0  0  0  0  0  0
    7.9552    3.2058   -2.7977 H   0  0  0  0  0  0  0  0  0  0  0  0
    4.8284    2.2953   -0.1053 H   0  0  0  0  0  0  0  0  0  0  0  0
    3.2289    0.5121    0.3941 H   0  0  0  0  0  0  0  0  0  0  0  0
    3.4533   -4.9391    0.4085 H   0  0  0  0  0  0  0  0  0  0  0  0
    3.3949   -6.6063   -1.3790 H   0  0  0  0  0  0  0  0  0  0  0  0
    4.0008   -5.8496   -4.9389 H   0  0  0  0  0  0  0  0  0  0  0  0
    3.9135   -7.1369   -3.7281 H   0  0  0  0  0  0  0  0  0  0  0  0
    1.5290   -5.5449   -4.7904 H   0  0  0  0  0  0  0  0  0  0  0  0
    1.9378   -7.2062   -5.2326 H   0  0  0  0  0  0  0  0  0  0  0  0
    1.4407   -6.8243   -3.5804 H   0  0  0  0  0  0  0  0  0  0  0  0
    3.6801   -3.5066   -4.2928 H   0  0  0  0  0  0  0  0  0  0  0  0
    3.7568   -1.8321   -2.5066 H   0  0  0  0  0  0  0  0  0  0  0  0
    6.0747   -3.3888    1.6454 H   0  0  0  0  0  0  0  0  0  0  0  0
    1.6104   -0.9032   -1.4658 H   0  0  0  0  0  0  0  0  0  0  0  0
    0.1987   -2.0909    3.1939 H   0  0  0  0  0  0  0  0  0  0  0  0
   -1.8795   -2.6095    3.5740 H   0  0  0  0  0  0  0  0  0  0  0  0
   -3.2200   -4.6322    3.8058 H   0  0  0  0  0  0  0  0  0  0  0  0
   -5.2549   -5.8515    3.1305 H   0  0  0  0  0  0  0  0  0  0  0  0
   -6.0046   -5.5398    1.5580 H   0  0  0  0  0  0  0  0  0  0  0  0
   -4.8583   -7.7449    1.5720 H   0  0  0  0  0  0  0  0  0  0  0  0
   -3.3314   -6.9601    1.9900 H   0  0  0  0  0  0  0  0  0  0  0  0
   -4.0794   -6.6509    0.4236 H   0  0  0  0  0  0  0  0  0  0  0  0
   -5.0754   -3.8395    0.0506 H   0  0  0  0  0  0  0  0  0  0  0  0
   -3.7286   -1.8279   -0.1998 H   0  0  0  0  0  0  0  0  0  0  0  0
   -3.5956   -0.7998    3.7041 H   0  0  0  0  0  0  0  0  0  0  0  0
   -3.6894    0.8217    5.5204 H   0  0  0  0  0  0  0  0  0  0  0  0
   -1.1804    3.4536    6.1018 H   0  0  0  0  0  0  0  0  0  0  0  0
   -2.5473    2.5746    6.8019 H   0  0  0  0  0  0  0  0  0  0  0  0
   -4.1024    3.7692    5.2560 H   0  0  0  0  0  0  0  0  0  0  0  0
   -2.7401    4.6459    4.5602 H   0  0  0  0  0  0  0  0  0  0  0  0
   -3.1891    4.9106    6.2478 H   0  0  0  0  0  0  0  0  0  0  0  0
   -0.4179    2.9563    3.8124 H   0  0  0  0  0  0  0  0  0  0  0  0
   -0.3104    1.3261    1.9868 H   0  0  0  0  0  0  0  0  0  0  0  0
   -6.8145    2.7860   -0.7350 H   0  0  0  0  0  0  0  0  0  0  0  0
   -6.1436    0.8113    1.0294 H   0  0  0  0  0  0  0  0  0  0  0  0
   -4.6794    0.1119    1.7512 H   0  0  0  0  0  0  0  0  0  0  0  0
   -3.8904    2.4143    2.3485 H   0  0  0  0  0  0  0  0  0  0  0  0
   -5.3604    3.0984    1.6445 H   0  0  0  0  0  0  0  0  0  0  0  0
   -5.4601    2.0676    3.0768 H   0  0  0  0  0  0  0  0  0  0  0  0
   -7.7052    4.1782   -2.4213 H   0  0  0  0  0  0  0  0  0  0  0  0
   -4.8407    6.0094   -7.7387 H   0  0  0  0  0  0  0  0  0  0  0  0
   -5.8791    8.3969  -12.0491 H   0  0  0  0  0  0  0  0  0  0  0  0
   -5.0561    9.6513  -11.1015 H   0  0  0  0  0  0  0  0  0  0  0  0
   -6.7255    9.9342  -11.6887 H   0  0  0  0  0  0  0  0  0  0  0  0
   -8.2995    8.4159   -8.4845 H   0  0  0  0  0  0  0  0  0  0  0  0
   -9.3675    7.6061   -6.4303 H   0  0  0  0  0  0  0  0  0  0  0  0
  1  2  2  0  0  0  0
  2  3  1  0  0  0  0
  3  4  2  0  0  0  0
  3  5  1  0  0  0  0
  5  6  2  0  0  0  0
  6  7  1  0  0  0  0
  7  8  2  0  0  0  0
  8  9  1  0  0  0  0
  9 10  1  0  0  0  0
  9 11  2  0  0  0  0
 11 12  1  0  0  0  0
  6 13  1  0  0  0  0
 13 14  2  0  0  0  0
 14 15  1  0  0  0  0
 15 16  3  0  0  0  0
 14 17  1  0  0  0  0
 17 18  3  0  0  0  0
  1 19  1  0  0  0  0
 19 20  1  0  0  0  0
 20 21  1  0  0  0  0
 21 22  1  0  0  0  0
 22 23  2  0  0  0  0
 23 24  1  0  0  0  0
 24 25  1  0  0  0  0
 25 26  2  0  0  0  0
 26 27  1  0  0  0  0
 27 28  2  0  0  0  0
 28 29  1  0  0  0  0
 29 30  1  0  0  0  0
 28 31  1  0  0  0  0
 31 32  2  0  0  0  0
 24 33  1  0  0  0  0
 33 34  2  0  0  0  0
 34 35  1  0  0  0  0
 35 36  2  0  0  0  0
 36 37  1  0  0  0  0
 37 38  1  0  0  0  0
 36 39  1  0  0  0  0
 39 40  2  0  0  0  0
 24 41  1  0  0  0  0
 41 42  1  0  0  0  0
 23 43  1  0  0  0  0
 43 44  2  0  0  0  0
 44 45  1  0  0  0  0
 45 46  2  0  0  0  0
 46 47  1  0  0  0  0
 47 48  1  0  0  0  0
 48 49  2  0  0  0  0
 47 50  1  0  0  0  0
 50 51  2  0  0  0  0
 51 52  1  0  0  0  0
 52 53  2  0  0  0  0
 53 54  1  0  0  0  0
 54 55  1  0  0  0  0
 53 56  1  0  0  0  0
 56 57  2  0  0  0  0
 47 58  1  0  0  0  0
 58 59  2  0  0  0  0
 59 60  1  0  0  0  0
 60 61  2  0  0  0  0
 61 62  1  0  0  0  0
 62 63  1  0  0  0  0
 61 64  1  0  0  0  0
 64 65  2  0  0  0  0
 46 66  1  0  0  0  0
 66 67  2  0  0  0  0
 67 68  1  0  0  0  0
 67 69  1  0  0  0  0
 69 70  1  0  0  0  0
 70 71  1  0  0  0  0
 71 72  2  0  0  0  0
 72 73  1  0  0  0  0
 73 74  1  0  0  0  0
 74 75  1  0  0  0  0
 75 76  1  0  0  0  0
 71 77  1  0  0  0  0
 77 78  2  0  0  0  0
 78 79  1  0  0  0  0
 79 80  2  0  0  0  0
 79 81  1  0  0  0  0
 81 82  2  0  0  0  0
 82 83  1  0  0  0  0
 83 84  1  0  0  0  0
 84 85  2  0  0  0  0
 84 86  1  0  0  0  0
 86 87  1  0  0  0  0
 83 88  2  0  0  0  0
 88 89  1  0  0  0  0
 89 90  2  0  0  0  0
 90 91  1  0  0  0  0
 91 92  2  0  0  0  0
 92 93  1  0  0  0  0
 93 94  3  0  0  0  0
 92 95  1  0  0  0  0
 95 96  3  0  0  0  0
 13  2  1  0  0  0  0
 42 19  2  0  0  0  0
 48 44  1  0  0  0  0
 57 50  1  0  0  0  0
 65 58  1  0  0  0  0
 74 66  1  0  0  0  0
 91 78  1  0  0  0  0
 11  5  1  0  0  0  0
 41 21  2  0  0  0  0
 68 45  1  0  0  0  0
 73 69  2  0  0  0  0
 90 81  1  0  0  0  0
 49 22  1  0  0  0  0
 32 25  1  0  0  0  0
 40 33  1  0  0  0  0
  1 97  1  0  0  0  0
  7 98  1  0  0  0  0
  8 99  1  0  0  0  0
 26100  1  0  0  0  0
 27101  1  0  0  0  0
 29102  1  0  0  0  0
 29103  1  0  0  0  0
 30104  1  0  0  0  0
 30105  1  0  0  0  0
 30106  1  0  0  0  0
 31107  1  0  0  0  0
 32108  1  0  0  0  0
 34109  1  0  0  0  0
 35110  1  0  0  0  0
 37111  1  0  0  0  0
 37112  1  0  0  0  0
 38113  1  0  0  0  0
 38114  1  0  0  0  0
 38115  1  0  0  0  0
 39116  1  0  0  0  0
 40117  1  0  0  0  0
 42118  1  0  0  0  0
 43119  1  0  0  0  0
 49120  1  0  0  0  0
 51121  1  0  0  0  0
 52122  1  0  0  0  0
 54123  1  0  0  0  0
 54124  1  0  0  0  0
 55125  1  0  0  0  0
 55126  1  0  0  0  0
 55127  1  0  0  0  0
 56128  1  0  0  0  0
 57129  1  0  0  0  0
 59130  1  0  0  0  0
 60131  1  0  0  0  0
 62132  1  0  0  0  0
 62133  1  0  0  0  0
 63134  1  0  0  0  0
 63135  1  0  0  0  0
 63136  1  0  0  0  0
 64137  1  0  0  0  0
 65138  1  0  0  0  0
 72139  1  0  0  0  0
 75140  1  0  0  0  0
 75141  1  0  0  0  0
 76142  1  0  0  0  0
 76143  1  0  0  0  0
 76144  1  0  0  0  0
 77145  1  0  0  0  0
 82146  1  0  0  0  0
 87147  1  0  0  0  0
 87148  1  0  0  0  0
 87149  1  0  0  0  0
 88150  1  0  0  0  0
 89151  1  0  0  0  0
M  END
