97

C          5.86500       -5.70110        3.33280
C          6.09040       -5.47800        4.67310
C          5.51750       -4.39670        5.47220
O          4.76880       -3.51120        5.09930
C          6.02840       -4.59110        6.84590
C          6.86660       -5.72110        6.87330
C          7.46180       -6.11090        8.06190
C          7.21260       -5.36630        9.20600
C          6.38740       -4.25320        9.17340
Br         6.08730       -3.28100       10.76620
C          5.77560       -3.84280        7.98340
Cl         4.75380       -2.47060        7.93880
C          6.92760       -6.29140        5.52660
C          7.65960       -7.39860        5.17660
C          7.73050       -7.96750        3.88820
N          7.84320       -8.49230        2.87180
C          8.46180       -8.13560        6.07280
N          9.13520       -8.78050        6.74260
C          5.08140       -5.01410        2.40580
C          4.96300       -5.41310        1.05970
C          5.68350       -6.55490        0.42180
C          7.09890       -6.14130        0.00810
C          4.11640       -4.57110        0.35550
S          3.57190       -4.57270       -1.31260
C          2.61420       -3.17590       -0.96560
C          1.69960       -2.33390       -1.60800
C          1.13150       -2.40590       -2.89950
C          0.09230       -1.48450       -3.24870
N         -0.38920       -1.70040       -4.46260
S          0.40130       -2.95470       -5.11180
N          1.38790       -3.27060       -3.86830
C         -0.25050       -0.46580       -2.33200
C         -1.13920        0.60970       -2.45210
S         -2.29840        1.23030       -3.57140
C         -2.60420        2.56710       -2.48450
C         -3.51390        3.63090       -2.52100
C         -4.38350        3.94620       -3.69420
C         -3.59330        4.00150       -5.00150
C         -3.41940        4.41080       -1.37040
S         -2.14640        3.85050       -0.28750
C         -1.81830        2.51760       -1.32300
C         -0.99140        1.39150       -1.30100
N         -0.07200        0.82240       -0.46240
C          0.39170       -0.33540       -1.06530
C          1.29810       -1.34940       -0.65460
N          1.93600       -1.62180        0.54190
C          2.72210       -2.72710        0.35740
C          3.57370       -3.52490        1.12520
S          4.11850       -3.57580        2.75820
C          1.63880       -1.17880        1.88670
C          0.20150       -1.50910        2.28000
C          0.49570        1.60830        0.61100
C          1.93990        2.00170        0.31190
C         -4.12350        5.56000       -0.95900
C         -5.40340        5.95940       -1.22560
C         -5.77250        7.38150       -1.01050
O         -5.10480        8.23400       -0.47320
C         -7.10530        7.53500       -1.63850
C         -7.85320        8.68340       -1.80530
C         -9.07140        8.56910       -2.45660
F         -9.82760        9.65720       -2.64260
C         -9.51610        7.33210       -2.92410
F        -10.68850        7.25490       -3.56260
C         -8.77050        6.17570       -2.74690
C         -7.55340        6.28280       -2.09450
C         -6.56500        5.26600       -1.72880
C         -6.81400        3.91890       -1.65420
C         -5.94820        2.99410       -1.03810
N         -5.29680        2.20920       -0.51140
C         -8.00550        3.31230       -2.10120
N         -8.94380        2.76360       -2.46960
H          6.37130       -6.55810        2.91040
H          8.10690       -6.97110        8.12080
H          7.66630       -5.65440       10.14160
H          5.73960       -7.41120        1.09540
H          5.12640       -6.85520       -0.46780
H          7.06060       -5.31520       -0.69790
H          7.67950       -5.83270        0.87420
H          7.60330       -6.98050       -0.46180
H         -5.16130        3.17960       -3.77790
H         -4.87080        4.90970       -3.53700
H         -4.25250        4.30140       -5.81200
H         -3.16860        3.03260       -5.24660
H         -2.78690        4.72740       -4.92480
H          1.85450       -0.11600        1.99700
H          2.32390       -1.71450        2.54810
H          0.04860       -2.58540        2.25460
H          0.00560       -1.15760        3.28920
H         -0.51330       -1.04950        1.60130
H          0.40950        1.08210        1.56150
H         -0.11430        2.51160        0.68940
H          2.34090        2.58860        1.13360
H          1.98160        2.60200       -0.59410
H          2.56710        1.12530        0.16630
H         -3.55760        6.26080       -0.35030
H         -7.50770        9.63870       -1.44360
H         -9.15430        5.24310       -3.12700
