151

C          5.75340       -4.09380        4.46990
C          7.09770       -4.38350        4.49160
C          8.10170       -4.15820        3.43410
O          7.93780       -3.78860        2.29060
C          9.40950       -4.47970        4.05270
C          9.21390       -4.91720        5.37380
C         10.30380       -5.26360        6.15680
C         11.57370       -5.17000        5.60700
C         11.76120       -4.74240        4.30190
Br        13.51720       -4.63740        3.61110
C         10.67460       -4.38690        3.49550
Cl        10.90580       -3.85440        1.88550
C          7.77950       -4.90820        5.65880
C          7.21820       -5.36570        6.82450
C          5.84040       -5.44020        7.12080
N          4.74630       -5.55550        7.45280
C          7.95690       -5.86890        7.91630
N          8.48910       -6.28630        8.84400
C          4.91960       -3.57910        3.46880
S          3.24850       -3.24680        3.95780
C          2.88950       -2.67810        2.39130
C          1.76390       -2.11100        1.72500
C          2.17790       -1.79260        0.40970
C          3.61820       -2.21180        0.17320
C          4.56490       -1.07160       -0.15440
C          5.84810       -1.37220       -0.59700
C          6.74960       -0.36290       -0.86930
C          6.39840        0.97140       -0.70230
C          7.36350        2.06620       -1.05400
C          7.25650        2.41330       -2.54040
C          5.12070        1.26450       -0.24790
C          4.21410        0.25680        0.03180
C          3.61720       -3.26600       -0.92170
C          3.50630       -4.61590       -0.62100
C          3.47120       -5.55840       -1.63210
C          3.53740       -5.17870       -2.96560
C          3.45690       -6.20260       -4.06060
C          1.99790       -6.46230       -4.44170
C          3.63120       -3.82490       -3.26120
C          3.66950       -2.87900       -2.25480
C          3.98580       -2.75550        1.52950
C          5.12470       -3.25640        2.12750
C          1.31410       -1.17660       -0.46510
C          0.03600       -0.88330        0.00220
C         -1.02930       -0.15540       -0.60720
C         -2.11730       -0.06070        0.24860
C         -1.84160       -0.81230        1.53140
C         -0.39380       -1.24140        1.30280
C          0.47260       -1.84590        2.18020
C         -2.70160       -2.05740        1.67130
C         -2.57200       -2.87430        2.79020
C         -3.33550       -4.01730        2.92470
C         -4.25230       -4.38460        1.94770
C         -5.05040       -5.64880        2.07740
C         -4.28160       -6.82790        1.47760
C         -4.37290       -3.57490        0.82790
C         -3.60910       -2.42960        0.68870
C         -1.93900        0.14020        2.71190
C         -2.88940        0.01730        3.71510
C         -2.94430        0.93840        4.74650
C         -2.06150        2.00720        4.80220
C         -2.16650        3.03640        5.88910
C         -3.10980        4.16330        5.46220
C         -1.11550        2.13140        3.79170
C         -1.05400        1.21250        2.76300
C         -3.12910        0.72180       -0.31310
C         -2.76850        1.20540       -1.60050
S         -1.19520        0.68740       -2.11020
C         -3.82940        1.97690       -2.06480
S         -4.30040        2.94560       -3.40490
C         -5.83280        3.30290       -2.60240
C         -5.94200        2.67570       -1.35380
C         -4.81880        1.93700       -1.04320
N         -4.38850        1.15620        0.00080
C         -5.08680        0.99100        1.24950
C         -4.93980        2.22480        2.13670
C         -6.85640        4.12080       -3.09210
C         -6.94300        4.85700       -4.24970
C         -5.90770        4.95170       -5.28450
O         -4.83640        4.37610       -5.31970
C         -6.42470        5.90060       -6.29210
C         -5.82230        6.34960       -7.44620
C         -6.51410        7.26910       -8.23730
C         -5.85450        7.76160       -9.47500
O         -4.77090        7.39450       -9.85520
O         -6.59490        8.66900      -10.12580
C         -6.02380        9.19290      -11.31570
C         -7.78220        7.70610       -7.85850
C         -8.38660        7.24820       -6.69680
C         -7.70350        6.33910       -5.90280
C         -8.05820        5.69370       -4.63710
C         -9.24510        5.87070       -3.97040
C         -9.60890        5.25890       -2.75330
N         -9.98600        4.80620       -1.76650
C        -10.29200        6.70290       -4.41890
N        -11.18540        7.35860       -4.71920
H          5.22870       -4.26490        5.40250
H         10.19220       -5.59710        7.17440
H         12.43540       -5.43330        6.20080
H          6.13770       -2.40330       -0.73590
H          7.74250       -0.61410       -1.21300
H          8.38330        1.74500       -0.83280
H          7.14860        2.95650       -0.45960
H          7.48100        1.54070       -3.14960
H          6.24910        2.74690       -2.77910
H          7.95520        3.20580       -2.79770
H          4.82840        2.29530       -0.10530
H          3.22890        0.51210        0.39410
H          3.45330       -4.93910        0.40850
H          3.39490       -6.60630       -1.37900
H          4.00080       -5.84960       -4.93890
H          3.91350       -7.13690       -3.72810
H          1.52900       -5.54490       -4.79040
H          1.93780       -7.20620       -5.23260
H          1.44070       -6.82430       -3.58040
H          3.68010       -3.50660       -4.29280
H          3.75680       -1.83210       -2.50660
H          6.07470       -3.38880        1.64540
H          1.61040       -0.90320       -1.46580
H          0.19870       -2.09090        3.19390
H         -1.87950       -2.60950        3.57400
H         -3.22000       -4.63220        3.80580
H         -5.25490       -5.85150        3.13050
H         -6.00460       -5.53980        1.55800
H         -4.85830       -7.74490        1.57200
H         -3.33140       -6.96010        1.99000
H         -4.07940       -6.65090        0.42360
H         -5.07540       -3.83950        0.05060
H         -3.72860       -1.82790       -0.19980
H         -3.59560       -0.79980        3.70410
H         -3.68940        0.82170        5.52040
H         -1.18040        3.45360        6.10180
H         -2.54730        2.57460        6.80190
H         -4.10240        3.76920        5.25600
H         -2.74010        4.64590        4.56020
H         -3.18910        4.91060        6.24780
H         -0.41790        2.95630        3.81240
H         -0.31040        1.32610        1.98680
H         -6.81450        2.78600       -0.73500
H         -6.14360        0.81130        1.02940
H         -4.67940        0.11190        1.75120
H         -3.89040        2.41430        2.34850
H         -5.36040        3.09840        1.64450
H         -5.46010        2.06760        3.07680
H         -7.70520        4.17820       -2.42130
H         -4.84070        6.00940       -7.73870
H         -5.87910        8.39690      -12.04910
H         -5.05610        9.65130      -11.10150
H         -6.72550        9.93420      -11.68870
H         -8.29950        8.41590       -8.48450
H         -9.36750        7.60610       -6.43030
