158

C         -2.75280       -5.30460        5.48950
C         -3.61100       -6.37070        5.57650
C         -4.13320       -7.20990        4.47780
O         -4.10140       -7.00090        3.28510
C         -4.68990       -8.41400        5.14000
C         -4.59980       -8.27410        6.53720
C         -5.04600       -9.28790        7.36940
C         -5.57840      -10.43170        6.79310
C         -5.67130      -10.56500        5.41610
Br        -6.40920      -12.14650        4.69340
C         -5.22630       -9.55160        4.55840
Cl        -5.33950       -9.71800        2.85920
C         -4.00620       -6.97390        6.83250
C         -3.94870       -6.38590        8.07030
C         -4.36790       -7.01280        9.26240
N         -4.68930       -7.47640       10.26190
C         -3.53440       -5.05920        8.31080
N         -3.25020       -3.97810        8.57630
C         -2.34770       -4.53120        4.39070
C         -2.83700       -4.42680        3.09460
C         -2.19870       -3.42500        2.38230
S         -2.40470       -2.77740        0.77700
C         -1.16850       -1.61390        1.10880
C         -0.59010       -0.51380        0.40290
C         -0.81730       -0.03660       -0.88480
C         -0.06910        1.04130       -1.29530
C         -0.05790        1.70260       -2.66300
C         -1.31860        2.46940       -3.01280
C         -2.27190        2.78760       -2.05730
C         -3.37690        3.54870       -2.39940
C         -3.54610        4.00280       -3.69880
C         -4.74300        4.83520       -4.09200
O         -4.42730        5.87870       -4.98920
C         -3.65520        6.88140       -4.41520
O         -3.32590        7.77080       -5.42950
C         -2.54820        8.84900       -4.97720
C         -2.58720        3.68490       -4.65430
C         -1.48250        2.93050       -4.31480
C          0.24640        0.60240       -3.66230
C          1.55520        0.24050       -3.95000
C          1.81730       -0.86790       -4.73050
C          0.77780       -1.64520       -5.22360
C          1.08070       -2.93270       -5.94150
O          1.75570       -3.87240       -5.10990
C          1.06150       -4.25700       -3.98450
O          1.08890       -3.24590       -3.00440
C          0.41760       -3.59400       -1.82450
C         -0.52970       -1.26000       -4.96720
C         -0.79490       -0.14570       -4.19390
C          1.04750        2.70700       -2.48130
C          1.54930        2.65100       -1.19030
C          0.89980        1.62120       -0.44220
C          1.11310        1.15630        0.85340
C          0.35460        0.08800        1.27010
C          0.41910       -0.64900        2.59720
C          1.83350       -1.16140        2.78350
C          2.79250       -0.34190        3.36550
C          4.09560       -0.78010        3.50980
C          4.46830       -2.04000        3.06260
C          5.88540       -2.53790        3.21060
O          5.96460       -3.89180        3.59170
C          5.52120       -4.12730        4.90790
O          5.48570       -5.47780        5.17370
C          6.75870       -6.09720        5.16130
C          3.51190       -2.85310        2.46880
C          2.20740       -2.41870        2.32920
C         -0.08030        0.13420        3.79810
C          0.18920       -0.34960        5.07200
C         -0.37030        0.25270        6.18190
C         -1.21400        1.34480        6.03990
C         -1.90250        1.95450        7.23220
O         -3.31480        1.79050        7.19210
C         -3.74950        0.48670        7.29730
O         -3.51780       -0.22430        6.10440
C         -3.99910       -1.54190        6.15690
C         -1.46840        1.83690        4.76680
C         -0.91280        1.23480        3.65380
C         -0.60180       -1.73010        2.36770
C         -1.19600       -2.74480        3.10960
S         -1.05510       -3.36140        4.70160
S          2.80820        3.79340       -0.86630
C          2.66500        4.37500       -2.50460
C          3.31620        5.34770       -3.23430
C          2.83860        5.43720       -4.54610
S          1.54780        4.27880       -4.85490
C          1.67060        3.69320       -3.24220
C          3.37420        6.35640       -5.45820
C          3.05300        6.60540       -6.76970
C          2.00200        5.92980       -7.53850
O          1.25690        5.04320       -7.16720
C          2.02410        6.54360       -8.88230
C          1.22170        6.25610       -9.96850
C          1.44020        6.97180      -11.13450
F          0.68910        6.72740      -12.21410
C          2.43850        7.94500      -11.19420
F          2.62850        8.62020      -12.33270
C          3.24310        8.23350      -10.10170
C          3.03090        7.52230       -8.93090
C          3.69300        7.58480       -7.62650
C          4.72920        8.42410       -7.31090
C          5.30210        9.34800       -8.21160
N          5.80960       10.12220       -8.88990
C          5.38360        8.49920       -6.06280
N          5.96720        8.62810       -5.08200
H         -2.28460       -4.99890        6.41850
H         -4.98170       -9.21220        8.44200
H         -5.92790      -11.23630        7.42160
H         -3.62180       -5.05190        2.71240
H         -1.54050       -0.50830       -1.53120
H         -2.15320        2.44650       -1.03930
H         -4.11170        3.79100       -1.64490
H         -5.46450        4.21610       -4.63460
H         -5.23390        5.23960       -3.19300
H         -4.22760        7.39900       -3.60940
H         -2.73430        6.45980       -3.95240
H         -3.07990        9.43170       -4.21420
H         -2.35790        9.47390       -5.84640
H         -1.59580        8.50290       -4.55470
H         -2.71110        4.05000       -5.66240
H         -0.74340        2.69170       -5.06490
H          2.37550        0.81550       -3.54570
H          2.83620       -1.16230       -4.92960
H          1.76720       -2.76870       -6.77590
H          0.15160       -3.38350       -6.32090
H          0.00520       -4.50770       -4.22410
H          1.56440       -5.16290       -3.60730
H          0.85240       -4.49170       -1.36750
H          0.53200       -2.74680       -1.15110
H         -0.64910       -3.77520       -2.01030
H         -1.35080       -1.84600       -5.35600
H         -1.81820        0.13570       -3.99080
H          1.85430        1.61380        1.49000
H          2.51240        0.63630        3.72800
H          4.82840       -0.13580        3.97390
H          6.43280       -1.90850        3.92970
H          6.39810       -2.48980        2.24420
H          4.49310       -3.75870        5.04440
H          6.19360       -3.59190        5.61540
H          7.41580       -5.64410        5.91280
H          6.58770       -7.14320        5.40380
H          7.22460       -6.01360        4.17700
H          3.79960       -3.83580        2.12710
H          1.47780       -3.06510        1.86330
H          0.83210       -1.20950        5.19430
H         -0.16270       -0.14560        7.16450
H         -1.50900        1.51710        8.16130
H         -1.75580        3.03790        7.25390
H         -4.83180        0.54100        7.50090
H         -3.25300       -0.04040        8.13970
H         -3.50120       -2.12110        6.94430
H         -3.78920       -1.98290        5.18480
H         -5.08070       -1.56180        6.33920
H         -2.13110        2.68100        4.65100
H         -1.13640        1.61520        2.66750
H          4.10470        5.97560       -2.85990
H          4.17140        6.95390       -5.03270
H          0.45110        5.50370       -9.91620
H          3.99900        8.99470      -10.20200
