86

C         -5.98800        1.77140        0.87610
C         -7.14530        1.89160        0.14570
C         -7.26710        1.70270       -1.30490
O         -6.38010        1.44470       -2.09470
C         -8.69750        1.89250       -1.61830
C         -9.35580        1.80960       -2.83600
Cl        -8.50870        1.44510       -4.27910
C        -10.73100        2.02650       -2.87260
C        -11.40460        2.31940       -1.69870
Br       -13.27580        2.60910       -1.77390
C        -10.76460        2.40910       -0.46620
C         -9.39910        2.19180       -0.43540
C         -8.45040        2.20710        0.68230
C         -8.77880        2.48000        1.98580
C         -7.88290        2.50520        3.07520
N         -7.22740        2.54450        4.01810
C        -10.08200        2.78720        2.43190
N        -11.11420        3.04120        2.86510
C         -4.68140        1.45470        0.48440
S         -4.12030        1.12920       -1.15740
C         -2.54120        0.85650       -0.55150
C         -1.26110        0.51850       -1.00630
C         -0.73980        0.35080       -2.30490
N         -1.28650        0.43780       -3.51860
N         -0.28440        0.23390       -4.33480
C         -0.44890        0.29160       -5.75850
C         -0.47250        1.74060       -6.23520
N          0.88450        0.01750       -3.78660
C          0.64330        0.08150       -2.47570
C          1.45380       -0.13170       -1.34300
C          2.77990       -0.55180       -1.21150
S          4.14110       -0.94080       -2.16850
C          5.04270       -1.39700       -0.70720
C          4.29340       -1.21720        0.45050
C          3.02230       -0.74140        0.16350
N          1.89960       -0.41350        0.87960
C          1.76930       -0.85680        2.25070
C          0.73650       -1.97240        2.38920
C          0.91660       -0.02810       -0.02210
C         -0.41880        0.41410        0.14190
N         -1.16920        0.74200        1.26690
C         -2.45040        1.00440        0.84720
C         -3.65380        1.35000        1.43210
C         -0.71750        1.24440        2.54740
C          0.28850        2.38140        2.38730
C          6.35140       -1.85740       -0.91410
C          7.27210       -2.41370       -0.05830
C          7.09700       -2.81650        1.35010
O          6.17090       -2.60180        2.10700
C          8.31260       -3.58540        1.69880
C          8.60040       -4.22540        2.88800
C          9.80560       -4.90210        2.97780
F         10.12540       -5.54030        4.11040
C         10.68770       -4.92710        1.89720
F         11.84160       -5.59460        2.00880
C         10.39980       -4.27920        0.70510
C          9.19540       -3.59950        0.60830
C          8.59960       -2.82740       -0.48170
C          9.23680       -2.51380       -1.65330
C          8.73330       -1.68860       -2.68270
N          8.42230       -1.01470       -3.55880
C         10.53740       -2.95180       -1.98460
N         11.58650       -3.27640       -2.31790
H         -6.07810        1.93360        1.94340
H        -11.26230        1.96520       -3.80890
H        -11.33330        2.63910        0.41930
H         -1.39040       -0.20280       -6.00740
H          0.39000       -0.24860       -6.20020
H         -1.29520        2.27290       -5.76440
H         -0.60360        1.77220       -7.31290
H          0.46130        2.23650       -5.98130
H          4.69180       -1.43750        1.42270
H          1.54240       -0.01490        2.90600
H          2.74800       -1.23920        2.54600
H          1.03880       -2.83210        1.79570
H          0.66280       -2.27990        3.42890
H         -0.24440       -1.65180        2.04730
H         -3.83320        1.51220        2.48010
H         -1.60380        1.62340        3.05970
H         -0.31470        0.43710        3.16080
H          0.59580        2.74320        3.36490
H          1.17050        2.05750        1.84060
H         -0.16560        3.20470        1.84050
H          6.66110       -1.78300       -1.94990
H          7.91420       -4.20420        3.71950
H         11.11480       -4.33170       -0.09910
