
  xtb     01272209153D
 energy: -168.331430351602 gnorm: 0.000154752979 xtb: 6.4.1 (unknown)
 86 95  0     0  0            999 V2000
   -3.8328    1.2401   -5.6803 C   0  0  0  0  0  0  0  0  0  0  0  0
   -4.5100    0.4330   -6.5448 C   0  0  0  0  0  0  0  0  0  0  0  0
   -5.6845    0.9539   -7.2907 C   0  0  0  0  0  0  0  0  0  0  0  0
   -6.0086    2.1114   -7.4129 O   0  0  0  0  0  0  0  0  0  0  0  0
   -6.3820   -0.2535   -7.7875 C   0  0  0  0  0  0  0  0  0  0  0  0
   -7.6047   -0.3741   -8.4320 C   0  0  0  0  0  0  0  0  0  0  0  0
   -8.5441    1.0057   -8.8142 Cl  0  0  0  0  0  0  0  0  0  0  0  0
   -8.0667   -1.6449   -8.7666 C   0  0  0  0  0  0  0  0  0  0  0  0
   -7.3026   -2.7563   -8.4502 C   0  0  0  0  0  0  0  0  0  0  0  0
   -7.9687   -4.4725   -8.8964 Br  0  0  0  0  0  0  0  0  0  0  0  0
   -6.0683   -2.6621   -7.8152 C   0  0  0  0  0  0  0  0  0  0  0  0
   -5.6151   -1.3979   -7.4898 C   0  0  0  0  0  0  0  0  0  0  0  0
   -4.3677   -0.9692   -6.8563 C   0  0  0  0  0  0  0  0  0  0  0  0
   -3.1962   -1.6797   -6.8467 C   0  0  0  0  0  0  0  0  0  0  0  0
   -1.9561   -1.0963   -6.5098 C   0  0  0  0  0  0  0  0  0  0  0  0
   -0.9287   -0.6291   -6.3000 N   0  0  0  0  0  0  0  0  0  0  0  0
   -3.0843   -3.0211   -7.2631 C   0  0  0  0  0  0  0  0  0  0  0  0
   -2.9506   -4.1162   -7.5788 N   0  0  0  0  0  0  0  0  0  0  0  0
   -3.0103    0.8690   -4.5947 C   0  0  0  0  0  0  0  0  0  0  0  0
   -3.1586   -0.7016   -3.7983 S   0  0  0  0  0  0  0  0  0  0  0  0
   -1.9487   -0.2517   -2.6728 C   0  0  0  0  0  0  0  0  0  0  0  0
   -1.2550   -0.7706   -1.5726 C   0  0  0  0  0  0  0  0  0  0  0  0
   -1.2240   -2.0354   -0.9498 C   0  0  0  0  0  0  0  0  0  0  0  0
   -1.8612   -3.1811   -1.1972 N   0  0  0  0  0  0  0  0  0  0  0  0
   -1.3684   -4.0172   -0.3194 N   0  0  0  0  0  0  0  0  0  0  0  0
   -1.7571   -5.3976   -0.2913 C   0  0  0  0  0  0  0  0  0  0  0  0
   -0.8673   -6.2222   -1.2171 C   0  0  0  0  0  0  0  0  0  0  0  0
   -0.4633   -3.5425    0.4981 N   0  0  0  0  0  0  0  0  0  0  0  0
   -0.3324   -2.2660    0.1349 C   0  0  0  0  0  0  0  0  0  0  0  0
    0.4081   -1.1922    0.6736 C   0  0  0  0  0  0  0  0  0  0  0  0
    1.1703   -1.0479    1.8380 C   0  0  0  0  0  0  0  0  0  0  0  0
    1.7442   -1.9643    3.1612 S   0  0  0  0  0  0  0  0  0  0  0  0
    2.3886   -0.4879    3.9134 C   0  0  0  0  0  0  0  0  0  0  0  0
    2.1686    0.6387    3.1281 C   0  0  0  0  0  0  0  0  0  0  0  0
    1.4941    0.3203    1.9600 C   0  0  0  0  0  0  0  0  0  0  0  0
    0.9927    1.0097    0.8845 N   0  0  0  0  0  0  0  0  0  0  0  0
    0.8401    2.4486    0.9431 C   0  0  0  0  0  0  0  0  0  0  0  0
    2.1698    3.1823    0.7734 C   0  0  0  0  0  0  0  0  0  0  0  0
    0.3312    0.1017    0.0779 C   0  0  0  0  0  0  0  0  0  0  0  0
   -0.3856    0.2666   -1.1268 C   0  0  0  0  0  0  0  0  0  0  0  0
   -0.4998    1.3588   -1.9764 N   0  0  0  0  0  0  0  0  0  0  0  0
   -1.4657    1.0474   -2.9047 C   0  0  0  0  0  0  0  0  0  0  0  0
   -2.0806    1.6894   -3.9737 C   0  0  0  0  0  0  0  0  0  0  0  0
    0.5755    2.2548   -2.3557 C   0  0  0  0  0  0  0  0  0  0  0  0
    1.3307    1.7258   -3.5751 C   0  0  0  0  0  0  0  0  0  0  0  0
    3.0044   -0.6561    5.1619 C   0  0  0  0  0  0  0  0  0  0  0  0
    3.4984    0.2481    6.0725 C   0  0  0  0  0  0  0  0  0  0  0  0
    3.4491    1.7235    6.0302 C   0  0  0  0  0  0  0  0  0  0  0  0
    3.1186    2.4512    5.1154 O   0  0  0  0  0  0  0  0  0  0  0  0
    3.8950    2.1763    7.3648 C   0  0  0  0  0  0  0  0  0  0  0  0
    3.9733    3.4623    7.8788 C   0  0  0  0  0  0  0  0  0  0  0  0
    3.5429    4.8271    6.9372 Cl  0  0  0  0  0  0  0  0  0  0  0  0
    4.4073    3.6389    9.1896 C   0  0  0  0  0  0  0  0  0  0  0  0
    4.7492    2.5311    9.9473 C   0  0  0  0  0  0  0  0  0  0  0  0
    5.3238    2.7960   11.7337 Br  0  0  0  0  0  0  0  0  0  0  0  0
    4.6855    1.2330    9.4513 C   0  0  0  0  0  0  0  0  0  0  0  0
    4.2564    1.0652    8.1470 C   0  0  0  0  0  0  0  0  0  0  0  0
    4.0827   -0.1449    7.3408 C   0  0  0  0  0  0  0  0  0  0  0  0
    4.4764   -1.3992    7.7276 C   0  0  0  0  0  0  0  0  0  0  0  0
    4.4180   -2.5717    6.9422 C   0  0  0  0  0  0  0  0  0  0  0  0
    4.4338   -3.5719    6.3782 N   0  0  0  0  0  0  0  0  0  0  0  0
    5.0513   -1.6990    8.9816 C   0  0  0  0  0  0  0  0  0  0  0  0
    5.5191   -2.0144    9.9811 N   0  0  0  0  0  0  0  0  0  0  0  0
   -4.0159    2.3042   -5.7956 H   0  0  0  0  0  0  0  0  0  0  0  0
   -9.0157   -1.7575   -9.2661 H   0  0  0  0  0  0  0  0  0  0  0  0
   -5.5046   -3.5508   -7.5816 H   0  0  0  0  0  0  0  0  0  0  0  0
   -2.7986   -5.4526   -0.6136 H   0  0  0  0  0  0  0  0  0  0  0  0
   -1.6605   -5.7432    0.7396 H   0  0  0  0  0  0  0  0  0  0  0  0
   -0.9537   -5.8621   -2.2393 H   0  0  0  0  0  0  0  0  0  0  0  0
   -1.1696   -7.2648   -1.1860 H   0  0  0  0  0  0  0  0  0  0  0  0
    0.1708   -6.1482   -0.9026 H   0  0  0  0  0  0  0  0  0  0  0  0
    2.4876    1.6163    3.4349 H   0  0  0  0  0  0  0  0  0  0  0  0
    0.4250    2.7021    1.9256 H   0  0  0  0  0  0  0  0  0  0  0  0
    0.1143    2.7560    0.1895 H   0  0  0  0  0  0  0  0  0  0  0  0
    2.6998    2.8543   -0.1182 H   0  0  0  0  0  0  0  0  0  0  0  0
    1.9886    4.2509    0.6980 H   0  0  0  0  0  0  0  0  0  0  0  0
    2.8147    3.0040    1.6285 H   0  0  0  0  0  0  0  0  0  0  0  0
   -1.8654    2.6836   -4.3205 H   0  0  0  0  0  0  0  0  0  0  0  0
    1.2731    2.3447   -1.5293 H   0  0  0  0  0  0  0  0  0  0  0  0
    0.1451    3.2371   -2.5725 H   0  0  0  0  0  0  0  0  0  0  0  0
    1.7703    0.7561   -3.3514 H   0  0  0  0  0  0  0  0  0  0  0  0
    0.6694    1.6103   -4.4297 H   0  0  0  0  0  0  0  0  0  0  0  0
    2.1268    2.4165   -3.8397 H   0  0  0  0  0  0  0  0  0  0  0  0
    3.0581   -1.6958    5.4625 H   0  0  0  0  0  0  0  0  0  0  0  0
    4.4722    4.6306    9.6080 H   0  0  0  0  0  0  0  0  0  0  0  0
    4.9593    0.4028   10.0806 H   0  0  0  0  0  0  0  0  0  0  0  0
  1  2  2  0  0  0  0
  2  3  1  0  0  0  0
  3  4  2  0  0  0  0
  3  5  1  0  0  0  0
  5  6  2  0  0  0  0
  6  7  1  0  0  0  0
  6  8  1  0  0  0  0
  8  9  2  0  0  0  0
  9 10  1  0  0  0  0
  9 11  1  0  0  0  0
 11 12  2  0  0  0  0
 12 13  1  0  0  0  0
 13 14  2  0  0  0  0
 14 15  1  0  0  0  0
 15 16  3  0  0  0  0
 14 17  1  0  0  0  0
 17 18  3  0  0  0  0
  1 19  1  0  0  0  0
 19 20  1  0  0  0  0
 20 21  1  0  0  0  0
 21 22  1  0  0  0  0
 22 23  1  0  0  0  0
 23 24  2  0  0  0  0
 24 25  1  0  0  0  0
 25 26  1  0  0  0  0
 26 27  1  0  0  0  0
 25 28  1  0  0  0  0
 28 29  2  0  0  0  0
 29 30  1  0  0  0  0
 30 31  1  0  0  0  0
 31 32  1  0  0  0  0
 32 33  1  0  0  0  0
 33 34  2  0  0  0  0
 34 35  1  0  0  0  0
 35 36  1  0  0  0  0
 36 37  1  0  0  0  0
 37 38  1  0  0  0  0
 36 39  1  0  0  0  0
 39 40  1  0  0  0  0
 40 41  1  0  0  0  0
 41 42  1  0  0  0  0
 42 43  1  0  0  0  0
 41 44  1  0  0  0  0
 44 45  1  0  0  0  0
 33 46  1  0  0  0  0
 46 47  2  0  0  0  0
 47 48  1  0  0  0  0
 48 49  2  0  0  0  0
 48 50  1  0  0  0  0
 50 51  2  0  0  0  0
 51 52  1  0  0  0  0
 51 53  1  0  0  0  0
 53 54  2  0  0  0  0
 54 55  1  0  0  0  0
 54 56  1  0  0  0  0
 56 57  2  0  0  0  0
 57 58  1  0  0  0  0
 58 59  2  0  0  0  0
 59 60  1  0  0  0  0
 60 61  3  0  0  0  0
 59 62  1  0  0  0  0
 62 63  3  0  0  0  0
 13  2  1  0  0  0  0
 43 19  2  0  0  0  0
 58 47  1  0  0  0  0
 12  5  1  0  0  0  0
 42 21  2  0  0  0  0
 57 50  1  0  0  0  0
 40 22  2  0  0  0  0
 29 23  1  0  0  0  0
 39 30  2  0  0  0  0
 35 31  2  0  0  0  0
  1 64  1  0  0  0  0
  8 65  1  0  0  0  0
 11 66  1  0  0  0  0
 26 67  1  0  0  0  0
 26 68  1  0  0  0  0
 27 69  1  0  0  0  0
 27 70  1  0  0  0  0
 27 71  1  0  0  0  0
 34 72  1  0  0  0  0
 37 73  1  0  0  0  0
 37 74  1  0  0  0  0
 38 75  1  0  0  0  0
 38 76  1  0  0  0  0
 38 77  1  0  0  0  0
 43 78  1  0  0  0  0
 44 79  1  0  0  0  0
 44 80  1  0  0  0  0
 45 81  1  0  0  0  0
 45 82  1  0  0  0  0
 45 83  1  0  0  0  0
 46 84  1  0  0  0  0
 53 85  1  0  0  0  0
 56 86  1  0  0  0  0
M  END
