
  xtb     01262218353D
 energy: -169.156892868941 gnorm: 0.000841568046 xtb: 6.4.1 (unknown)
 86 95  0     0  0            999 V2000
   -5.9880    1.7714    0.8761 C   0  0  0  0  0  0  0  0  0  0  0  0
   -7.1453    1.8916    0.1457 C   0  0  0  0  0  0  0  0  0  0  0  0
   -7.2671    1.7027   -1.3049 C   0  0  0  0  0  0  0  0  0  0  0  0
   -6.3801    1.4447   -2.0947 O   0  0  0  0  0  0  0  0  0  0  0  0
   -8.6975    1.8925   -1.6183 C   0  0  0  0  0  0  0  0  0  0  0  0
   -9.3558    1.8096   -2.8360 C   0  0  0  0  0  0  0  0  0  0  0  0
   -8.5087    1.4451   -4.2791 Cl  0  0  0  0  0  0  0  0  0  0  0  0
  -10.7310    2.0265   -2.8726 C   0  0  0  0  0  0  0  0  0  0  0  0
  -11.4046    2.3194   -1.6987 C   0  0  0  0  0  0  0  0  0  0  0  0
  -13.2758    2.6091   -1.7739 Br  0  0  0  0  0  0  0  0  0  0  0  0
  -10.7646    2.4091   -0.4662 C   0  0  0  0  0  0  0  0  0  0  0  0
   -9.3991    2.1918   -0.4354 C   0  0  0  0  0  0  0  0  0  0  0  0
   -8.4504    2.2071    0.6823 C   0  0  0  0  0  0  0  0  0  0  0  0
   -8.7788    2.4800    1.9858 C   0  0  0  0  0  0  0  0  0  0  0  0
   -7.8829    2.5052    3.0752 C   0  0  0  0  0  0  0  0  0  0  0  0
   -7.2274    2.5445    4.0181 N   0  0  0  0  0  0  0  0  0  0  0  0
  -10.0820    2.7872    2.4319 C   0  0  0  0  0  0  0  0  0  0  0  0
  -11.1142    3.0412    2.8651 N   0  0  0  0  0  0  0  0  0  0  0  0
   -4.6814    1.4547    0.4844 C   0  0  0  0  0  0  0  0  0  0  0  0
   -4.1203    1.1292   -1.1574 S   0  0  0  0  0  0  0  0  0  0  0  0
   -2.5412    0.8565   -0.5515 C   0  0  0  0  0  0  0  0  0  0  0  0
   -1.2611    0.5185   -1.0063 C   0  0  0  0  0  0  0  0  0  0  0  0
   -0.7398    0.3508   -2.3049 C   0  0  0  0  0  0  0  0  0  0  0  0
   -1.2865    0.4378   -3.5186 N   0  0  0  0  0  0  0  0  0  0  0  0
   -0.2844    0.2339   -4.3348 N   0  0  0  0  0  0  0  0  0  0  0  0
   -0.4489    0.2916   -5.7585 C   0  0  0  0  0  0  0  0  0  0  0  0
   -0.4725    1.7406   -6.2352 C   0  0  0  0  0  0  0  0  0  0  0  0
    0.8845    0.0175   -3.7866 N   0  0  0  0  0  0  0  0  0  0  0  0
    0.6433    0.0815   -2.4757 C   0  0  0  0  0  0  0  0  0  0  0  0
    1.4538   -0.1317   -1.3430 C   0  0  0  0  0  0  0  0  0  0  0  0
    2.7799   -0.5518   -1.2115 C   0  0  0  0  0  0  0  0  0  0  0  0
    4.1411   -0.9408   -2.1685 S   0  0  0  0  0  0  0  0  0  0  0  0
    5.0427   -1.3970   -0.7072 C   0  0  0  0  0  0  0  0  0  0  0  0
    4.2934   -1.2172    0.4505 C   0  0  0  0  0  0  0  0  0  0  0  0
    3.0223   -0.7414    0.1635 C   0  0  0  0  0  0  0  0  0  0  0  0
    1.8996   -0.4135    0.8796 N   0  0  0  0  0  0  0  0  0  0  0  0
    1.7693   -0.8568    2.2507 C   0  0  0  0  0  0  0  0  0  0  0  0
    0.7365   -1.9724    2.3892 C   0  0  0  0  0  0  0  0  0  0  0  0
    0.9166   -0.0281   -0.0221 C   0  0  0  0  0  0  0  0  0  0  0  0
   -0.4188    0.4141    0.1419 C   0  0  0  0  0  0  0  0  0  0  0  0
   -1.1692    0.7420    1.2669 N   0  0  0  0  0  0  0  0  0  0  0  0
   -2.4504    1.0044    0.8472 C   0  0  0  0  0  0  0  0  0  0  0  0
   -3.6538    1.3500    1.4321 C   0  0  0  0  0  0  0  0  0  0  0  0
   -0.7175    1.2444    2.5474 C   0  0  0  0  0  0  0  0  0  0  0  0
    0.2885    2.3814    2.3873 C   0  0  0  0  0  0  0  0  0  0  0  0
    6.3514   -1.8574   -0.9141 C   0  0  0  0  0  0  0  0  0  0  0  0
    7.2721   -2.4137   -0.0583 C   0  0  0  0  0  0  0  0  0  0  0  0
    7.0970   -2.8165    1.3501 C   0  0  0  0  0  0  0  0  0  0  0  0
    6.1709   -2.6018    2.1070 O   0  0  0  0  0  0  0  0  0  0  0  0
    8.3126   -3.5854    1.6988 C   0  0  0  0  0  0  0  0  0  0  0  0
    8.6004   -4.2254    2.8880 C   0  0  0  0  0  0  0  0  0  0  0  0
    9.8056   -4.9021    2.9778 C   0  0  0  0  0  0  0  0  0  0  0  0
   10.1254   -5.5403    4.1104 F   0  0  0  0  0  0  0  0  0  0  0  0
   10.6877   -4.9271    1.8972 C   0  0  0  0  0  0  0  0  0  0  0  0
   11.8416   -5.5946    2.0088 F   0  0  0  0  0  0  0  0  0  0  0  0
   10.3998   -4.2792    0.7051 C   0  0  0  0  0  0  0  0  0  0  0  0
    9.1954   -3.5995    0.6083 C   0  0  0  0  0  0  0  0  0  0  0  0
    8.5996   -2.8274   -0.4817 C   0  0  0  0  0  0  0  0  0  0  0  0
    9.2368   -2.5138   -1.6533 C   0  0  0  0  0  0  0  0  0  0  0  0
    8.7333   -1.6886   -2.6827 C   0  0  0  0  0  0  0  0  0  0  0  0
    8.4223   -1.0147   -3.5588 N   0  0  0  0  0  0  0  0  0  0  0  0
   10.5374   -2.9518   -1.9846 C   0  0  0  0  0  0  0  0  0  0  0  0
   11.5865   -3.2764   -2.3179 N   0  0  0  0  0  0  0  0  0  0  0  0
   -6.0781    1.9336    1.9434 H   0  0  0  0  0  0  0  0  0  0  0  0
  -11.2623    1.9652   -3.8089 H   0  0  0  0  0  0  0  0  0  0  0  0
  -11.3333    2.6391    0.4193 H   0  0  0  0  0  0  0  0  0  0  0  0
   -1.3904   -0.2028   -6.0074 H   0  0  0  0  0  0  0  0  0  0  0  0
    0.3900   -0.2486   -6.2002 H   0  0  0  0  0  0  0  0  0  0  0  0
   -1.2952    2.2729   -5.7644 H   0  0  0  0  0  0  0  0  0  0  0  0
   -0.6036    1.7722   -7.3129 H   0  0  0  0  0  0  0  0  0  0  0  0
    0.4613    2.2365   -5.9813 H   0  0  0  0  0  0  0  0  0  0  0  0
    4.6918   -1.4375    1.4227 H   0  0  0  0  0  0  0  0  0  0  0  0
    1.5424   -0.0149    2.9060 H   0  0  0  0  0  0  0  0  0  0  0  0
    2.7480   -1.2392    2.5460 H   0  0  0  0  0  0  0  0  0  0  0  0
    1.0388   -2.8321    1.7957 H   0  0  0  0  0  0  0  0  0  0  0  0
    0.6628   -2.2799    3.4289 H   0  0  0  0  0  0  0  0  0  0  0  0
   -0.2444   -1.6518    2.0473 H   0  0  0  0  0  0  0  0  0  0  0  0
   -3.8332    1.5122    2.4801 H   0  0  0  0  0  0  0  0  0  0  0  0
   -1.6038    1.6234    3.0597 H   0  0  0  0  0  0  0  0  0  0  0  0
   -0.3147    0.4371    3.1608 H   0  0  0  0  0  0  0  0  0  0  0  0
    0.5958    2.7432    3.3649 H   0  0  0  0  0  0  0  0  0  0  0  0
    1.1705    2.0575    1.8406 H   0  0  0  0  0  0  0  0  0  0  0  0
   -0.1656    3.2047    1.8405 H   0  0  0  0  0  0  0  0  0  0  0  0
    6.6611   -1.7830   -1.9499 H   0  0  0  0  0  0  0  0  0  0  0  0
    7.9142   -4.2042    3.7195 H   0  0  0  0  0  0  0  0  0  0  0  0
   11.1148   -4.3317   -0.0991 H   0  0  0  0  0  0  0  0  0  0  0  0
  1  2  2  0  0  0  0
  2  3  1  0  0  0  0
  3  4  2  0  0  0  0
  3  5  1  0  0  0  0
  5  6  2  0  0  0  0
  6  7  1  0  0  0  0
  6  8  1  0  0  0  0
  8  9  2  0  0  0  0
  9 10  1  0  0  0  0
  9 11  1  0  0  0  0
 11 12  2  0  0  0  0
 12 13  1  0  0  0  0
 13 14  2  0  0  0  0
 14 15  1  0  0  0  0
 15 16  3  0  0  0  0
 14 17  1  0  0  0  0
 17 18  3  0  0  0  0
  1 19  1  0  0  0  0
 19 20  1  0  0  0  0
 20 21  1  0  0  0  0
 21 22  1  0  0  0  0
 22 23  1  0  0  0  0
 23 24  2  0  0  0  0
 24 25  1  0  0  0  0
 25 26  1  0  0  0  0
 26 27  1  0  0  0  0
 25 28  1  0  0  0  0
 28 29  2  0  0  0  0
 29 30  1  0  0  0  0
 30 31  1  0  0  0  0
 31 32  1  0  0  0  0
 32 33  1  0  0  0  0
 33 34  2  0  0  0  0
 34 35  1  0  0  0  0
 35 36  1  0  0  0  0
 36 37  1  0  0  0  0
 37 38  1  0  0  0  0
 36 39  1  0  0  0  0
 39 40  1  0  0  0  0
 40 41  1  0  0  0  0
 41 42  1  0  0  0  0
 42 43  1  0  0  0  0
 41 44  1  0  0  0  0
 44 45  1  0  0  0  0
 33 46  1  0  0  0  0
 46 47  2  0  0  0  0
 47 48  1  0  0  0  0
 48 49  2  0  0  0  0
 48 50  1  0  0  0  0
 50 51  2  0  0  0  0
 51 52  1  0  0  0  0
 52 53  1  0  0  0  0
 52 54  2  0  0  0  0
 54 55  1  0  0  0  0
 54 56  1  0  0  0  0
 56 57  2  0  0  0  0
 57 58  1  0  0  0  0
 58 59  2  0  0  0  0
 59 60  1  0  0  0  0
 60 61  3  0  0  0  0
 59 62  1  0  0  0  0
 62 63  3  0  0  0  0
 13  2  1  0  0  0  0
 43 19  2  0  0  0  0
 58 47  1  0  0  0  0
 12  5  1  0  0  0  0
 42 21  2  0  0  0  0
 57 50  1  0  0  0  0
 40 22  2  0  0  0  0
 29 23  1  0  0  0  0
 39 30  2  0  0  0  0
 35 31  2  0  0  0  0
  1 64  1  0  0  0  0
  8 65  1  0  0  0  0
 11 66  1  0  0  0  0
 26 67  1  0  0  0  0
 26 68  1  0  0  0  0
 27 69  1  0  0  0  0
 27 70  1  0  0  0  0
 27 71  1  0  0  0  0
 34 72  1  0  0  0  0
 37 73  1  0  0  0  0
 37 74  1  0  0  0  0
 38 75  1  0  0  0  0
 38 76  1  0  0  0  0
 38 77  1  0  0  0  0
 43 78  1  0  0  0  0
 44 79  1  0  0  0  0
 44 80  1  0  0  0  0
 45 81  1  0  0  0  0
 45 82  1  0  0  0  0
 45 83  1  0  0  0  0
 46 84  1  0  0  0  0
 51 85  1  0  0  0  0
 56 86  1  0  0  0  0
M  END
