109

C          1.39780        7.67130        2.36590
C          0.37380        8.50370        2.69980
C          0.62690        9.94120        2.96870
O          1.70220       10.47060        3.12700
C         -0.71100       10.57670        2.95090
C         -1.06340       11.91550        3.03580
Cl         0.12500       13.13370        3.23230
C         -2.40960       12.26480        2.95890
C         -3.36370       11.27400        2.79720
Br        -5.18630       11.77950        2.67220
C         -3.03820        9.92390        2.72090
C         -1.70050        9.58450        2.80420
C         -1.04940        8.27330        2.79770
C         -1.66650        7.08750        3.10110
C         -0.97590        5.89470        3.40460
N         -0.48410        4.91700        3.75190
C         -3.06020        6.93610        3.24190
N         -4.18960        6.75260        3.33710
C          1.30030        6.38170        1.75440
C          0.24980        6.07420        0.86010
C          0.09790        4.82230        0.32720
C          0.97430        3.80320        0.71710
C          1.09190        2.41700        0.49320
C          2.25510        1.98340        1.14810
N          2.86520        3.02170        1.78080
C          2.08890        4.13430        1.56440
C          2.26460        5.41320        2.04750
C          3.97640        2.90750        2.69030
C          3.49500        2.75520        4.13220
C          2.41160        0.61680        0.87890
C          3.45310       -0.30540        1.11130
C          3.38030       -1.61360        0.55760
N          4.51640       -2.24570        0.86360
N          5.20480       -1.36060        1.54570
C          6.48740       -1.66850        2.10740
C          6.34840       -2.11140        3.56140
N          4.63230       -0.19370        1.72810
C          2.20890       -2.02610       -0.10930
C          1.11120       -1.12640       -0.24090
C          1.27040        0.23380        0.11540
N          0.48400        1.34960       -0.12840
C         -0.48020        1.56090       -1.18770
C         -1.84800        2.00540       -0.66650
N          0.02200       -1.79570       -0.77740
C         -1.36070       -1.49680       -0.47480
C         -1.93090       -2.44690        0.57820
C          0.43030       -3.08760       -1.02360
C          1.76850       -3.25050       -0.63710
N          2.16780       -4.53720       -0.83700
C          3.50480       -5.04090       -0.65530
C          4.27080       -5.08950       -1.97620
C          1.09070       -5.21540       -1.36300
C         -0.03290       -4.32880       -1.49540
C         -1.23230       -4.81530       -2.02540
C         -1.33830       -6.14580       -2.33060
C         -0.25830       -7.03670       -2.14090
C          0.98220       -6.54440       -1.70760
C         -0.35510       -8.43720       -2.41060
C         -1.44010       -9.25840       -2.31210
C         -2.72520       -8.95380       -1.61740
O         -3.08040       -7.92490       -1.08660
C         -3.44360      -10.22960       -1.63300
S         -4.94920      -10.78780       -1.04500
C         -4.57490      -12.37450       -1.65390
Br        -5.80620      -13.76870       -1.43030
C         -3.35890      -12.47010       -2.27180
C         -2.70510      -11.22460       -2.25460
C         -1.44650      -10.65930       -2.70410
C         -0.49530      -11.35400       -3.40460
C         -0.65990      -12.71950       -3.71850
N         -0.77410      -13.83090       -3.98030
C          0.71830      -10.83410       -3.89630
N          1.72290      -10.48680       -4.33190
H          2.39400        8.05670        2.55770
H         -2.70150       13.30080        3.02300
H         -3.81150        9.18400        2.59300
H         -0.42350        6.86520        0.56340
H         -0.69460        4.63270       -0.37980
H          3.08460        5.65890        2.70470
H          4.60610        3.79590        2.58990
H          4.55050        2.02500        2.39600
H          2.92480        1.83560        4.23700
H          2.85590        3.58900        4.41340
H          4.34540        2.71760        4.80730
H          7.10460       -0.76960        2.04300
H          6.92420       -2.46510        1.50230
H          5.73000       -3.00340        3.62570
H          7.32750       -2.33290        3.97600
H          5.88760       -1.32140        4.14930
H         -0.08340        2.35280       -1.83560
H         -0.56050        0.65290       -1.78700
H         -2.40270        1.19210       -0.20720
H         -1.72840        2.78490        0.08010
H         -2.44060        2.39440       -1.49030
H         -1.40270       -0.48870       -0.07420
H         -1.95430       -1.55410       -1.39350
H         -2.94840       -2.15070        0.81940
H         -1.33100       -2.40060        1.48470
H         -1.94370       -3.47310        0.22330
H          3.44840       -6.04070       -0.21450
H          4.01340       -4.36950        0.04130
H          4.35210       -4.08980       -2.39610
H          3.76090       -5.72740       -2.69450
H          5.27100       -5.47930       -1.81010
H         -2.06600       -4.14980       -2.19050
H         -2.25420       -6.52040       -2.75390
H          1.81660       -7.22130       -1.59920
H          0.58160       -8.90680       -2.68960
H         -2.97790      -13.37940       -2.69840
