97

C          4.18620        1.26180       -6.30440
C          4.32780        2.63220       -6.26590
C          3.63350        3.54210       -5.35550
O          2.84110        3.25220       -4.47590
C          4.07610        4.90140       -5.72130
C          3.71770        6.12700       -5.18190
Cl         2.59690        6.23550       -3.89090
C          4.28530        7.28510       -5.70660
C          5.18970        7.18560       -6.75050
Br         5.95060        8.77560       -7.44690
C          5.56280        5.96660       -7.30910
C          4.99570        4.82010       -6.78400
C          5.17560        3.40900       -7.14010
C          6.02230        2.94920       -8.11750
C          6.82900        3.77750       -8.92610
N          7.50840        4.39040       -9.61920
C          6.22760        1.59640       -8.45960
N          6.45960        0.52100       -8.79160
C          3.44870        0.39430       -5.49970
C          3.44990       -1.00370       -5.67560
C          4.22430       -1.75420       -6.70860
C          5.66060       -1.99930       -6.23940
C          2.68400       -1.64260       -4.71350
Se         2.31830       -3.47620       -4.37480
C          1.32690       -2.82910       -2.94040
C          0.60560       -3.32760       -1.85270
C          0.43750       -4.65800       -1.41200
C         -0.19970       -4.88700       -0.15330
N         -0.23200       -6.16820        0.17640
S          0.48040       -7.01630       -1.00760
N          0.85800       -5.77590       -1.98180
C         -0.74190       -3.78540        0.54300
C         -1.48740       -3.75080        1.72530
Se        -2.08950       -4.92740        3.03280
C         -2.90290       -3.38490        3.78660
C         -3.67850       -3.19510        4.92020
C         -3.99390       -4.30450        5.86900
C         -2.99280       -4.33000        7.02670
C         -4.05330       -1.84710        5.07540
S         -3.42690       -0.83800        3.77140
C         -2.67320       -2.20840        3.04820
C         -1.88390       -2.41990        1.91270
N         -1.38670       -1.63500        0.90210
C         -0.66450       -2.45120        0.04780
C          0.12610       -2.20860       -1.10870
N          0.59760       -1.06510       -1.71800
C          1.31730       -1.43120       -2.82430
C          2.07460       -0.76700       -3.79400
S          2.45070        0.88060       -4.12920
C          0.64290        0.30270       -1.25420
C         -0.34650        1.19560       -2.00250
C         -2.05160       -0.37610        0.63840
C         -3.32360       -0.59790       -0.17780
C         -4.82270       -1.39110        6.14630
C         -5.25570       -0.12640        6.47620
C         -4.99090        1.10070        5.72670
O         -4.37380        1.22480        4.68310
C         -5.63460        2.19120        6.48930
C         -5.66060        3.53980        6.20040
C         -6.33330        4.38690        7.07340
Cl        -6.40360        6.07940        6.77520
C         -6.95550        3.85060        8.20240
F         -7.60120        4.67130        9.03940
C         -6.93340        2.49560        8.49720
C         -6.26150        1.65310        7.62610
C         -6.04770        0.20600        7.64250
C         -6.52870       -0.64830        8.60250
C         -7.30300       -0.23710        9.70810
N         -7.93000        0.02880       10.63210
C         -6.33550       -2.04470        8.63800
N         -6.22750       -3.18450        8.73800
H          4.74360        0.75500       -7.08000
H          4.02040        8.24830       -5.30070
H          6.26970        5.94150       -8.12160
H          3.73140       -2.71960       -6.86160
H          4.23730       -1.22170       -7.66040
H          6.18050       -1.05780       -6.07950
H          5.66060       -2.56170       -5.30790
H          6.20180       -2.56570       -6.99150
H         -3.92400       -5.24790        5.31810
H         -5.00640       -4.21370        6.26470
H         -3.03350       -3.40240        7.59260
H         -1.98180       -4.46230        6.64670
H         -3.22580       -5.15220        7.69710
H          0.48440        0.31450       -0.17470
H          1.65480        0.67800       -1.43960
H         -1.34810        0.77270       -2.00120
H         -0.02890        1.31420       -3.03470
H         -0.37500        2.17960       -1.54330
H         -2.30740        0.06100        1.60690
H         -1.39640        0.31180        0.11830
H         -3.81700        0.35330       -0.35560
H         -4.01020       -1.24830        0.35870
H         -3.08840       -1.05910       -1.13540
H         -5.11260       -2.17870        6.82790
H         -5.17050        3.92400        5.32020
H         -7.43480        2.14970        9.38610
