
  xtb     02102222363D
 energy: -190.084090130068 gnorm: 0.000860647250 xtb: 6.4.1 (unknown)
 97108  0     0  0            999 V2000
    4.1862    1.2618   -6.3044 C   0  0  0  0  0  0  0  0  0  0  0  0
    4.3278    2.6322   -6.2659 C   0  0  0  0  0  0  0  0  0  0  0  0
    3.6335    3.5421   -5.3555 C   0  0  0  0  0  0  0  0  0  0  0  0
    2.8411    3.2522   -4.4759 O   0  0  0  0  0  0  0  0  0  0  0  0
    4.0761    4.9014   -5.7213 C   0  0  0  0  0  0  0  0  0  0  0  0
    3.7177    6.1270   -5.1819 C   0  0  0  0  0  0  0  0  0  0  0  0
    2.5969    6.2355   -3.8909 Cl  0  0  0  0  0  0  0  0  0  0  0  0
    4.2853    7.2851   -5.7066 C   0  0  0  0  0  0  0  0  0  0  0  0
    5.1897    7.1856   -6.7505 C   0  0  0  0  0  0  0  0  0  0  0  0
    5.9506    8.7756   -7.4469 Br  0  0  0  0  0  0  0  0  0  0  0  0
    5.5628    5.9666   -7.3091 C   0  0  0  0  0  0  0  0  0  0  0  0
    4.9957    4.8201   -6.7840 C   0  0  0  0  0  0  0  0  0  0  0  0
    5.1756    3.4090   -7.1401 C   0  0  0  0  0  0  0  0  0  0  0  0
    6.0223    2.9492   -8.1175 C   0  0  0  0  0  0  0  0  0  0  0  0
    6.8290    3.7775   -8.9261 C   0  0  0  0  0  0  0  0  0  0  0  0
    7.5084    4.3904   -9.6192 N   0  0  0  0  0  0  0  0  0  0  0  0
    6.2276    1.5964   -8.4596 C   0  0  0  0  0  0  0  0  0  0  0  0
    6.4596    0.5210   -8.7916 N   0  0  0  0  0  0  0  0  0  0  0  0
    3.4487    0.3943   -5.4997 C   0  0  0  0  0  0  0  0  0  0  0  0
    3.4499   -1.0037   -5.6756 C   0  0  0  0  0  0  0  0  0  0  0  0
    4.2243   -1.7542   -6.7086 C   0  0  0  0  0  0  0  0  0  0  0  0
    5.6606   -1.9993   -6.2394 C   0  0  0  0  0  0  0  0  0  0  0  0
    2.6840   -1.6426   -4.7135 C   0  0  0  0  0  0  0  0  0  0  0  0
    2.3183   -3.4762   -4.3748 Se  0  0  0  0  0  2  0  0  0  0  0  0
    1.3269   -2.8291   -2.9404 C   0  0  0  0  0  0  0  0  0  0  0  0
    0.6056   -3.3276   -1.8527 C   0  0  0  0  0  0  0  0  0  0  0  0
    0.4375   -4.6580   -1.4120 C   0  0  0  0  0  0  0  0  0  0  0  0
   -0.1997   -4.8870   -0.1533 C   0  0  0  0  0  0  0  0  0  0  0  0
   -0.2320   -6.1682    0.1764 N   0  0  0  0  0  0  0  0  0  0  0  0
    0.4804   -7.0163   -1.0076 S   0  0  0  0  0  0  0  0  0  0  0  0
    0.8580   -5.7759   -1.9818 N   0  0  0  0  0  0  0  0  0  0  0  0
   -0.7419   -3.7854    0.5430 C   0  0  0  0  0  0  0  0  0  0  0  0
   -1.4874   -3.7508    1.7253 C   0  0  0  0  0  0  0  0  0  0  0  0
   -2.0895   -4.9274    3.0328 Se  0  0  0  0  0  2  0  0  0  0  0  0
   -2.9029   -3.3849    3.7866 C   0  0  0  0  0  0  0  0  0  0  0  0
   -3.6785   -3.1951    4.9202 C   0  0  0  0  0  0  0  0  0  0  0  0
   -3.9939   -4.3045    5.8690 C   0  0  0  0  0  0  0  0  0  0  0  0
   -2.9928   -4.3300    7.0267 C   0  0  0  0  0  0  0  0  0  0  0  0
   -4.0533   -1.8471    5.0754 C   0  0  0  0  0  0  0  0  0  0  0  0
   -3.4269   -0.8380    3.7714 S   0  0  0  0  0  0  0  0  0  0  0  0
   -2.6732   -2.2084    3.0482 C   0  0  0  0  0  0  0  0  0  0  0  0
   -1.8839   -2.4199    1.9127 C   0  0  0  0  0  0  0  0  0  0  0  0
   -1.3867   -1.6350    0.9021 N   0  0  0  0  0  0  0  0  0  0  0  0
   -0.6645   -2.4512    0.0478 C   0  0  0  0  0  0  0  0  0  0  0  0
    0.1261   -2.2086   -1.1087 C   0  0  0  0  0  0  0  0  0  0  0  0
    0.5976   -1.0651   -1.7180 N   0  0  0  0  0  0  0  0  0  0  0  0
    1.3173   -1.4312   -2.8243 C   0  0  0  0  0  0  0  0  0  0  0  0
    2.0746   -0.7670   -3.7940 C   0  0  0  0  0  0  0  0  0  0  0  0
    2.4507    0.8806   -4.1292 S   0  0  0  0  0  0  0  0  0  0  0  0
    0.6429    0.3027   -1.2542 C   0  0  0  0  0  0  0  0  0  0  0  0
   -0.3465    1.1956   -2.0025 C   0  0  0  0  0  0  0  0  0  0  0  0
   -2.0516   -0.3761    0.6384 C   0  0  0  0  0  0  0  0  0  0  0  0
   -3.3236   -0.5979   -0.1778 C   0  0  0  0  0  0  0  0  0  0  0  0
   -4.8227   -1.3911    6.1463 C   0  0  0  0  0  0  0  0  0  0  0  0
   -5.2557   -0.1264    6.4762 C   0  0  0  0  0  0  0  0  0  0  0  0
   -4.9909    1.1007    5.7267 C   0  0  0  0  0  0  0  0  0  0  0  0
   -4.3738    1.2248    4.6831 O   0  0  0  0  0  0  0  0  0  0  0  0
   -5.6346    2.1912    6.4893 C   0  0  0  0  0  0  0  0  0  0  0  0
   -5.6606    3.5398    6.2004 C   0  0  0  0  0  0  0  0  0  0  0  0
   -6.3333    4.3869    7.0734 C   0  0  0  0  0  0  0  0  0  0  0  0
   -6.4036    6.0794    6.7752 Cl  0  0  0  0  0  0  0  0  0  0  0  0
   -6.9555    3.8506    8.2024 C   0  0  0  0  0  0  0  0  0  0  0  0
   -7.6012    4.6713    9.0394 F   0  0  0  0  0  0  0  0  0  0  0  0
   -6.9334    2.4956    8.4972 C   0  0  0  0  0  0  0  0  0  0  0  0
   -6.2615    1.6531    7.6261 C   0  0  0  0  0  0  0  0  0  0  0  0
   -6.0477    0.2060    7.6425 C   0  0  0  0  0  0  0  0  0  0  0  0
   -6.5287   -0.6483    8.6025 C   0  0  0  0  0  0  0  0  0  0  0  0
   -7.3030   -0.2371    9.7081 C   0  0  0  0  0  0  0  0  0  0  0  0
   -7.9300    0.0288   10.6321 N   0  0  0  0  0  0  0  0  0  0  0  0
   -6.3355   -2.0447    8.6380 C   0  0  0  0  0  0  0  0  0  0  0  0
   -6.2275   -3.1845    8.7380 N   0  0  0  0  0  0  0  0  0  0  0  0
    4.7436    0.7550   -7.0800 H   0  0  0  0  0  0  0  0  0  0  0  0
    4.0204    8.2483   -5.3007 H   0  0  0  0  0  0  0  0  0  0  0  0
    6.2697    5.9415   -8.1216 H   0  0  0  0  0  0  0  0  0  0  0  0
    3.7314   -2.7196   -6.8616 H   0  0  0  0  0  0  0  0  0  0  0  0
    4.2373   -1.2217   -7.6604 H   0  0  0  0  0  0  0  0  0  0  0  0
    6.1805   -1.0578   -6.0795 H   0  0  0  0  0  0  0  0  0  0  0  0
    5.6606   -2.5617   -5.3079 H   0  0  0  0  0  0  0  0  0  0  0  0
    6.2018   -2.5657   -6.9915 H   0  0  0  0  0  0  0  0  0  0  0  0
   -3.9240   -5.2479    5.3181 H   0  0  0  0  0  0  0  0  0  0  0  0
   -5.0064   -4.2137    6.2647 H   0  0  0  0  0  0  0  0  0  0  0  0
   -3.0335   -3.4024    7.5926 H   0  0  0  0  0  0  0  0  0  0  0  0
   -1.9818   -4.4623    6.6467 H   0  0  0  0  0  0  0  0  0  0  0  0
   -3.2258   -5.1522    7.6971 H   0  0  0  0  0  0  0  0  0  0  0  0
    0.4844    0.3145   -0.1747 H   0  0  0  0  0  0  0  0  0  0  0  0
    1.6548    0.6780   -1.4396 H   0  0  0  0  0  0  0  0  0  0  0  0
   -1.3481    0.7727   -2.0012 H   0  0  0  0  0  0  0  0  0  0  0  0
   -0.0289    1.3142   -3.0347 H   0  0  0  0  0  0  0  0  0  0  0  0
   -0.3750    2.1796   -1.5433 H   0  0  0  0  0  0  0  0  0  0  0  0
   -2.3074    0.0610    1.6069 H   0  0  0  0  0  0  0  0  0  0  0  0
   -1.3964    0.3118    0.1183 H   0  0  0  0  0  0  0  0  0  0  0  0
   -3.8170    0.3533   -0.3556 H   0  0  0  0  0  0  0  0  0  0  0  0
   -4.0102   -1.2483    0.3587 H   0  0  0  0  0  0  0  0  0  0  0  0
   -3.0884   -1.0591   -1.1354 H   0  0  0  0  0  0  0  0  0  0  0  0
   -5.1126   -2.1787    6.8279 H   0  0  0  0  0  0  0  0  0  0  0  0
   -5.1705    3.9240    5.3202 H   0  0  0  0  0  0  0  0  0  0  0  0
   -7.4348    2.1497    9.3861 H   0  0  0  0  0  0  0  0  0  0  0  0
  1  2  2  0  0  0  0
  2  3  1  0  0  0  0
  3  4  2  0  0  0  0
  3  5  1  0  0  0  0
  5  6  2  0  0  0  0
  6  7  1  0  0  0  0
  6  8  1  0  0  0  0
  8  9  2  0  0  0  0
  9 10  1  0  0  0  0
  9 11  1  0  0  0  0
 11 12  2  0  0  0  0
 12 13  1  0  0  0  0
 13 14  2  0  0  0  0
 14 15  1  0  0  0  0
 15 16  3  0  0  0  0
 14 17  1  0  0  0  0
 17 18  3  0  0  0  0
  1 19  1  0  0  0  0
 19 20  2  0  0  0  0
 20 21  1  0  0  0  0
 21 22  1  0  0  0  0
 20 23  1  0  0  0  0
 23 24  1  0  0  0  0
 24 25  1  0  0  0  0
 25 26  1  0  0  0  0
 26 27  1  0  0  0  0
 27 28  1  0  0  0  0
 28 29  2  0  0  0  0
 29 30  1  0  0  0  0
 30 31  1  0  0  0  0
 28 32  1  0  0  0  0
 32 33  1  0  0  0  0
 33 34  1  0  0  0  0
 34 35  1  0  0  0  0
 35 36  1  0  0  0  0
 36 37  1  0  0  0  0
 37 38  1  0  0  0  0
 36 39  2  0  0  0  0
 39 40  1  0  0  0  0
 40 41  1  0  0  0  0
 41 42  1  0  0  0  0
 42 43  1  0  0  0  0
 43 44  1  0  0  0  0
 44 45  1  0  0  0  0
 45 46  1  0  0  0  0
 46 47  1  0  0  0  0
 47 48  1  0  0  0  0
 48 49  1  0  0  0  0
 46 50  1  0  0  0  0
 50 51  1  0  0  0  0
 43 52  1  0  0  0  0
 52 53  1  0  0  0  0
 39 54  1  0  0  0  0
 54 55  2  0  0  0  0
 55 56  1  0  0  0  0
 56 57  2  0  0  0  0
 56 58  1  0  0  0  0
 58 59  2  0  0  0  0
 59 60  1  0  0  0  0
 60 61  1  0  0  0  0
 60 62  2  0  0  0  0
 62 63  1  0  0  0  0
 62 64  1  0  0  0  0
 64 65  2  0  0  0  0
 65 66  1  0  0  0  0
 66 67  2  0  0  0  0
 67 68  1  0  0  0  0
 68 69  3  0  0  0  0
 67 70  1  0  0  0  0
 70 71  3  0  0  0  0
 13  2  1  0  0  0  0
 49 19  1  0  0  0  0
 66 55  1  0  0  0  0
 12  5  1  0  0  0  0
 48 23  2  0  0  0  0
 65 58  1  0  0  0  0
 47 25  2  0  0  0  0
 45 26  2  0  0  0  0
 31 27  2  0  0  0  0
 44 32  2  0  0  0  0
 42 33  2  0  0  0  0
 41 35  2  0  0  0  0
  1 72  1  0  0  0  0
  8 73  1  0  0  0  0
 11 74  1  0  0  0  0
 21 75  1  0  0  0  0
 21 76  1  0  0  0  0
 22 77  1  0  0  0  0
 22 78  1  0  0  0  0
 22 79  1  0  0  0  0
 37 80  1  0  0  0  0
 37 81  1  0  0  0  0
 38 82  1  0  0  0  0
 38 83  1  0  0  0  0
 38 84  1  0  0  0  0
 50 85  1  0  0  0  0
 50 86  1  0  0  0  0
 51 87  1  0  0  0  0
 51 88  1  0  0  0  0
 51 89  1  0  0  0  0
 52 90  1  0  0  0  0
 52 91  1  0  0  0  0
 53 92  1  0  0  0  0
 53 93  1  0  0  0  0
 53 94  1  0  0  0  0
 54 95  1  0  0  0  0
 59 96  1  0  0  0  0
 64 97  1  0  0  0  0
M  END
