
  xtb     02112208283D
 energy: -199.913739882051 gnorm: 0.000934572806 xtb: 6.4.1 (unknown)
110124  0     0  0            999 V2000
   -2.1700    4.0265    8.2756 C   0  0  0  0  0  0  0  0  0  0  0  0
   -3.5427    3.9011    8.2965 C   0  0  0  0  0  0  0  0  0  0  0  0
   -4.3421    3.0481    7.4181 C   0  0  0  0  0  0  0  0  0  0  0  0
   -3.9464    2.3289    6.5174 O   0  0  0  0  0  0  0  0  0  0  0  0
   -5.7451    3.2301    7.8389 C   0  0  0  0  0  0  0  0  0  0  0  0
   -6.9025    2.6496    7.3445 C   0  0  0  0  0  0  0  0  0  0  0  0
   -6.8514    1.5328    6.0460 Cl  0  0  0  0  0  0  0  0  0  0  0  0
   -8.1242    2.9861    7.9216 C   0  0  0  0  0  0  0  0  0  0  0  0
   -8.1533    3.8892    8.9709 C   0  0  0  0  0  0  0  0  0  0  0  0
   -9.8276    4.3303    9.7419 Br  0  0  0  0  0  0  0  0  0  0  0  0
   -7.0047    4.4856    9.4828 C   0  0  0  0  0  0  0  0  0  0  0  0
   -5.7946    4.1474    8.9053 C   0  0  0  0  0  0  0  0  0  0  0  0
   -4.4288    4.5894    9.2057 C   0  0  0  0  0  0  0  0  0  0  0  0
   -4.0967    5.5025   10.1753 C   0  0  0  0  0  0  0  0  0  0  0  0
   -2.7928    5.9488   10.4750 C   0  0  0  0  0  0  0  0  0  0  0  0
   -1.7667    6.3679   10.7785 N   0  0  0  0  0  0  0  0  0  0  0  0
   -5.0285    6.1376   11.0230 C   0  0  0  0  0  0  0  0  0  0  0  0
   -5.7306    6.6931   11.7416 N   0  0  0  0  0  0  0  0  0  0  0  0
   -1.2070    3.4363    7.4590 C   0  0  0  0  0  0  0  0  0  0  0  0
    0.1745    3.6814    7.6054 C   0  0  0  0  0  0  0  0  0  0  0  0
    0.8005    4.5341    8.6594 C   0  0  0  0  0  0  0  0  0  0  0  0
    0.9550    3.7561    9.9694 C   0  0  0  0  0  0  0  0  0  0  0  0
    0.9137    2.9797    6.6669 C   0  0  0  0  0  0  0  0  0  0  0  0
    2.6379    2.8735    6.3499 S   0  0  0  0  0  0  0  0  0  0  0  0
    2.3008    1.8035    5.0343 C   0  0  0  0  0  0  0  0  0  0  0  0
    2.9875    1.0758    4.0520 C   0  0  0  0  0  0  0  0  0  0  0  0
    4.3730    0.8707    3.8381 C   0  0  0  0  0  0  0  0  0  0  0  0
    4.7824   -0.0173    2.7796 C   0  0  0  0  0  0  0  0  0  0  0  0
    6.0839   -0.2016    2.6827 N   0  0  0  0  0  0  0  0  0  0  0  0
    6.8866    0.7492    3.9316 Se  0  0  0  0  0  2  0  0  0  0  0  0
    5.3593    1.3774    4.5506 N   0  0  0  0  0  0  0  0  0  0  0  0
    3.7912   -0.5340    1.9086 C   0  0  0  0  0  0  0  0  0  0  0  0
    3.9066   -1.2223    0.6932 C   0  0  0  0  0  0  0  0  0  0  0  0
    5.1403   -1.8856   -0.3199 S   0  0  0  0  0  0  0  0  0  0  0  0
    3.9124   -2.2593   -1.5165 C   0  0  0  0  0  0  0  0  0  0  0  0
    3.9818   -2.8365   -2.7783 C   0  0  0  0  0  0  0  0  0  0  0  0
    5.2717   -3.2584   -3.4023 C   0  0  0  0  0  0  0  0  0  0  0  0
    5.8439   -2.1410   -4.2789 C   0  0  0  0  0  0  0  0  0  0  0  0
    2.7146   -2.9005   -3.3819 C   0  0  0  0  0  0  0  0  0  0  0  0
    1.4474   -2.2552   -2.3393 S   0  0  0  0  0  0  0  0  0  0  0  0
    2.6149   -1.8881   -1.1265 C   0  0  0  0  0  0  0  0  0  0  0  0
    2.6188   -1.3073    0.1450 C   0  0  0  0  0  0  0  0  0  0  0  0
    1.7147   -0.7265    0.9926 N   0  0  0  0  0  0  0  0  0  0  0  0
    2.4048   -0.2620    2.0916 C   0  0  0  0  0  0  0  0  0  0  0  0
    1.9956    0.4285    3.2596 C   0  0  0  0  0  0  0  0  0  0  0  0
    0.7501    0.7036    3.7881 N   0  0  0  0  0  0  0  0  0  0  0  0
    0.9343    1.5460    4.8549 C   0  0  0  0  0  0  0  0  0  0  0  0
    0.1337    2.2057    5.7864 C   0  0  0  0  0  0  0  0  0  0  0  0
   -1.5484    2.3245    6.1287 S   0  0  0  0  0  0  0  0  0  0  0  0
   -0.4579   -0.0931    3.7375 C   0  0  0  0  0  0  0  0  0  0  0  0
   -0.5228   -1.0628    4.9171 C   0  0  0  0  0  0  0  0  0  0  0  0
    0.3802   -0.4133    0.5301 C   0  0  0  0  0  0  0  0  0  0  0  0
   -0.5285   -1.6429    0.5090 C   0  0  0  0  0  0  0  0  0  0  0  0
    2.5093   -3.3962   -4.6755 C   0  0  0  0  0  0  0  0  0  0  0  0
    1.3626   -3.5175   -5.4190 C   0  0  0  0  0  0  0  0  0  0  0  0
    0.0033   -3.1937   -4.9778 C   0  0  0  0  0  0  0  0  0  0  0  0
   -0.3395   -2.7389   -3.8980 O   0  0  0  0  0  0  0  0  0  0  0  0
   -0.8907   -3.5377   -6.0941 C   0  0  0  0  0  0  0  0  0  0  0  0
   -2.2777   -3.4161   -6.1245 C   0  0  0  0  0  0  0  0  0  0  0  0
   -2.8479   -3.8177   -7.3084 C   0  0  0  0  0  0  0  0  0  0  0  0
   -2.0926   -4.3083   -8.3818 C   0  0  0  0  0  0  0  0  0  0  0  0
   -0.7238   -4.4370   -8.3625 C   0  0  0  0  0  0  0  0  0  0  0  0
   -0.1224   -4.0304   -7.1684 C   0  0  0  0  0  0  0  0  0  0  0  0
    1.2870   -4.0188   -6.7779 C   0  0  0  0  0  0  0  0  0  0  0  0
    2.3325   -4.4007   -7.5799 C   0  0  0  0  0  0  0  0  0  0  0  0
    2.1958   -4.8693   -8.9036 C   0  0  0  0  0  0  0  0  0  0  0  0
    2.1668   -5.2514   -9.9860 N   0  0  0  0  0  0  0  0  0  0  0  0
    3.6974   -4.3812   -7.2255 C   0  0  0  0  0  0  0  0  0  0  0  0
    4.8290   -4.3946   -7.0246 N   0  0  0  0  0  0  0  0  0  0  0  0
   -3.3097   -4.5138   -9.2479 C   0  0  0  0  0  0  0  0  0  0  0  0
   -3.5842   -3.4753  -10.3635 C   0  0  0  0  0  0  0  0  0  0  0  0
   -2.9550   -2.1813   -9.9101 C   0  0  0  0  0  0  0  0  0  0  0  0
   -3.6707   -1.7169   -8.8946 C   0  0  0  0  0  0  0  0  0  0  0  0
   -4.7966   -2.6890   -8.6425 C   0  0  0  0  0  0  0  0  0  0  0  0
   -5.0636   -3.1720  -10.0770 C   0  0  0  0  0  0  0  0  0  0  0  0
   -4.1514   -3.9673   -8.0518 C   0  0  0  0  0  0  0  0  0  0  0  0
   -1.7511    4.6924    9.0173 H   0  0  0  0  0  0  0  0  0  0  0  0
   -9.0360    2.5449    7.5522 H   0  0  0  0  0  0  0  0  0  0  0  0
   -7.0795    5.1824   10.3008 H   0  0  0  0  0  0  0  0  0  0  0  0
    0.2094    5.4332    8.8400 H   0  0  0  0  0  0  0  0  0  0  0  0
    1.7883    4.8388    8.3083 H   0  0  0  0  0  0  0  0  0  0  0  0
   -0.0137    3.4332   10.3434 H   0  0  0  0  0  0  0  0  0  0  0  0
    1.5791    2.8787    9.8167 H   0  0  0  0  0  0  0  0  0  0  0  0
    1.4196    4.3895   10.7195 H   0  0  0  0  0  0  0  0  0  0  0  0
    5.1415   -4.1593   -4.0034 H   0  0  0  0  0  0  0  0  0  0  0  0
    5.9801   -3.4803   -2.6016 H   0  0  0  0  0  0  0  0  0  0  0  0
    6.7896   -2.4588   -4.7080 H   0  0  0  0  0  0  0  0  0  0  0  0
    5.1623   -1.9015   -5.0915 H   0  0  0  0  0  0  0  0  0  0  0  0
    6.0108   -1.2441   -3.6870 H   0  0  0  0  0  0  0  0  0  0  0  0
   -0.4863   -0.6634    2.8173 H   0  0  0  0  0  0  0  0  0  0  0  0
   -1.3135    0.5877    3.7725 H   0  0  0  0  0  0  0  0  0  0  0  0
    0.3432   -1.7220    4.9134 H   0  0  0  0  0  0  0  0  0  0  0  0
   -0.5492   -0.5256    5.8610 H   0  0  0  0  0  0  0  0  0  0  0  0
   -1.4232   -1.6657    4.8409 H   0  0  0  0  0  0  0  0  0  0  0  0
   -0.0272    0.3883    1.1475 H   0  0  0  0  0  0  0  0  0  0  0  0
    0.4667   -0.0322   -0.4934 H   0  0  0  0  0  0  0  0  0  0  0  0
   -0.4758   -2.1987    1.4430 H   0  0  0  0  0  0  0  0  0  0  0  0
   -1.5564   -1.3356    0.3380 H   0  0  0  0  0  0  0  0  0  0  0  0
   -0.2357   -2.3106   -0.2962 H   0  0  0  0  0  0  0  0  0  0  0  0
    3.4209   -3.7278   -5.1532 H   0  0  0  0  0  0  0  0  0  0  0  0
   -2.8193   -3.0355   -5.2725 H   0  0  0  0  0  0  0  0  0  0  0  0
   -0.1615   -4.8205   -9.1971 H   0  0  0  0  0  0  0  0  0  0  0  0
   -3.4936   -5.5345   -9.5771 H   0  0  0  0  0  0  0  0  0  0  0  0
   -3.3254   -3.8096  -11.3645 H   0  0  0  0  0  0  0  0  0  0  0  0
   -2.0494   -1.7785  -10.3245 H   0  0  0  0  0  0  0  0  0  0  0  0
   -3.4825   -0.8486   -8.2906 H   0  0  0  0  0  0  0  0  0  0  0  0
   -5.6429   -2.3077   -8.0770 H   0  0  0  0  0  0  0  0  0  0  0  0
   -5.7043   -4.0513  -10.1268 H   0  0  0  0  0  0  0  0  0  0  0  0
   -5.4645   -2.3879  -10.7175 H   0  0  0  0  0  0  0  0  0  0  0  0
   -4.8853   -4.6316   -7.5995 H   0  0  0  0  0  0  0  0  0  0  0  0
  1  2  2  0  0  0  0
  2  3  1  0  0  0  0
  3  4  2  0  0  0  0
  3  5  1  0  0  0  0
  5  6  2  0  0  0  0
  6  7  1  0  0  0  0
  6  8  1  0  0  0  0
  8  9  2  0  0  0  0
  9 10  1  0  0  0  0
  9 11  1  0  0  0  0
 11 12  2  0  0  0  0
 12 13  1  0  0  0  0
 13 14  2  0  0  0  0
 14 15  1  0  0  0  0
 15 16  3  0  0  0  0
 14 17  1  0  0  0  0
 17 18  3  0  0  0  0
  1 19  1  0  0  0  0
 19 20  2  0  0  0  0
 20 21  1  0  0  0  0
 21 22  1  0  0  0  0
 20 23  1  0  0  0  0
 23 24  1  0  0  0  0
 24 25  1  0  0  0  0
 25 26  1  0  0  0  0
 26 27  1  0  0  0  0
 27 28  1  0  0  0  0
 28 29  2  0  0  0  0
 29 30  1  0  0  0  0
 30 31  1  0  0  0  0
 28 32  1  0  0  0  0
 32 33  1  0  0  0  0
 33 34  1  0  0  0  0
 34 35  1  0  0  0  0
 35 36  1  0  0  0  0
 36 37  1  0  0  0  0
 37 38  1  0  0  0  0
 36 39  2  0  0  0  0
 39 40  1  0  0  0  0
 40 41  1  0  0  0  0
 41 42  1  0  0  0  0
 42 43  1  0  0  0  0
 43 44  1  0  0  0  0
 44 45  1  0  0  0  0
 45 46  1  0  0  0  0
 46 47  1  0  0  0  0
 47 48  1  0  0  0  0
 48 49  1  0  0  0  0
 46 50  1  0  0  0  0
 50 51  1  0  0  0  0
 43 52  1  0  0  0  0
 52 53  1  0  0  0  0
 39 54  1  0  0  0  0
 54 55  2  0  0  0  0
 55 56  1  0  0  0  0
 56 57  2  0  0  0  0
 56 58  1  0  0  0  0
 58 59  2  0  0  0  0
 59 60  1  0  0  0  0
 60 61  2  0  0  0  0
 61 62  1  0  0  0  0
 62 63  2  0  0  0  0
 63 64  1  0  0  0  0
 64 65  2  0  0  0  0
 65 66  1  0  0  0  0
 66 67  3  0  0  0  0
 65 68  1  0  0  0  0
 68 69  3  0  0  0  0
 61 70  1  0  0  0  0
 70 71  1  0  0  0  0
 71 72  1  0  0  0  0
 72 73  2  0  0  0  0
 73 74  1  0  0  0  0
 74 75  1  0  0  0  0
 74 76  1  0  0  0  0
 13  2  1  0  0  0  0
 49 19  1  0  0  0  0
 64 55  1  0  0  0  0
 76 70  1  0  0  0  0
 12  5  1  0  0  0  0
 48 23  2  0  0  0  0
 63 58  1  0  0  0  0
 75 71  1  0  0  0  0
 47 25  2  0  0  0  0
 76 60  1  0  0  0  0
 45 26  2  0  0  0  0
 31 27  2  0  0  0  0
 44 32  2  0  0  0  0
 42 33  2  0  0  0  0
 41 35  2  0  0  0  0
  1 77  1  0  0  0  0
  8 78  1  0  0  0  0
 11 79  1  0  0  0  0
 21 80  1  0  0  0  0
 21 81  1  0  0  0  0
 22 82  1  0  0  0  0
 22 83  1  0  0  0  0
 22 84  1  0  0  0  0
 37 85  1  0  0  0  0
 37 86  1  0  0  0  0
 38 87  1  0  0  0  0
 38 88  1  0  0  0  0
 38 89  1  0  0  0  0
 50 90  1  0  0  0  0
 50 91  1  0  0  0  0
 51 92  1  0  0  0  0
 51 93  1  0  0  0  0
 51 94  1  0  0  0  0
 52 95  1  0  0  0  0
 52 96  1  0  0  0  0
 53 97  1  0  0  0  0
 53 98  1  0  0  0  0
 53 99  1  0  0  0  0
 54100  1  0  0  0  0
 59101  1  0  0  0  0
 62102  1  0  0  0  0
 70103  1  0  0  0  0
 71104  1  0  0  0  0
 72105  1  0  0  0  0
 73106  1  0  0  0  0
 74107  1  0  0  0  0
 75108  1  0  0  0  0
 75109  1  0  0  0  0
 76110  1  0  0  0  0
M  END
