130

C          0.69500       -8.63690       -5.40140
C          0.23610       -8.44710       -6.67580
C          0.91720       -9.13020       -7.80260
O          1.70350      -10.04540       -7.72790
C          0.46480       -8.40800       -9.01450
C          0.87180       -8.53740      -10.33390
Cl         2.04470       -9.69950      -10.78950
C          0.31150       -7.70050      -11.29670
C         -0.63430       -6.76200      -10.91930
Br        -1.36370       -5.62270      -12.24660
C         -1.06800       -6.61970       -9.60490
C         -0.50860       -7.45470       -8.65670
C         -0.77230       -7.57660       -7.22130
C         -1.92380       -7.17010       -6.59510
C         -2.90630       -6.35510       -7.18850
N         -3.71880       -5.66080       -7.60820
C         -2.29150       -7.61410       -5.30840
N         -2.65260       -8.00370       -4.29040
C          0.55300       -7.82080       -4.26750
C          0.94030       -8.17880       -2.97410
C          1.48200       -9.49140       -2.60310
C          2.79340       -9.53170       -2.13550
C          3.37920      -10.73230       -1.78580
C          2.64920      -11.90400       -1.88990
C          1.33800      -11.86250       -2.32760
C          0.73070      -10.66730       -2.69160
C         -0.72650      -10.65050       -3.05260
C         -1.56270      -10.21930       -1.84570
C          0.79340       -7.11610       -2.08130
S          1.07570       -6.96510       -0.36180
C          0.54430       -5.32250       -0.44770
C          0.35590       -4.22140        0.40100
C          0.48230       -4.08130        1.80100
C          0.16650       -2.81780        2.40390
N          0.28420       -2.84440        3.72190
S          0.75370       -4.32770        4.16660
N          0.82890       -4.99460        2.69400
C         -0.13230       -1.71790        1.56830
C         -0.24540       -0.34910        1.84900
S         -0.18850        0.71060        3.21560
C         -0.26200        2.07340        2.12300
C         -0.19850        3.45570        2.34740
C         -0.05080        4.02590        3.69120
C          1.03130        4.83220        4.05720
C          2.23960        4.99870        3.17760
C          3.12970        3.75780        3.28140
C          1.03350        5.39660        5.32600
C          0.00730        5.16330        6.22390
C         -1.02980        4.31710        5.87480
C         -1.05620        3.75100        4.61470
C         -0.25350        4.16290        1.14960
S         -0.32290        3.09210       -0.24930
C         -0.33210        1.70470        0.77280
C         -0.33770        0.31420        0.61850
N         -0.31920       -0.59520       -0.40420
C         -0.20640       -1.85440        0.15220
C         -0.09500       -3.14680       -0.41790
N         -0.23950       -3.60400       -1.71710
C          0.16650       -4.91480       -1.73470
C          0.30370       -5.93890       -2.66970
S          0.04020       -6.13520       -4.36050
C         -1.17080       -3.15330       -2.73190
C         -2.47060       -3.95720       -2.69170
C         -0.11420       -0.15150       -1.76550
C         -1.38880        0.42980       -2.37720
C         -0.11640        5.54560        0.88260
C         -0.40470        6.57970        1.72500
C         -1.30230        6.51800        2.90150
O         -2.13450        5.66900        3.14180
C         -1.07760        7.77240        3.64010
C         -1.57140        8.10210        4.89960
C         -1.13450        9.31720        5.36850
C         -0.28470       10.15280        4.63010
C          0.18800        9.85130        3.37560
C         -0.23410        8.61100        2.88480
C          0.10260        7.93610        1.63320
C          0.80310        8.49010        0.59320
C          1.13410        7.83180       -0.60920
N          1.45050        7.35740       -1.60650
C          1.26850        9.82150        0.56510
N          1.67400       10.89150        0.47070
C         -0.21840       11.18770        5.72530
C          1.06940       11.19670        6.57680
C          0.67030       11.94520        7.82780
C         -0.13870       11.15950        8.52710
C         -0.29880        9.86640        7.76060
C          1.09280        9.76310        7.12330
C         -1.16860       10.25850        6.54700
H          1.34520       -9.49740       -5.26760
H          0.61780       -7.78580      -12.32710
H         -1.80480       -5.87490       -9.35110
H          3.35510       -8.61150       -2.06460
H          4.39940      -10.75210       -1.43410
H          3.09840      -12.84850       -1.62180
H          0.76660      -12.77740       -2.38900
H         -1.03400      -11.64950       -3.36610
H         -0.92350       -9.96420       -3.87620
H         -2.61600      -10.20250       -2.11080
H         -1.41590      -10.90540       -1.01440
H         -1.27610       -9.22120       -1.52320
H          2.80460        5.87570        3.50050
H          1.95960        5.14790        2.13470
H          3.43630        3.59700        4.31240
H          4.01910        3.87720        2.66720
H          2.59080        2.87470        2.94470
H          1.86220        6.02830        5.61500
H          0.02860        5.63010        7.19770
H         -1.82190        4.10360        6.57620
H         -1.87740        3.11530        4.32320
H         -0.69220       -3.26830       -3.70980
H         -1.40810       -2.10890       -2.56740
H         -3.15670       -3.57240       -3.44100
H         -2.93690       -3.87040       -1.71270
H         -2.29560       -5.00920       -2.89940
H          0.64950        0.63430       -1.74570
H          0.28070       -0.97980       -2.35420
H         -2.22830       -0.25690       -2.29080
H         -1.65950        1.35210       -1.87080
H         -1.22320        0.65200       -3.42740
H          0.31270        5.77320       -0.08650
H         -2.21930        7.42470        5.43290
H          0.83770       10.50670        2.82010
H         -0.56210       12.18590        5.46200
H          1.95570       11.54980        6.05670
H          0.96250       12.95670        8.04050
H         -0.65720       11.38370        9.44070
H         -0.65940        9.00750        8.32020
H          1.17170        8.99540        6.35540
H          1.87610        9.61920        7.86590
H         -2.14990       10.63510        6.82910
