
  xtb     02012216133D
 energy: -194.479354669675 gnorm: 0.000309217631 xtb: 6.4.1 (unknown)
109120  0     0  0            999 V2000
    1.3978    7.6713    2.3659 C   0  0  0  0  0  0  0  0  0  0  0  0
    0.3738    8.5037    2.6998 C   0  0  0  0  0  0  0  0  0  0  0  0
    0.6269    9.9412    2.9687 C   0  0  0  0  0  0  0  0  0  0  0  0
    1.7022   10.4706    3.1270 O   0  0  0  0  0  0  0  0  0  0  0  0
   -0.7110   10.5767    2.9509 C   0  0  0  0  0  0  0  0  0  0  0  0
   -1.0634   11.9155    3.0358 C   0  0  0  0  0  0  0  0  0  0  0  0
    0.1250   13.1337    3.2323 Cl  0  0  0  0  0  0  0  0  0  0  0  0
   -2.4096   12.2648    2.9589 C   0  0  0  0  0  0  0  0  0  0  0  0
   -3.3637   11.2740    2.7972 C   0  0  0  0  0  0  0  0  0  0  0  0
   -5.1863   11.7795    2.6722 Br  0  0  0  0  0  0  0  0  0  0  0  0
   -3.0382    9.9239    2.7209 C   0  0  0  0  0  0  0  0  0  0  0  0
   -1.7005    9.5845    2.8042 C   0  0  0  0  0  0  0  0  0  0  0  0
   -1.0494    8.2733    2.7977 C   0  0  0  0  0  0  0  0  0  0  0  0
   -1.6665    7.0875    3.1011 C   0  0  0  0  0  0  0  0  0  0  0  0
   -0.9759    5.8947    3.4046 C   0  0  0  0  0  0  0  0  0  0  0  0
   -0.4841    4.9170    3.7519 N   0  0  0  0  0  0  0  0  0  0  0  0
   -3.0602    6.9361    3.2419 C   0  0  0  0  0  0  0  0  0  0  0  0
   -4.1896    6.7526    3.3371 N   0  0  0  0  0  0  0  0  0  0  0  0
    1.3003    6.3817    1.7544 C   0  0  0  0  0  0  0  0  0  0  0  0
    0.2498    6.0742    0.8601 C   0  0  0  0  0  0  0  0  0  0  0  0
    0.0979    4.8223    0.3272 C   0  0  0  0  0  0  0  0  0  0  0  0
    0.9743    3.8032    0.7171 C   0  0  0  0  0  0  0  0  0  0  0  0
    1.0919    2.4170    0.4932 C   0  0  0  0  0  0  0  0  0  0  0  0
    2.2551    1.9834    1.1481 C   0  0  0  0  0  0  0  0  0  0  0  0
    2.8652    3.0217    1.7808 N   0  0  0  0  0  0  0  0  0  0  0  0
    2.0889    4.1343    1.5644 C   0  0  0  0  0  0  0  0  0  0  0  0
    2.2646    5.4132    2.0475 C   0  0  0  0  0  0  0  0  0  0  0  0
    3.9764    2.9075    2.6903 C   0  0  0  0  0  0  0  0  0  0  0  0
    3.4950    2.7552    4.1322 C   0  0  0  0  0  0  0  0  0  0  0  0
    2.4116    0.6168    0.8789 C   0  0  0  0  0  0  0  0  0  0  0  0
    3.4531   -0.3054    1.1113 C   0  0  0  0  0  0  0  0  0  0  0  0
    3.3803   -1.6136    0.5576 C   0  0  0  0  0  0  0  0  0  0  0  0
    4.5164   -2.2457    0.8636 N   0  0  0  0  0  0  0  0  0  0  0  0
    5.2048   -1.3606    1.5457 N   0  0  0  0  0  0  0  0  0  0  0  0
    6.4874   -1.6685    2.1074 C   0  0  0  0  0  0  0  0  0  0  0  0
    6.3484   -2.1114    3.5614 C   0  0  0  0  0  0  0  0  0  0  0  0
    4.6323   -0.1937    1.7281 N   0  0  0  0  0  0  0  0  0  0  0  0
    2.2089   -2.0261   -0.1093 C   0  0  0  0  0  0  0  0  0  0  0  0
    1.1112   -1.1264   -0.2409 C   0  0  0  0  0  0  0  0  0  0  0  0
    1.2704    0.2338    0.1154 C   0  0  0  0  0  0  0  0  0  0  0  0
    0.4840    1.3496   -0.1284 N   0  0  0  0  0  0  0  0  0  0  0  0
   -0.4802    1.5609   -1.1877 C   0  0  0  0  0  0  0  0  0  0  0  0
   -1.8480    2.0054   -0.6665 C   0  0  0  0  0  0  0  0  0  0  0  0
    0.0220   -1.7957   -0.7774 N   0  0  0  0  0  0  0  0  0  0  0  0
   -1.3607   -1.4968   -0.4748 C   0  0  0  0  0  0  0  0  0  0  0  0
   -1.9309   -2.4469    0.5782 C   0  0  0  0  0  0  0  0  0  0  0  0
    0.4303   -3.0876   -1.0236 C   0  0  0  0  0  0  0  0  0  0  0  0
    1.7685   -3.2505   -0.6371 C   0  0  0  0  0  0  0  0  0  0  0  0
    2.1678   -4.5372   -0.8370 N   0  0  0  0  0  0  0  0  0  0  0  0
    3.5048   -5.0409   -0.6553 C   0  0  0  0  0  0  0  0  0  0  0  0
    4.2708   -5.0895   -1.9762 C   0  0  0  0  0  0  0  0  0  0  0  0
    1.0907   -5.2154   -1.3630 C   0  0  0  0  0  0  0  0  0  0  0  0
   -0.0329   -4.3288   -1.4954 C   0  0  0  0  0  0  0  0  0  0  0  0
   -1.2323   -4.8153   -2.0254 C   0  0  0  0  0  0  0  0  0  0  0  0
   -1.3383   -6.1458   -2.3306 C   0  0  0  0  0  0  0  0  0  0  0  0
   -0.2583   -7.0367   -2.1409 C   0  0  0  0  0  0  0  0  0  0  0  0
    0.9822   -6.5444   -1.7076 C   0  0  0  0  0  0  0  0  0  0  0  0
   -0.3551   -8.4372   -2.4106 C   0  0  0  0  0  0  0  0  0  0  0  0
   -1.4401   -9.2584   -2.3121 C   0  0  0  0  0  0  0  0  0  0  0  0
   -2.7252   -8.9538   -1.6174 C   0  0  0  0  0  0  0  0  0  0  0  0
   -3.0804   -7.9249   -1.0866 O   0  0  0  0  0  0  0  0  0  0  0  0
   -3.4436  -10.2296   -1.6330 C   0  0  0  0  0  0  0  0  0  0  0  0
   -4.9492  -10.7878   -1.0450 S   0  0  0  0  0  0  0  0  0  0  0  0
   -4.5749  -12.3745   -1.6539 C   0  0  0  0  0  0  0  0  0  0  0  0
   -5.8062  -13.7687   -1.4303 Br  0  0  0  0  0  0  0  0  0  0  0  0
   -3.3589  -12.4701   -2.2718 C   0  0  0  0  0  0  0  0  0  0  0  0
   -2.7051  -11.2246   -2.2546 C   0  0  0  0  0  0  0  0  0  0  0  0
   -1.4465  -10.6593   -2.7041 C   0  0  0  0  0  0  0  0  0  0  0  0
   -0.4953  -11.3540   -3.4046 C   0  0  0  0  0  0  0  0  0  0  0  0
   -0.6599  -12.7195   -3.7185 C   0  0  0  0  0  0  0  0  0  0  0  0
   -0.7741  -13.8309   -3.9803 N   0  0  0  0  0  0  0  0  0  0  0  0
    0.7183  -10.8341   -3.8963 C   0  0  0  0  0  0  0  0  0  0  0  0
    1.7229  -10.4868   -4.3319 N   0  0  0  0  0  0  0  0  0  0  0  0
    2.3940    8.0567    2.5577 H   0  0  0  0  0  0  0  0  0  0  0  0
   -2.7015   13.3008    3.0230 H   0  0  0  0  0  0  0  0  0  0  0  0
   -3.8115    9.1840    2.5930 H   0  0  0  0  0  0  0  0  0  0  0  0
   -0.4235    6.8652    0.5634 H   0  0  0  0  0  0  0  0  0  0  0  0
   -0.6946    4.6327   -0.3798 H   0  0  0  0  0  0  0  0  0  0  0  0
    3.0846    5.6589    2.7047 H   0  0  0  0  0  0  0  0  0  0  0  0
    4.6061    3.7959    2.5899 H   0  0  0  0  0  0  0  0  0  0  0  0
    4.5505    2.0250    2.3960 H   0  0  0  0  0  0  0  0  0  0  0  0
    2.9248    1.8356    4.2370 H   0  0  0  0  0  0  0  0  0  0  0  0
    2.8559    3.5890    4.4134 H   0  0  0  0  0  0  0  0  0  0  0  0
    4.3454    2.7176    4.8073 H   0  0  0  0  0  0  0  0  0  0  0  0
    7.1046   -0.7696    2.0430 H   0  0  0  0  0  0  0  0  0  0  0  0
    6.9242   -2.4651    1.5023 H   0  0  0  0  0  0  0  0  0  0  0  0
    5.7300   -3.0034    3.6257 H   0  0  0  0  0  0  0  0  0  0  0  0
    7.3275   -2.3329    3.9760 H   0  0  0  0  0  0  0  0  0  0  0  0
    5.8876   -1.3214    4.1493 H   0  0  0  0  0  0  0  0  0  0  0  0
   -0.0834    2.3528   -1.8356 H   0  0  0  0  0  0  0  0  0  0  0  0
   -0.5605    0.6529   -1.7870 H   0  0  0  0  0  0  0  0  0  0  0  0
   -2.4027    1.1921   -0.2072 H   0  0  0  0  0  0  0  0  0  0  0  0
   -1.7284    2.7849    0.0801 H   0  0  0  0  0  0  0  0  0  0  0  0
   -2.4406    2.3944   -1.4903 H   0  0  0  0  0  0  0  0  0  0  0  0
   -1.4027   -0.4887   -0.0742 H   0  0  0  0  0  0  0  0  0  0  0  0
   -1.9543   -1.5541   -1.3935 H   0  0  0  0  0  0  0  0  0  0  0  0
   -2.9484   -2.1507    0.8194 H   0  0  0  0  0  0  0  0  0  0  0  0
   -1.3310   -2.4006    1.4847 H   0  0  0  0  0  0  0  0  0  0  0  0
   -1.9437   -3.4731    0.2233 H   0  0  0  0  0  0  0  0  0  0  0  0
    3.4484   -6.0407   -0.2145 H   0  0  0  0  0  0  0  0  0  0  0  0
    4.0134   -4.3695    0.0413 H   0  0  0  0  0  0  0  0  0  0  0  0
    4.3521   -4.0898   -2.3961 H   0  0  0  0  0  0  0  0  0  0  0  0
    3.7609   -5.7274   -2.6945 H   0  0  0  0  0  0  0  0  0  0  0  0
    5.2710   -5.4793   -1.8101 H   0  0  0  0  0  0  0  0  0  0  0  0
   -2.0660   -4.1498   -2.1905 H   0  0  0  0  0  0  0  0  0  0  0  0
   -2.2542   -6.5204   -2.7539 H   0  0  0  0  0  0  0  0  0  0  0  0
    1.8166   -7.2213   -1.5992 H   0  0  0  0  0  0  0  0  0  0  0  0
    0.5816   -8.9068   -2.6896 H   0  0  0  0  0  0  0  0  0  0  0  0
   -2.9779  -13.3794   -2.6984 H   0  0  0  0  0  0  0  0  0  0  0  0
  1  2  2  0  0  0  0
  2  3  1  0  0  0  0
  3  4  2  0  0  0  0
  3  5  1  0  0  0  0
  5  6  2  0  0  0  0
  6  7  1  0  0  0  0
  6  8  1  0  0  0  0
  8  9  2  0  0  0  0
  9 10  1  0  0  0  0
  9 11  1  0  0  0  0
 11 12  2  0  0  0  0
 12 13  1  0  0  0  0
 13 14  2  0  0  0  0
 14 15  1  0  0  0  0
 15 16  3  0  0  0  0
 14 17  1  0  0  0  0
 17 18  3  0  0  0  0
  1 19  1  0  0  0  0
 19 20  2  0  0  0  0
 20 21  1  0  0  0  0
 21 22  2  0  0  0  0
 22 23  1  0  0  0  0
 23 24  2  0  0  0  0
 24 25  1  0  0  0  0
 25 26  1  0  0  0  0
 26 27  2  0  0  0  0
 25 28  1  0  0  0  0
 28 29  1  0  0  0  0
 24 30  1  0  0  0  0
 30 31  1  0  0  0  0
 31 32  1  0  0  0  0
 32 33  2  0  0  0  0
 33 34  1  0  0  0  0
 34 35  1  0  0  0  0
 35 36  1  0  0  0  0
 34 37  1  0  0  0  0
 32 38  1  0  0  0  0
 38 39  2  0  0  0  0
 39 40  1  0  0  0  0
 40 41  1  0  0  0  0
 41 42  1  0  0  0  0
 42 43  1  0  0  0  0
 39 44  1  0  0  0  0
 44 45  1  0  0  0  0
 45 46  1  0  0  0  0
 44 47  1  0  0  0  0
 47 48  2  0  0  0  0
 48 49  1  0  0  0  0
 49 50  1  0  0  0  0
 50 51  1  0  0  0  0
 49 52  1  0  0  0  0
 52 53  2  0  0  0  0
 53 54  1  0  0  0  0
 54 55  2  0  0  0  0
 55 56  1  0  0  0  0
 56 57  2  0  0  0  0
 56 58  1  0  0  0  0
 58 59  2  0  0  0  0
 59 60  1  0  0  0  0
 60 61  2  0  0  0  0
 60 62  1  0  0  0  0
 62 63  1  0  0  0  0
 63 64  1  0  0  0  0
 64 65  1  0  0  0  0
 64 66  2  0  0  0  0
 66 67  1  0  0  0  0
 67 68  1  0  0  0  0
 68 69  2  0  0  0  0
 69 70  1  0  0  0  0
 70 71  3  0  0  0  0
 69 72  1  0  0  0  0
 72 73  3  0  0  0  0
 13  2  1  0  0  0  0
 27 19  1  0  0  0  0
 40 30  2  0  0  0  0
 53 47  1  0  0  0  0
 68 59  1  0  0  0  0
 12  5  1  0  0  0  0
 26 22  1  0  0  0  0
 37 31  2  0  0  0  0
 48 38  1  0  0  0  0
 57 52  1  0  0  0  0
 67 62  2  0  0  0  0
 41 23  1  0  0  0  0
  1 74  1  0  0  0  0
  8 75  1  0  0  0  0
 11 76  1  0  0  0  0
 20 77  1  0  0  0  0
 21 78  1  0  0  0  0
 27 79  1  0  0  0  0
 28 80  1  0  0  0  0
 28 81  1  0  0  0  0
 29 82  1  0  0  0  0
 29 83  1  0  0  0  0
 29 84  1  0  0  0  0
 35 85  1  0  0  0  0
 35 86  1  0  0  0  0
 36 87  1  0  0  0  0
 36 88  1  0  0  0  0
 36 89  1  0  0  0  0
 42 90  1  0  0  0  0
 42 91  1  0  0  0  0
 43 92  1  0  0  0  0
 43 93  1  0  0  0  0
 43 94  1  0  0  0  0
 45 95  1  0  0  0  0
 45 96  1  0  0  0  0
 46 97  1  0  0  0  0
 46 98  1  0  0  0  0
 46 99  1  0  0  0  0
 50100  1  0  0  0  0
 50101  1  0  0  0  0
 51102  1  0  0  0  0
 51103  1  0  0  0  0
 51104  1  0  0  0  0
 54105  1  0  0  0  0
 55106  1  0  0  0  0
 57107  1  0  0  0  0
 58108  1  0  0  0  0
 66109  1  0  0  0  0
M  END
