
  xtb     02022215493D
 energy: -229.749766762455 gnorm: 0.000897482300 xtb: 6.4.1 (unknown)
130146  0     0  0            999 V2000
    0.6950   -8.6369   -5.4014 C   0  0  0  0  0  0  0  0  0  0  0  0
    0.2361   -8.4471   -6.6758 C   0  0  0  0  0  0  0  0  0  0  0  0
    0.9172   -9.1302   -7.8026 C   0  0  0  0  0  0  0  0  0  0  0  0
    1.7035  -10.0454   -7.7279 O   0  0  0  0  0  0  0  0  0  0  0  0
    0.4648   -8.4080   -9.0145 C   0  0  0  0  0  0  0  0  0  0  0  0
    0.8718   -8.5374  -10.3339 C   0  0  0  0  0  0  0  0  0  0  0  0
    2.0447   -9.6995  -10.7895 Cl  0  0  0  0  0  0  0  0  0  0  0  0
    0.3115   -7.7005  -11.2967 C   0  0  0  0  0  0  0  0  0  0  0  0
   -0.6343   -6.7620  -10.9193 C   0  0  0  0  0  0  0  0  0  0  0  0
   -1.3637   -5.6227  -12.2466 Br  0  0  0  0  0  0  0  0  0  0  0  0
   -1.0680   -6.6197   -9.6049 C   0  0  0  0  0  0  0  0  0  0  0  0
   -0.5086   -7.4547   -8.6567 C   0  0  0  0  0  0  0  0  0  0  0  0
   -0.7723   -7.5766   -7.2213 C   0  0  0  0  0  0  0  0  0  0  0  0
   -1.9238   -7.1701   -6.5951 C   0  0  0  0  0  0  0  0  0  0  0  0
   -2.9063   -6.3551   -7.1885 C   0  0  0  0  0  0  0  0  0  0  0  0
   -3.7188   -5.6608   -7.6082 N   0  0  0  0  0  0  0  0  0  0  0  0
   -2.2915   -7.6141   -5.3084 C   0  0  0  0  0  0  0  0  0  0  0  0
   -2.6526   -8.0037   -4.2904 N   0  0  0  0  0  0  0  0  0  0  0  0
    0.5530   -7.8208   -4.2675 C   0  0  0  0  0  0  0  0  0  0  0  0
    0.9403   -8.1788   -2.9741 C   0  0  0  0  0  0  0  0  0  0  0  0
    1.4820   -9.4914   -2.6031 C   0  0  0  0  0  0  0  0  0  0  0  0
    2.7934   -9.5317   -2.1355 C   0  0  0  0  0  0  0  0  0  0  0  0
    3.3792  -10.7323   -1.7858 C   0  0  0  0  0  0  0  0  0  0  0  0
    2.6492  -11.9040   -1.8899 C   0  0  0  0  0  0  0  0  0  0  0  0
    1.3380  -11.8625   -2.3276 C   0  0  0  0  0  0  0  0  0  0  0  0
    0.7307  -10.6673   -2.6916 C   0  0  0  0  0  0  0  0  0  0  0  0
   -0.7265  -10.6505   -3.0526 C   0  0  0  0  0  0  0  0  0  0  0  0
   -1.5627  -10.2193   -1.8457 C   0  0  0  0  0  0  0  0  0  0  0  0
    0.7934   -7.1161   -2.0813 C   0  0  0  0  0  0  0  0  0  0  0  0
    1.0757   -6.9651   -0.3618 S   0  0  0  0  0  0  0  0  0  0  0  0
    0.5443   -5.3225   -0.4477 C   0  0  0  0  0  0  0  0  0  0  0  0
    0.3559   -4.2214    0.4010 C   0  0  0  0  0  0  0  0  0  0  0  0
    0.4823   -4.0813    1.8010 C   0  0  0  0  0  0  0  0  0  0  0  0
    0.1665   -2.8178    2.4039 C   0  0  0  0  0  0  0  0  0  0  0  0
    0.2842   -2.8444    3.7219 N   0  0  0  0  0  0  0  0  0  0  0  0
    0.7537   -4.3277    4.1666 S   0  0  0  0  0  0  0  0  0  0  0  0
    0.8289   -4.9946    2.6940 N   0  0  0  0  0  0  0  0  0  0  0  0
   -0.1323   -1.7179    1.5683 C   0  0  0  0  0  0  0  0  0  0  0  0
   -0.2454   -0.3491    1.8490 C   0  0  0  0  0  0  0  0  0  0  0  0
   -0.1885    0.7106    3.2156 S   0  0  0  0  0  0  0  0  0  0  0  0
   -0.2620    2.0734    2.1230 C   0  0  0  0  0  0  0  0  0  0  0  0
   -0.1985    3.4557    2.3474 C   0  0  0  0  0  0  0  0  0  0  0  0
   -0.0508    4.0259    3.6912 C   0  0  0  0  0  0  0  0  0  0  0  0
    1.0313    4.8322    4.0572 C   0  0  0  0  0  0  0  0  0  0  0  0
    2.2396    4.9987    3.1776 C   0  0  0  0  0  0  0  0  0  0  0  0
    3.1297    3.7578    3.2814 C   0  0  0  0  0  0  0  0  0  0  0  0
    1.0335    5.3966    5.3260 C   0  0  0  0  0  0  0  0  0  0  0  0
    0.0073    5.1633    6.2239 C   0  0  0  0  0  0  0  0  0  0  0  0
   -1.0298    4.3171    5.8748 C   0  0  0  0  0  0  0  0  0  0  0  0
   -1.0562    3.7510    4.6147 C   0  0  0  0  0  0  0  0  0  0  0  0
   -0.2535    4.1629    1.1496 C   0  0  0  0  0  0  0  0  0  0  0  0
   -0.3229    3.0921   -0.2493 S   0  0  0  0  0  0  0  0  0  0  0  0
   -0.3321    1.7047    0.7728 C   0  0  0  0  0  0  0  0  0  0  0  0
   -0.3377    0.3142    0.6185 C   0  0  0  0  0  0  0  0  0  0  0  0
   -0.3192   -0.5952   -0.4042 N   0  0  0  0  0  0  0  0  0  0  0  0
   -0.2064   -1.8544    0.1522 C   0  0  0  0  0  0  0  0  0  0  0  0
   -0.0950   -3.1468   -0.4179 C   0  0  0  0  0  0  0  0  0  0  0  0
   -0.2395   -3.6040   -1.7171 N   0  0  0  0  0  0  0  0  0  0  0  0
    0.1665   -4.9148   -1.7347 C   0  0  0  0  0  0  0  0  0  0  0  0
    0.3037   -5.9389   -2.6697 C   0  0  0  0  0  0  0  0  0  0  0  0
    0.0402   -6.1352   -4.3605 S   0  0  0  0  0  0  0  0  0  0  0  0
   -1.1708   -3.1533   -2.7319 C   0  0  0  0  0  0  0  0  0  0  0  0
   -2.4706   -3.9572   -2.6917 C   0  0  0  0  0  0  0  0  0  0  0  0
   -0.1142   -0.1515   -1.7655 C   0  0  0  0  0  0  0  0  0  0  0  0
   -1.3888    0.4298   -2.3772 C   0  0  0  0  0  0  0  0  0  0  0  0
   -0.1164    5.5456    0.8826 C   0  0  0  0  0  0  0  0  0  0  0  0
   -0.4047    6.5797    1.7250 C   0  0  0  0  0  0  0  0  0  0  0  0
   -1.3023    6.5180    2.9015 C   0  0  0  0  0  0  0  0  0  0  0  0
   -2.1345    5.6690    3.1418 O   0  0  0  0  0  0  0  0  0  0  0  0
   -1.0776    7.7724    3.6401 C   0  0  0  0  0  0  0  0  0  0  0  0
   -1.5714    8.1021    4.8996 C   0  0  0  0  0  0  0  0  0  0  0  0
   -1.1345    9.3172    5.3685 C   0  0  0  0  0  0  0  0  0  0  0  0
   -0.2847   10.1528    4.6301 C   0  0  0  0  0  0  0  0  0  0  0  0
    0.1880    9.8513    3.3756 C   0  0  0  0  0  0  0  0  0  0  0  0
   -0.2341    8.6110    2.8848 C   0  0  0  0  0  0  0  0  0  0  0  0
    0.1026    7.9361    1.6332 C   0  0  0  0  0  0  0  0  0  0  0  0
    0.8031    8.4901    0.5932 C   0  0  0  0  0  0  0  0  0  0  0  0
    1.1341    7.8318   -0.6092 C   0  0  0  0  0  0  0  0  0  0  0  0
    1.4505    7.3574   -1.6065 N   0  0  0  0  0  0  0  0  0  0  0  0
    1.2685    9.8215    0.5651 C   0  0  0  0  0  0  0  0  0  0  0  0
    1.6740   10.8915    0.4707 N   0  0  0  0  0  0  0  0  0  0  0  0
   -0.2184   11.1877    5.7253 C   0  0  0  0  0  0  0  0  0  0  0  0
    1.0694   11.1967    6.5768 C   0  0  0  0  0  0  0  0  0  0  0  0
    0.6703   11.9452    7.8278 C   0  0  0  0  0  0  0  0  0  0  0  0
   -0.1387   11.1595    8.5271 C   0  0  0  0  0  0  0  0  0  0  0  0
   -0.2988    9.8664    7.7606 C   0  0  0  0  0  0  0  0  0  0  0  0
    1.0928    9.7631    7.1233 C   0  0  0  0  0  0  0  0  0  0  0  0
   -1.1686   10.2585    6.5470 C   0  0  0  0  0  0  0  0  0  0  0  0
    1.3452   -9.4974   -5.2676 H   0  0  0  0  0  0  0  0  0  0  0  0
    0.6178   -7.7858  -12.3271 H   0  0  0  0  0  0  0  0  0  0  0  0
   -1.8048   -5.8749   -9.3511 H   0  0  0  0  0  0  0  0  0  0  0  0
    3.3551   -8.6115   -2.0646 H   0  0  0  0  0  0  0  0  0  0  0  0
    4.3994  -10.7521   -1.4341 H   0  0  0  0  0  0  0  0  0  0  0  0
    3.0984  -12.8485   -1.6218 H   0  0  0  0  0  0  0  0  0  0  0  0
    0.7666  -12.7774   -2.3890 H   0  0  0  0  0  0  0  0  0  0  0  0
   -1.0340  -11.6495   -3.3661 H   0  0  0  0  0  0  0  0  0  0  0  0
   -0.9235   -9.9642   -3.8762 H   0  0  0  0  0  0  0  0  0  0  0  0
   -2.6160  -10.2025   -2.1108 H   0  0  0  0  0  0  0  0  0  0  0  0
   -1.4159  -10.9054   -1.0144 H   0  0  0  0  0  0  0  0  0  0  0  0
   -1.2761   -9.2212   -1.5232 H   0  0  0  0  0  0  0  0  0  0  0  0
    2.8046    5.8757    3.5005 H   0  0  0  0  0  0  0  0  0  0  0  0
    1.9596    5.1479    2.1347 H   0  0  0  0  0  0  0  0  0  0  0  0
    3.4363    3.5970    4.3124 H   0  0  0  0  0  0  0  0  0  0  0  0
    4.0191    3.8772    2.6672 H   0  0  0  0  0  0  0  0  0  0  0  0
    2.5908    2.8747    2.9447 H   0  0  0  0  0  0  0  0  0  0  0  0
    1.8622    6.0283    5.6150 H   0  0  0  0  0  0  0  0  0  0  0  0
    0.0286    5.6301    7.1977 H   0  0  0  0  0  0  0  0  0  0  0  0
   -1.8219    4.1036    6.5762 H   0  0  0  0  0  0  0  0  0  0  0  0
   -1.8774    3.1153    4.3232 H   0  0  0  0  0  0  0  0  0  0  0  0
   -0.6922   -3.2683   -3.7098 H   0  0  0  0  0  0  0  0  0  0  0  0
   -1.4081   -2.1089   -2.5674 H   0  0  0  0  0  0  0  0  0  0  0  0
   -3.1567   -3.5724   -3.4410 H   0  0  0  0  0  0  0  0  0  0  0  0
   -2.9369   -3.8704   -1.7127 H   0  0  0  0  0  0  0  0  0  0  0  0
   -2.2956   -5.0092   -2.8994 H   0  0  0  0  0  0  0  0  0  0  0  0
    0.6495    0.6343   -1.7457 H   0  0  0  0  0  0  0  0  0  0  0  0
    0.2807   -0.9798   -2.3542 H   0  0  0  0  0  0  0  0  0  0  0  0
   -2.2283   -0.2569   -2.2908 H   0  0  0  0  0  0  0  0  0  0  0  0
   -1.6595    1.3521   -1.8708 H   0  0  0  0  0  0  0  0  0  0  0  0
   -1.2232    0.6520   -3.4274 H   0  0  0  0  0  0  0  0  0  0  0  0
    0.3127    5.7732   -0.0865 H   0  0  0  0  0  0  0  0  0  0  0  0
   -2.2193    7.4247    5.4329 H   0  0  0  0  0  0  0  0  0  0  0  0
    0.8377   10.5067    2.8201 H   0  0  0  0  0  0  0  0  0  0  0  0
   -0.5621   12.1859    5.4620 H   0  0  0  0  0  0  0  0  0  0  0  0
    1.9557   11.5498    6.0567 H   0  0  0  0  0  0  0  0  0  0  0  0
    0.9625   12.9567    8.0405 H   0  0  0  0  0  0  0  0  0  0  0  0
   -0.6572   11.3837    9.4407 H   0  0  0  0  0  0  0  0  0  0  0  0
   -0.6594    9.0075    8.3202 H   0  0  0  0  0  0  0  0  0  0  0  0
    1.1717    8.9954    6.3554 H   0  0  0  0  0  0  0  0  0  0  0  0
    1.8761    9.6192    7.8659 H   0  0  0  0  0  0  0  0  0  0  0  0
   -2.1499   10.6351    6.8291 H   0  0  0  0  0  0  0  0  0  0  0  0
  1  2  2  0  0  0  0
  2  3  1  0  0  0  0
  3  4  2  0  0  0  0
  3  5  1  0  0  0  0
  5  6  2  0  0  0  0
  6  7  1  0  0  0  0
  6  8  1  0  0  0  0
  8  9  2  0  0  0  0
  9 10  1  0  0  0  0
  9 11  1  0  0  0  0
 11 12  2  0  0  0  0
 12 13  1  0  0  0  0
 13 14  2  0  0  0  0
 14 15  1  0  0  0  0
 15 16  3  0  0  0  0
 14 17  1  0  0  0  0
 17 18  3  0  0  0  0
  1 19  1  0  0  0  0
 19 20  2  0  0  0  0
 20 21  1  0  0  0  0
 21 22  2  0  0  0  0
 22 23  1  0  0  0  0
 23 24  2  0  0  0  0
 24 25  1  0  0  0  0
 25 26  2  0  0  0  0
 26 27  1  0  0  0  0
 27 28  1  0  0  0  0
 20 29  1  0  0  0  0
 29 30  1  0  0  0  0
 30 31  1  0  0  0  0
 31 32  1  0  0  0  0
 32 33  1  0  0  0  0
 33 34  1  0  0  0  0
 34 35  2  0  0  0  0
 35 36  1  0  0  0  0
 36 37  1  0  0  0  0
 34 38  1  0  0  0  0
 38 39  1  0  0  0  0
 39 40  1  0  0  0  0
 40 41  1  0  0  0  0
 41 42  1  0  0  0  0
 42 43  1  0  0  0  0
 43 44  2  0  0  0  0
 44 45  1  0  0  0  0
 45 46  1  0  0  0  0
 44 47  1  0  0  0  0
 47 48  2  0  0  0  0
 48 49  1  0  0  0  0
 49 50  2  0  0  0  0
 42 51  2  0  0  0  0
 51 52  1  0  0  0  0
 52 53  1  0  0  0  0
 53 54  1  0  0  0  0
 54 55  1  0  0  0  0
 55 56  1  0  0  0  0
 56 57  1  0  0  0  0
 57 58  1  0  0  0  0
 58 59  1  0  0  0  0
 59 60  1  0  0  0  0
 60 61  1  0  0  0  0
 58 62  1  0  0  0  0
 62 63  1  0  0  0  0
 55 64  1  0  0  0  0
 64 65  1  0  0  0  0
 51 66  1  0  0  0  0
 66 67  2  0  0  0  0
 67 68  1  0  0  0  0
 68 69  2  0  0  0  0
 68 70  1  0  0  0  0
 70 71  2  0  0  0  0
 71 72  1  0  0  0  0
 72 73  2  0  0  0  0
 73 74  1  0  0  0  0
 74 75  2  0  0  0  0
 75 76  1  0  0  0  0
 76 77  2  0  0  0  0
 77 78  1  0  0  0  0
 78 79  3  0  0  0  0
 77 80  1  0  0  0  0
 80 81  3  0  0  0  0
 73 82  1  0  0  0  0
 82 83  1  0  0  0  0
 83 84  1  0  0  0  0
 84 85  2  0  0  0  0
 85 86  1  0  0  0  0
 86 87  1  0  0  0  0
 86 88  1  0  0  0  0
 13  2  1  0  0  0  0
 61 19  1  0  0  0  0
 76 67  1  0  0  0  0
 88 82  1  0  0  0  0
 12  5  1  0  0  0  0
 26 21  1  0  0  0  0
 60 29  2  0  0  0  0
 75 70  1  0  0  0  0
 87 83  1  0  0  0  0
 59 31  2  0  0  0  0
 88 72  1  0  0  0  0
 57 32  2  0  0  0  0
 37 33  2  0  0  0  0
 56 38  2  0  0  0  0
 54 39  2  0  0  0  0
 53 41  2  0  0  0  0
 50 43  1  0  0  0  0
  1 89  1  0  0  0  0
  8 90  1  0  0  0  0
 11 91  1  0  0  0  0
 22 92  1  0  0  0  0
 23 93  1  0  0  0  0
 24 94  1  0  0  0  0
 25 95  1  0  0  0  0
 27 96  1  0  0  0  0
 27 97  1  0  0  0  0
 28 98  1  0  0  0  0
 28 99  1  0  0  0  0
 28100  1  0  0  0  0
 45101  1  0  0  0  0
 45102  1  0  0  0  0
 46103  1  0  0  0  0
 46104  1  0  0  0  0
 46105  1  0  0  0  0
 47106  1  0  0  0  0
 48107  1  0  0  0  0
 49108  1  0  0  0  0
 50109  1  0  0  0  0
 62110  1  0  0  0  0
 62111  1  0  0  0  0
 63112  1  0  0  0  0
 63113  1  0  0  0  0
 63114  1  0  0  0  0
 64115  1  0  0  0  0
 64116  1  0  0  0  0
 65117  1  0  0  0  0
 65118  1  0  0  0  0
 65119  1  0  0  0  0
 66120  1  0  0  0  0
 71121  1  0  0  0  0
 74122  1  0  0  0  0
 82123  1  0  0  0  0
 83124  1  0  0  0  0
 84125  1  0  0  0  0
 85126  1  0  0  0  0
 86127  1  0  0  0  0
 87128  1  0  0  0  0
 87129  1  0  0  0  0
 88130  1  0  0  0  0
M  END
