114

C         10.93530        1.71700       -2.10110
C         11.89850        1.96090       -1.14690
C         11.84920        1.68830        0.30120
O         10.90100        1.35770        0.98590
C         13.23110        1.88890        0.79120
C         13.75460        1.70000        2.06100
Cl        12.77070        1.17820        3.36360
C         15.10960        1.93740        2.27490
C         15.90100        2.35500        1.21810
Br        17.74560        2.65930        1.53090
C         15.39800        2.55710       -0.06300
C         14.05050        2.32160       -0.26630
C         13.22550        2.44100       -1.47010
C         13.64550        2.99920       -2.65030
C         12.84030        3.24200       -3.78420
N         12.26200        3.50370       -4.74150
C         14.95460        3.47140       -2.88260
N         15.99950        3.87110       -3.14000
C          9.60220        1.30740       -1.99600
S          8.76360        0.98980       -3.53280
C          7.31950        0.62790       -2.68580
C          6.00060        0.24150       -2.88950
S          4.97270       -0.21130       -4.21890
C          3.70200       -0.46560       -3.07740
C          2.35290       -0.84810       -3.11200
C          1.49600       -1.14720       -4.19390
C          0.10850       -1.39700       -3.93020
N         -0.58560       -1.60950       -5.03770
S          0.42070       -1.50960       -6.30100
N          1.78070       -1.18990       -5.48610
C         -0.33550       -1.43770       -2.59040
C         -1.58830       -1.74000       -2.03660
S         -3.19940       -2.09060       -2.55250
C         -3.68790       -2.22620       -0.87800
C         -4.93520       -2.42450       -0.26540
C         -6.17700       -2.79090       -1.00580
C         -5.96030       -3.99270       -1.92450
C         -4.82580       -2.35750        1.11610
S         -3.15730       -2.14640        1.65200
C         -2.62820       -2.02800        0.01670
C         -1.43010       -1.74630       -0.64680
N         -0.13620       -1.43980       -0.31910
C          0.55500       -1.22250       -1.50000
C          1.88420       -0.81570       -1.77370
N          2.91610       -0.38360       -0.94740
C          4.03230       -0.19600       -1.74210
C          5.38130        0.17600       -1.61160
N          6.30770        0.47510       -0.64140
C          7.48870        0.76110       -1.28200
C          8.76400        1.13340       -0.89800
C          6.21340        0.37810        0.79580
C          6.10220        1.75160        1.45620
C          2.75410        0.39720        0.26470
C          1.64950        1.44360        0.13860
C          0.36870       -1.74130        1.00250
C          1.41210       -2.85400        0.96960
C         -5.81150       -2.44390        2.12660
C         -7.06610       -1.90860        2.06250
C         -7.46150       -0.81540        1.14100
O         -6.82660       -0.35750        0.21370
C         -8.74450       -0.30670        1.66080
C         -9.48040        0.76160        1.15410
C        -10.63570        1.02530        1.84960
C        -11.02710        0.28830        2.97570
C        -10.30670       -0.76290        3.49110
C         -9.13140       -1.05350        2.79210
C         -8.12380       -2.07980        3.03760
C         -8.19810       -3.08370        3.96790
C         -9.25170       -3.24080        4.89120
N        -10.07550       -3.42080        5.67040
C         -7.24410       -4.11470        4.09980
N         -6.51760       -4.99230        4.24440
C        -12.28190        1.10210        3.17020
C        -13.62560        0.47510        2.72330
C        -13.29670       -0.50720        1.62650
C        -12.92710        0.18720        0.55870
C        -12.99940        1.65170        0.91400
C        -14.18860        1.63580        1.88760
C        -11.84720        1.92060        1.91360
H         11.25700        1.84260       -3.12850
H         15.53500        1.79360        3.25520
H         16.05340        2.87930       -0.85490
H         -6.49800       -1.92710       -1.59360
H         -6.96870       -3.02100       -0.29120
H         -5.59740       -4.84520       -1.35400
H         -6.90180       -4.26760       -2.39300
H         -5.24200       -3.76570       -2.70720
H          9.10720        1.27770        0.10910
H          5.36150       -0.25520        1.05170
H          7.12130       -0.11650        1.15550
H          5.24410        2.30530        1.08070
H          6.00010        1.63620        2.53160
H          6.99590        2.33540        1.25380
H          2.58750       -0.25450        1.12590
H          3.69470        0.92160        0.42250
H          1.60640        2.03690        1.04860
H          0.67650        0.99100       -0.02660
H          1.86120        2.10620       -0.69790
H          0.76200       -0.84200        1.48040
H         -0.48990       -2.06860        1.59420
H          1.74830       -3.07280        1.97950
H          2.27080       -2.57320        0.36510
H          0.97900       -3.75710        0.54620
H         -5.49180       -2.90940        3.05200
H         -9.13950        1.30740        0.28820
H        -10.61290       -1.31370        4.36490
H        -12.36510        1.62950        4.11840
H        -14.24010        0.09850        3.53640
H        -13.31160       -1.57370        1.75420
H        -12.57100       -0.18320       -0.38480
H        -13.04430        2.34670        0.07960
H        -14.30090        2.56150        2.45050
H        -15.12920        1.38580        1.39930
H        -11.64830        2.98300        2.04070
