
  xtb     01272209293D
 energy: -190.564912564798 gnorm: 0.000283452114 xtb: 6.4.1 (unknown)
 98109  0     0  0            999 V2000
   -0.5214    6.9573    5.0515 C   0  0  0  0  0  0  0  0  0  0  0  0
   -0.0472    8.1688    4.6178 C   0  0  0  0  0  0  0  0  0  0  0  0
   -0.4491    9.3841    5.3723 C   0  0  0  0  0  0  0  0  0  0  0  0
   -1.0015    9.4158    6.4470 O   0  0  0  0  0  0  0  0  0  0  0  0
   -0.0705   10.5227    4.5066 C   0  0  0  0  0  0  0  0  0  0  0  0
   -0.3057   11.8802    4.6646 C   0  0  0  0  0  0  0  0  0  0  0  0
   -1.1120   12.4844    6.0493 Cl  0  0  0  0  0  0  0  0  0  0  0  0
    0.1251   12.7578    3.6719 C   0  0  0  0  0  0  0  0  0  0  0  0
    0.7724   12.2583    2.5547 C   0  0  0  0  0  0  0  0  0  0  0  0
    1.3260   13.4699    1.2062 Br  0  0  0  0  0  0  0  0  0  0  0  0
    1.0308   10.9021    2.3795 C   0  0  0  0  0  0  0  0  0  0  0  0
    0.6058   10.0384    3.3711 C   0  0  0  0  0  0  0  0  0  0  0  0
    0.7531    8.5837    3.4984 C   0  0  0  0  0  0  0  0  0  0  0  0
    1.6881    7.8421    2.8177 C   0  0  0  0  0  0  0  0  0  0  0  0
    2.4729    8.3327    1.7553 C   0  0  0  0  0  0  0  0  0  0  0  0
    3.1114    8.6536    0.8564 N   0  0  0  0  0  0  0  0  0  0  0  0
    2.0316    6.5143    3.1360 C   0  0  0  0  0  0  0  0  0  0  0  0
    2.3721    5.4395    3.3542 N   0  0  0  0  0  0  0  0  0  0  0  0
   -0.6291    5.7278    4.3874 C   0  0  0  0  0  0  0  0  0  0  0  0
   -0.9827    4.2941    5.3611 S   0  0  0  0  0  0  0  0  0  0  0  0
   -0.9455    3.3156    3.9555 C   0  0  0  0  0  0  0  0  0  0  0  0
   -1.0391    1.9921    3.5455 C   0  0  0  0  0  0  0  0  0  0  0  0
   -1.2948    0.4521    4.3035 S   0  0  0  0  0  0  0  0  0  0  0  0
   -1.0981   -0.2639    2.7488 C   0  0  0  0  0  0  0  0  0  0  0  0
   -1.0424   -1.5663    2.2493 C   0  0  0  0  0  0  0  0  0  0  0  0
   -1.1571   -2.7838    2.9522 C   0  0  0  0  0  0  0  0  0  0  0  0
   -0.9555   -3.9998    2.2345 C   0  0  0  0  0  0  0  0  0  0  0  0
   -1.0542   -5.0704    3.0079 N   0  0  0  0  0  0  0  0  0  0  0  0
   -1.3759   -4.5784    4.5164 S   0  0  0  0  0  0  0  0  0  0  0  0
   -1.4017   -2.9847    4.2380 N   0  0  0  0  0  0  0  0  0  0  0  0
   -0.7138   -3.9266    0.8469 C   0  0  0  0  0  0  0  0  0  0  0  0
   -0.5284   -4.9685   -0.0639 C   0  0  0  0  0  0  0  0  0  0  0  0
   -0.3615   -6.6674   -0.0539 S   0  0  0  0  0  0  0  0  0  0  0  0
   -0.0329   -6.6173   -1.7939 C   0  0  0  0  0  0  0  0  0  0  0  0
   -0.2003   -5.3488   -2.3570 C   0  0  0  0  0  0  0  0  0  0  0  0
   -0.4102   -5.1736   -3.8288 C   0  0  0  0  0  0  0  0  0  0  0  0
   -1.8974   -4.9380   -4.1179 C   0  0  0  0  0  0  0  0  0  0  0  0
   -0.4227   -4.4026   -1.3421 C   0  0  0  0  0  0  0  0  0  0  0  0
   -0.5159   -3.0320   -1.2274 N   0  0  0  0  0  0  0  0  0  0  0  0
   -0.6532   -2.7006    0.1141 C   0  0  0  0  0  0  0  0  0  0  0  0
   -0.7646   -1.4812    0.8544 C   0  0  0  0  0  0  0  0  0  0  0  0
   -0.6424   -0.1305    0.5485 N   0  0  0  0  0  0  0  0  0  0  0  0
   -0.8550    0.6188    1.6871 C   0  0  0  0  0  0  0  0  0  0  0  0
   -0.8443    1.9601    2.1361 C   0  0  0  0  0  0  0  0  0  0  0  0
   -0.6543    3.2546    1.6896 N   0  0  0  0  0  0  0  0  0  0  0  0
   -0.7119    4.0777    2.7874 C   0  0  0  0  0  0  0  0  0  0  0  0
   -0.5420    5.4320    3.0300 C   0  0  0  0  0  0  0  0  0  0  0  0
   -0.6321    3.8388    0.3697 C   0  0  0  0  0  0  0  0  0  0  0  0
   -2.0029    4.3983   -0.0119 C   0  0  0  0  0  0  0  0  0  0  0  0
   -0.2123    0.5051   -0.6695 C   0  0  0  0  0  0  0  0  0  0  0  0
   -1.4035    0.9612   -1.5147 C   0  0  0  0  0  0  0  0  0  0  0  0
   -0.2038   -2.2297   -2.3864 C   0  0  0  0  0  0  0  0  0  0  0  0
    1.3082   -2.1351   -2.6000 C   0  0  0  0  0  0  0  0  0  0  0  0
    0.4409   -7.8001   -2.3842 C   0  0  0  0  0  0  0  0  0  0  0  0
    1.3919   -7.8721   -3.3757 C   0  0  0  0  0  0  0  0  0  0  0  0
    2.3273   -6.7819   -3.7134 C   0  0  0  0  0  0  0  0  0  0  0  0
    2.2903   -5.6138   -3.3796 O   0  0  0  0  0  0  0  0  0  0  0  0
    3.4052   -7.4252   -4.4992 C   0  0  0  0  0  0  0  0  0  0  0  0
    4.5476   -6.8450   -5.0132 C   0  0  0  0  0  0  0  0  0  0  0  0
    5.4168   -7.6564   -5.7249 C   0  0  0  0  0  0  0  0  0  0  0  0
    6.5346   -7.1330   -6.2445 F   0  0  0  0  0  0  0  0  0  0  0  0
    5.1386   -9.0111   -5.9055 C   0  0  0  0  0  0  0  0  0  0  0  0
    5.9989   -9.7711   -6.5924 F   0  0  0  0  0  0  0  0  0  0  0  0
    3.9908   -9.5945   -5.3885 C   0  0  0  0  0  0  0  0  0  0  0  0
    3.1164   -8.7882   -4.6781 C   0  0  0  0  0  0  0  0  0  0  0  0
    1.8451   -9.0838   -4.0199 C   0  0  0  0  0  0  0  0  0  0  0  0
    1.1640  -10.2715   -4.0793 C   0  0  0  0  0  0  0  0  0  0  0  0
    1.6435  -11.4234   -4.7357 C   0  0  0  0  0  0  0  0  0  0  0  0
    1.9924  -12.3882   -5.2502 N   0  0  0  0  0  0  0  0  0  0  0  0
   -0.1213  -10.4736   -3.5326 C   0  0  0  0  0  0  0  0  0  0  0  0
   -1.1784  -10.6897   -3.1406 N   0  0  0  0  0  0  0  0  0  0  0  0
   -0.9367    6.9836    6.0551 H   0  0  0  0  0  0  0  0  0  0  0  0
   -0.0494   13.8167    3.7767 H   0  0  0  0  0  0  0  0  0  0  0  0
    1.5368   10.5581    1.4923 H   0  0  0  0  0  0  0  0  0  0  0  0
   -0.1086   -6.0831   -4.3456 H   0  0  0  0  0  0  0  0  0  0  0  0
    0.1995   -4.3596   -4.2216 H   0  0  0  0  0  0  0  0  0  0  0  0
   -2.2926   -4.0905   -3.5620 H   0  0  0  0  0  0  0  0  0  0  0  0
   -2.4709   -5.8183   -3.8368 H   0  0  0  0  0  0  0  0  0  0  0  0
   -2.0444   -4.7571   -5.1799 H   0  0  0  0  0  0  0  0  0  0  0  0
   -0.4040    6.1871    2.2778 H   0  0  0  0  0  0  0  0  0  0  0  0
   -0.3108    3.1078   -0.3665 H   0  0  0  0  0  0  0  0  0  0  0  0
    0.1066    4.6464    0.3835 H   0  0  0  0  0  0  0  0  0  0  0  0
   -2.2995    5.1837    0.6785 H   0  0  0  0  0  0  0  0  0  0  0  0
   -1.9685    4.8114   -1.0162 H   0  0  0  0  0  0  0  0  0  0  0  0
   -2.7605    3.6181    0.0210 H   0  0  0  0  0  0  0  0  0  0  0  0
    0.4449   -0.1638   -1.2176 H   0  0  0  0  0  0  0  0  0  0  0  0
    0.4021    1.3628   -0.3821 H   0  0  0  0  0  0  0  0  0  0  0  0
   -2.0528    0.1240   -1.7625 H   0  0  0  0  0  0  0  0  0  0  0  0
   -2.0044    1.6778   -0.9627 H   0  0  0  0  0  0  0  0  0  0  0  0
   -1.0603    1.4258   -2.4356 H   0  0  0  0  0  0  0  0  0  0  0  0
   -0.6529   -2.7186   -3.2503 H   0  0  0  0  0  0  0  0  0  0  0  0
   -0.6709   -1.2553   -2.3045 H   0  0  0  0  0  0  0  0  0  0  0  0
    1.7200   -3.1244   -2.7875 H   0  0  0  0  0  0  0  0  0  0  0  0
    1.8081   -1.7305   -1.7215 H   0  0  0  0  0  0  0  0  0  0  0  0
    1.5260   -1.4980   -3.4535 H   0  0  0  0  0  0  0  0  0  0  0  0
    0.1156   -8.7237   -1.9202 H   0  0  0  0  0  0  0  0  0  0  0  0
    4.7618   -5.7979   -4.8704 H   0  0  0  0  0  0  0  0  0  0  0  0
    3.8219  -10.6466   -5.5496 H   0  0  0  0  0  0  0  0  0  0  0  0
  1  2  2  0  0  0  0
  2  3  1  0  0  0  0
  3  4  2  0  0  0  0
  3  5  1  0  0  0  0
  5  6  2  0  0  0  0
  6  7  1  0  0  0  0
  6  8  1  0  0  0  0
  8  9  2  0  0  0  0
  9 10  1  0  0  0  0
  9 11  1  0  0  0  0
 11 12  2  0  0  0  0
 12 13  1  0  0  0  0
 13 14  2  0  0  0  0
 14 15  1  0  0  0  0
 15 16  3  0  0  0  0
 14 17  1  0  0  0  0
 17 18  3  0  0  0  0
  1 19  1  0  0  0  0
 19 20  1  0  0  0  0
 20 21  1  0  0  0  0
 21 22  1  0  0  0  0
 22 23  1  0  0  0  0
 23 24  1  0  0  0  0
 24 25  1  0  0  0  0
 25 26  1  0  0  0  0
 26 27  1  0  0  0  0
 27 28  2  0  0  0  0
 28 29  1  0  0  0  0
 29 30  1  0  0  0  0
 27 31  1  0  0  0  0
 31 32  1  0  0  0  0
 32 33  1  0  0  0  0
 33 34  1  0  0  0  0
 34 35  2  0  0  0  0
 35 36  1  0  0  0  0
 36 37  1  0  0  0  0
 35 38  1  0  0  0  0
 38 39  1  0  0  0  0
 39 40  1  0  0  0  0
 40 41  1  0  0  0  0
 41 42  1  0  0  0  0
 42 43  1  0  0  0  0
 43 44  1  0  0  0  0
 44 45  1  0  0  0  0
 45 46  1  0  0  0  0
 46 47  1  0  0  0  0
 45 48  1  0  0  0  0
 48 49  1  0  0  0  0
 42 50  1  0  0  0  0
 50 51  1  0  0  0  0
 39 52  1  0  0  0  0
 52 53  1  0  0  0  0
 34 54  1  0  0  0  0
 54 55  2  0  0  0  0
 55 56  1  0  0  0  0
 56 57  2  0  0  0  0
 56 58  1  0  0  0  0
 58 59  2  0  0  0  0
 59 60  1  0  0  0  0
 60 61  1  0  0  0  0
 60 62  2  0  0  0  0
 62 63  1  0  0  0  0
 62 64  1  0  0  0  0
 64 65  2  0  0  0  0
 65 66  1  0  0  0  0
 66 67  2  0  0  0  0
 67 68  1  0  0  0  0
 68 69  3  0  0  0  0
 67 70  1  0  0  0  0
 70 71  3  0  0  0  0
 13  2  1  0  0  0  0
 47 19  2  0  0  0  0
 66 55  1  0  0  0  0
 12  5  1  0  0  0  0
 46 21  2  0  0  0  0
 65 58  1  0  0  0  0
 44 22  2  0  0  0  0
 43 24  2  0  0  0  0
 41 25  2  0  0  0  0
 30 26  2  0  0  0  0
 40 31  2  0  0  0  0
 38 32  2  0  0  0  0
  1 72  1  0  0  0  0
  8 73  1  0  0  0  0
 11 74  1  0  0  0  0
 36 75  1  0  0  0  0
 36 76  1  0  0  0  0
 37 77  1  0  0  0  0
 37 78  1  0  0  0  0
 37 79  1  0  0  0  0
 47 80  1  0  0  0  0
 48 81  1  0  0  0  0
 48 82  1  0  0  0  0
 49 83  1  0  0  0  0
 49 84  1  0  0  0  0
 49 85  1  0  0  0  0
 50 86  1  0  0  0  0
 50 87  1  0  0  0  0
 51 88  1  0  0  0  0
 51 89  1  0  0  0  0
 51 90  1  0  0  0  0
 52 91  1  0  0  0  0
 52 92  1  0  0  0  0
 53 93  1  0  0  0  0
 53 94  1  0  0  0  0
 53 95  1  0  0  0  0
 54 96  1  0  0  0  0
 59 97  1  0  0  0  0
 64 98  1  0  0  0  0
M  END
